# generated using pymatgen
data_Cu3H12C6(I2N)2
_symmetry_space_group_name_H-M   'P 1'
_cell_length_a   16.15335397
_cell_length_b   16.15690968
_cell_length_c   16.15427688
_cell_angle_alpha   104.62491375
_cell_angle_beta   104.65563969
_cell_angle_gamma   104.66847678
_symmetry_Int_Tables_number   1
_chemical_formula_structural   Cu3H12C6(I2N)2
_chemical_formula_sum   'Cu18 H72 C36 I24 N12'
_cell_volume   3713.40095769
_cell_formula_units_Z   6
loop_
 _symmetry_equiv_pos_site_id
 _symmetry_equiv_pos_as_xyz
  1  'x, y, z'
loop_
 _atom_site_type_symbol
 _atom_site_label
 _atom_site_symmetry_multiplicity
 _atom_site_fract_x
 _atom_site_fract_y
 _atom_site_fract_z
 _atom_site_occupancy
 _atom_site_pbe_bader_charge
 _atom_site_pbe_bader_spin_density
 _atom_site_pbe_cm5_charge
 _atom_site_pbe_ddec_charge
 _atom_site_pbe_ddec_spin_density
 _atom_site_pbe_ddec_sum_bond_order
 _atom_site_pbe_magmom
Cu  Cu0  1  0.42460690  0.77917574  0.02065716  1  0.448203  0.19174  0.294851  0.222962  0.232235  2.666787  0.194
Cu  Cu1  1  0.37034683  0.72759523  0.14623460  1  0.440029  0.181331  0.288394  0.215125  0.219968  2.688941  0.183
Cu  Cu2  1  0.20157776  0.52681896  0.85578531  1  0.344774  0.142092  0.176317  0.169154  0.172041  2.74542  0.144
Cu  Cu3  1  0.02072278  0.42468185  0.77911622  1  0.448759  0.191868  0.294834  0.223077  0.232385  2.666481  0.194
Cu  Cu4  1  0.14630009  0.37022488  0.72742129  1  0.440538  0.181845  0.288568  0.21516  0.220508  2.687478  0.184
Cu  Cu5  1  0.85584089  0.20142666  0.52669788  1  0.344954  0.141913  0.176472  0.169463  0.171867  2.747913  0.144
Cu  Cu6  1  0.77939642  0.02086847  0.42468421  1  0.447753  0.191552  0.294929  0.222604  0.232093  2.668465  0.194
Cu  Cu7  1  0.72756970  0.14610336  0.37028259  1  0.438679  0.181475  0.288688  0.2149  0.220118  2.691327  0.183
Cu  Cu8  1  0.52677765  0.85611707  0.20154653  1  0.345926  0.141958  0.176353  0.169213  0.171836  2.746476  0.144
Cu  Cu9  1  0.57550401  0.22086705  0.97942156  1  0.447993  0.191645  0.294953  0.223057  0.232113  2.666633  0.194
Cu  Cu10  1  0.62966839  0.27238212  0.85379250  1  0.439674  0.181368  0.288405  0.215075  0.220029  2.68899  0.183
Cu  Cu11  1  0.79845040  0.47319315  0.14421769  1  0.34446  0.142106  0.176442  0.169223  0.172071  2.747707  0.144
Cu  Cu12  1  0.97917890  0.57525330  0.22080426  1  0.449086  0.191723  0.294846  0.223003  0.232253  2.667494  0.194
Cu  Cu13  1  0.85360401  0.62976911  0.27248400  1  0.440676  0.181793  0.288622  0.215108  0.220461  2.689469  0.184
Cu  Cu14  1  0.14401135  0.79847733  0.47316737  1  0.345754  0.142093  0.176405  0.169505  0.171999  2.746505  0.144
Cu  Cu15  1  0.22063962  0.97919158  0.57532144  1  0.447999  0.191737  0.29485  0.222821  0.232302  2.666812  0.194
Cu  Cu16  1  0.27248530  0.85395206  0.62972971  1  0.438966  0.181501  0.288541  0.214782  0.220149  2.689184  0.183
Cu  Cu17  1  0.47334143  0.14399998  0.79854143  1  0.34558  0.141771  0.176167  0.168918  0.171665  2.745625  0.144
H  H18  1  0.16983774  0.70538562  0.06602533  1  0.060865  0.00078  0.097286  0.092586  0.000358  0.98574  0.0
H  H19  1  0.18628159  0.59976210  0.02970775  1  0.072498  0.001147  0.077751  0.066072  0.00037  1.080625  0.001
H  H20  1  0.06274508  0.52167533  0.06455336  1  0.047327  0.000491  0.101307  0.088471  0.000181  1.000448  0.0
H  H21  1  0.02903931  0.61872169  0.06805408  1  0.061708  0.002233  0.089746  0.084069  0.001169  1.027182  0.001
H  H22  1  0.24835165  0.54033496  0.14549672  1  0.049545  0.001479  0.105146  0.09801  0.000802  0.968479  0.0
H  H23  1  0.31128017  0.61487711  0.25896648  1  0.072907  0.002447  0.099489  0.094801  0.001431  0.994019  0.001
H  H24  1  0.18116240  0.59031709  0.30374066  1  0.050864  0.000516  0.094984  0.095564  7.8e-05  1.006219  0.001
H  H25  1  0.12757744  0.49512786  0.20117115  1  0.065213  0.001617  0.098151  0.092618  0.000764  0.996465  0.001
H  H26  1  0.29146162  0.76016237  0.30524048  1  0.078549  0.000287  0.099938  0.095578  -8e-05  0.988757  0.0
H  H27  1  0.25228400  0.80899293  0.22281869  1  0.050944  0.002377  0.09017  0.090251  0.001187  1.021058  0.001
H  H28  1  0.09897511  0.74688927  0.21137302  1  0.055189  0.000847  0.097202  0.093186  0.000449  0.98117  0.0
H  H29  1  0.14525307  0.72807856  0.31406581  1  0.073102  0.001954  0.071457  0.060932  0.000829  1.10531  0.002
H  H30  1  0.06614479  0.16979860  0.70546017  1  0.06627  0.000776  0.097287  0.092522  0.000357  0.985918  0.0
H  H31  1  0.02954766  0.18628083  0.59985137  1  0.070394  0.001156  0.077776  0.065997  0.000373  1.0814  0.001
H  H32  1  0.06426954  0.06287623  0.52152825  1  0.017509  0.000495  0.101242  0.088335  0.000181  1.001323  0.0
H  H33  1  0.06780447  0.02898769  0.61852908  1  0.065462  0.002232  0.089807  0.08415  0.001168  1.027502  0.001
H  H34  1  0.14508999  0.24812439  0.54006649  1  0.072688  0.001467  0.104947  0.09755  0.000801  0.968609  0.0
H  H35  1  0.25868403  0.31108658  0.61441780  1  0.06918  0.002458  0.099316  0.094551  0.001437  0.994126  0.001
H  H36  1  0.30347962  0.18105669  0.59006615  1  0.053626  0.000509  0.095051  0.095421  7.6e-05  1.006453  0.001
H  H37  1  0.20087017  0.12748716  0.49488860  1  0.061752  0.001623  0.098408  0.092732  0.000764  0.996303  0.001
H  H38  1  0.30532961  0.29119949  0.75976023  1  0.077505  0.000285  0.099879  0.095239  -8.1e-05  0.9896  0.0
H  H39  1  0.22304652  0.25222419  0.80885748  1  0.092159  0.00236  0.090372  0.090021  0.001199  1.020261  0.001
H  H40  1  0.21115360  0.09883868  0.74671891  1  0.055401  0.000838  0.097013  0.092925  0.000445  0.980596  0.0
H  H41  1  0.31388993  0.14497751  0.72787257  1  0.073987  0.00197  0.071613  0.0611  0.000839  1.104643  0.002
H  H42  1  0.70533730  0.06608647  0.16997916  1  0.061929  0.000777  0.097208  0.092238  0.000358  0.986373  0.0
H  H43  1  0.59969460  0.02966593  0.18643041  1  0.070317  0.001156  0.077717  0.066139  0.000373  1.080644  0.001
H  H44  1  0.52158179  0.06454460  0.06285476  1  0.045591  0.000492  0.101518  0.088948  0.000181  1.000151  0.0
H  H45  1  0.61870278  0.06808716  0.02922816  1  0.062307  0.002231  0.089744  0.084157  0.001167  1.026884  0.001
H  H46  1  0.54027258  0.14541028  0.24854487  1  0.051162  0.001487  0.104999  0.097878  0.000806  0.968424  0.0
H  H47  1  0.61488251  0.25888289  0.31138912  1  0.072124  0.002446  0.099421  0.094807  0.001431  0.994375  0.001
H  H48  1  0.59028672  0.30360776  0.18124697  1  0.051908  0.000518  0.095026  0.095243  7.9e-05  1.006799  0.001
H  H49  1  0.49509125  0.20099185  0.12767331  1  0.080753  0.001599  0.098256  0.092713  0.000757  0.995928  0.001
H  H50  1  0.76013988  0.30524097  0.29162121  1  0.078868  0.000282  0.100104  0.095622  -8.1e-05  0.988708  0.0
H  H51  1  0.80905801  0.22289564  0.25253314  1  0.050195  0.002396  0.090125  0.090084  0.001197  1.020822  0.001
H  H52  1  0.74697311  0.21133638  0.09923918  1  0.055718  0.000839  0.097172  0.093109  0.000444  0.98099  0.0
H  H53  1  0.72821417  0.31402975  0.14536922  1  0.073286  0.001976  0.071457  0.060633  0.000839  1.105023  0.002
H  H54  1  0.83013123  0.29453733  0.93394717  1  0.066085  0.000778  0.097318  0.092747  0.000357  0.985912  0.0
H  H55  1  0.81365424  0.40014945  0.97027664  1  0.072322  0.001147  0.077806  0.066323  0.000369  1.080715  0.001
H  H56  1  0.93716078  0.47828838  0.93542907  1  0.04795  0.000491  0.10146  0.088683  0.000181  1.000637  0.0
H  H57  1  0.97091218  0.38126976  0.93193783  1  0.062742  0.002233  0.089795  0.084309  0.001168  1.027018  0.001
H  H58  1  0.75158585  0.45958941  0.85451043  1  0.053096  0.001477  0.105087  0.097927  0.000802  0.968303  0.0
H  H59  1  0.68864851  0.38505008  0.74103362  1  0.074932  0.00245  0.099484  0.094841  0.001434  0.99433  0.001
H  H60  1  0.81874500  0.40960235  0.69623183  1  0.050395  0.000515  0.094961  0.095267  7.7e-05  1.006376  0.001
H  H61  1  0.87232672  0.50481919  0.79878817  1  0.075907  0.001607  0.098076  0.09253  0.000763  0.996255  0.001
H  H62  1  0.70849520  0.23976619  0.69472978  1  0.078593  0.000287  0.100106  0.095745  -7.9e-05  0.988781  0.0
H  H63  1  0.74769180  0.19093611  0.77715638  1  0.052346  0.002375  0.090145  0.090109  0.001188  1.021209  0.001
H  H64  1  0.90099918  0.25308279  0.78861726  1  0.055713  0.000848  0.097223  0.092973  0.000449  0.981109  0.0
H  H65  1  0.85470549  0.27188193  0.68591586  1  0.072853  0.001958  0.071461  0.060756  0.000831  1.105193  0.002
H  H66  1  0.93384478  0.83021871  0.29453209  1  0.065989  0.000777  0.097284  0.092509  0.000358  0.985995  0.0
H  H67  1  0.97039767  0.81371620  0.40012677  1  0.071243  0.001153  0.077669  0.066045  0.000372  1.081618  0.001
H  H68  1  0.93571520  0.93714389  0.47844864  1  0.01752  0.000494  0.101258  0.088423  0.00018  1.001389  0.0
H  H69  1  0.93218713  0.97103219  0.38145998  1  0.065372  0.00223  0.089776  0.084132  0.001167  1.027824  0.001
H  H70  1  0.85483267  0.75186948  0.45987431  1  0.072117  0.001469  0.105182  0.098196  0.000801  0.968598  0.0
H  H71  1  0.74124758  0.68894143  0.38550704  1  0.069299  0.002456  0.099348  0.094781  0.001436  0.994216  0.001
H  H72  1  0.69648481  0.81898730  0.40988376  1  0.053264  0.000511  0.095112  0.095507  7.7e-05  1.00643  0.001
H  H73  1  0.79908949  0.87252985  0.50508441  1  0.06174  0.001624  0.098396  0.092788  0.000765  0.996459  0.001
H  H74  1  0.69464765  0.70885946  0.24017303  1  0.07869  0.000285  0.100063  0.095351  -8.1e-05  0.989395  0.0
H  H75  1  0.77695829  0.74784721  0.19112034  1  0.092082  0.002357  0.090401  0.090087  0.001198  1.020576  0.001
H  H76  1  0.78885482  0.90123468  0.25328319  1  0.05526  0.000841  0.097034  0.093043  0.000447  0.980383  0.0
H  H77  1  0.68611769  0.85509107  0.27212135  1  0.073768  0.001969  0.071514  0.060949  0.000838  1.104981  0.002
H  H78  1  0.29473955  0.93393238  0.83009512  1  0.062931  0.000776  0.097374  0.092624  0.000357  0.986002  0.0
H  H79  1  0.40037975  0.97036049  0.81365874  1  0.069773  0.001157  0.077796  0.066277  0.000373  1.080506  0.001
H  H80  1  0.47849216  0.93545604  0.93721554  1  0.044824  0.000493  0.101395  0.088688  0.000182  1.00065  0.0
H  H81  1  0.38136567  0.93190973  0.97083614  1  0.063241  0.002235  0.089778  0.084127  0.001169  1.026807  0.001
H  H82  1  0.45982396  0.85462137  0.75152569  1  0.051507  0.001486  0.105044  0.098137  0.000806  0.968076  0.0
H  H83  1  0.38522066  0.74114575  0.68866933  1  0.072625  0.002444  0.099514  0.094716  0.001429  0.994219  0.001
H  H84  1  0.40980684  0.69641513  0.81880149  1  0.051916  0.000518  0.094996  0.095153  7.9e-05  1.006925  0.001
H  H85  1  0.50498961  0.79902636  0.87239562  1  0.079589  0.001598  0.098125  0.092504  0.000757  0.996174  0.001
H  H86  1  0.23992925  0.69478408  0.70841369  1  0.078509  0.000283  0.099958  0.095643  -8.1e-05  0.988965  0.0
H  H87  1  0.19101924  0.77712317  0.74751027  1  0.050807  0.002393  0.090025  0.09008  0.001196  1.020758  0.001
H  H88  1  0.25308832  0.78866123  0.90079446  1  0.055913  0.000839  0.097163  0.09323  0.000445  0.981366  0.0
H  H89  1  0.27184791  0.68597123  0.85465798  1  0.073133  0.001974  0.07144  0.06073  0.000839  1.104971  0.002
C  C90  1  0.17304800  0.64493298  0.08408321  1  0.242168  0.003934  -0.088129  -0.094247  0.002648  3.834296  0.002
C  C91  1  0.08438448  0.59556811  0.09683844  1  0.240939  0.004751  -0.081229  -0.09072  0.003287  3.822567  0.003
C  C92  1  0.24871254  0.59586376  0.20138638  1  0.240446  0.004989  -0.072861  -0.081849  0.003566  3.794888  0.003
C  C93  1  0.16331707  0.56879427  0.22946856  1  0.254388  0.003872  -0.075586  -0.084653  0.002603  3.789826  0.002
C  C94  1  0.23973068  0.74650232  0.23980523  1  0.244205  0.006258  -0.081952  -0.088999  0.004414  3.806382  0.004
C  C95  1  0.14272051  0.71356330  0.24326471  1  0.226819  0.005774  -0.090706  -0.089613  0.00413  3.826637  0.004
C  C96  1  0.08399909  0.17300091  0.64489510  1  0.238529  0.003947  -0.088231  -0.094359  0.002656  3.835649  0.002
C  C97  1  0.09660888  0.08436696  0.59542985  1  0.26584  0.004757  -0.081098  -0.090328  0.003294  3.823969  0.003
C  C98  1  0.20112691  0.24855290  0.59556483  1  0.22323  0.004992  -0.072526  -0.081244  0.00356  3.7934  0.003
C  C99  1  0.22920117  0.16320437  0.56855920  1  0.254751  0.003869  -0.075848  -0.083817  0.002601  3.788844  0.002
C  C100  1  0.23986949  0.23959721  0.74628092  1  0.183297  0.006416  -0.08182  -0.088169  0.004425  3.805671  0.004
C  C101  1  0.24311559  0.14254852  0.71337125  1  0.227607  0.005708  -0.090675  -0.089396  0.004151  3.82686  0.004
C  C102  1  0.64486940  0.08407762  0.17318782  1  0.240723  0.003942  -0.088367  -0.094366  0.002653  3.835792  0.002
C  C103  1  0.59552498  0.09682285  0.08453051  1  0.242596  0.004769  -0.081712  -0.09168  0.003303  3.822861  0.003
C  C104  1  0.59581287  0.20131718  0.24886416  1  0.245592  0.004981  -0.072549  -0.081347  0.00357  3.793082  0.003
C  C105  1  0.56878662  0.22935723  0.16344409  1  0.233964  0.003889  -0.076086  -0.084328  0.002597  3.789406  0.002
C  C106  1  0.74652418  0.23983930  0.23993096  1  0.243235  0.006288  -0.081999  -0.08871  0.004434  3.805584  0.004
C  C107  1  0.71364023  0.24324635  0.14291220  1  0.229909  0.005809  -0.090312  -0.088039  0.004157  3.824561  0.004
C  C108  1  0.82691380  0.35500054  0.91591056  1  0.235382  0.003937  -0.088545  -0.095166  0.00265  3.835307  0.002
C  C109  1  0.91555174  0.40438955  0.90314320  1  0.240303  0.004751  -0.081485  -0.09117  0.00329  3.823797  0.003
C  C110  1  0.75122014  0.40407359  0.79859741  1  0.240435  0.004977  -0.072816  -0.081574  0.00357  3.794319  0.003
C  C111  1  0.83659856  0.43113871  0.77050313  1  0.238377  0.003898  -0.075514  -0.08425  0.002602  3.789942  0.002
C  C112  1  0.76022891  0.25343162  0.76016580  1  0.242169  0.006269  -0.082197  -0.08939  0.004419  3.807194  0.004
C  C113  1  0.85723729  0.28639371  0.75671097  1  0.226199  0.005783  -0.090674  -0.088555  0.004136  3.825932  0.004
C  C114  1  0.91597003  0.82700964  0.35508361  1  0.23804  0.00394  -0.088175  -0.094173  0.002652  3.835869  0.002
C  C115  1  0.90337863  0.91565030  0.40455817  1  0.265604  0.004755  -0.081162  -0.090788  0.003291  3.824333  0.003
C  C116  1  0.79882579  0.75146489  0.40438499  1  0.223245  0.00499  -0.072928  -0.082829  0.003561  3.795146  0.003
C  C117  1  0.77077349  0.83682967  0.43141121  1  0.25551  0.003875  -0.075846  -0.083639  0.002603  3.789139  0.002
C  C118  1  0.76011741  0.76045671  0.25367639  1  0.180943  0.006417  -0.082312  -0.08855  0.004423  3.806314  0.004
C  C119  1  0.75688438  0.85749964  0.28661759  1  0.228531  0.005695  -0.090549  -0.089188  0.004146  3.826803  0.004
C  C120  1  0.35521621  0.91594215  0.82688205  1  0.209126  0.004016  -0.08855  -0.095006  0.002656  3.835243  0.002
C  C121  1  0.40454952  0.90317153  0.91553219  1  0.260683  0.004699  -0.081483  -0.091111  0.003299  3.823052  0.003
C  C122  1  0.40426132  0.79871735  0.75119972  1  0.244255  0.004976  -0.072611  -0.08182  0.003566  3.793649  0.003
C  C123  1  0.43130896  0.77065741  0.83661150  1  0.235133  0.003891  -0.075677  -0.083689  0.002599  3.788275  0.002
C  C124  1  0.25355096  0.76018004  0.76010278  1  0.243982  0.006287  -0.081783  -0.088788  0.004433  3.80605  0.004
C  C125  1  0.28642941  0.75676034  0.85712324  1  0.228213  0.005806  -0.090629  -0.089146  0.004154  3.826597  0.004
I  I126  1  0.35663444  0.60523468  0.99417397  1  -0.287592  0.113451  -0.120745  -0.188165  0.096884  2.189105  0.079
I  I127  1  0.50566207  0.73116862  0.27707737  1  -0.36538  0.12888  -0.184974  -0.270408  0.106655  1.700516  0.082
I  I128  1  0.07490907  0.60172757  0.83795951  1  -0.406105  0.05346  -0.19976  -0.297614  0.043582  1.706725  0.034
I  I129  1  0.36583301  0.88668417  0.13064248  1  -0.382399  0.053424  -0.160296  -0.261897  0.043752  1.827293  0.032
I  I130  1  0.99412928  0.35648947  0.60509887  1  -0.28725  0.113419  -0.120913  -0.188588  0.096796  2.189514  0.079
I  I131  1  0.27734741  0.50550293  0.73114693  1  -0.364866  0.128386  -0.185124  -0.270181  0.106169  1.699964  0.082
I  I132  1  0.83824944  0.07480071  0.60172216  1  -0.406254  0.053644  -0.199705  -0.297572  0.04371  1.707008  0.034
I  I133  1  0.13062707  0.36582918  0.88657568  1  -0.382441  0.053535  -0.160531  -0.262045  0.043842  1.82599  0.032
I  I134  1  0.60521748  0.99410361  0.35670876  1  -0.287374  0.11343  -0.120548  -0.187841  0.09689  2.189218  0.079
I  I135  1  0.73096211  0.27690608  0.50539567  1  -0.364234  0.128271  -0.185031  -0.270505  0.106035  1.701171  0.082
I  I136  1  0.60171514  0.83824789  0.07490413  1  -0.406063  0.053392  -0.199826  -0.297717  0.0435  1.707059  0.034
I  I137  1  0.88699441  0.13092960  0.36606575  1  -0.38183  0.053103  -0.16035  -0.261663  0.043487  1.82669  0.032
I  I138  1  0.64346224  0.39480283  0.00590735  1  -0.287212  0.113433  -0.120767  -0.188267  0.096815  2.190509  0.079
I  I139  1  0.49442404  0.26886980  0.72287589  1  -0.365309  0.128748  -0.184964  -0.270313  0.106507  1.699321  0.082
I  I140  1  0.92503963  0.39824832  0.16203963  1  -0.405949  0.053399  -0.199724  -0.297599  0.043528  1.708061  0.034
I  I141  1  0.63428841  0.11332245  0.86943732  1  -0.382419  0.053237  -0.160208  -0.261786  0.043611  1.825697  0.032
I  I142  1  0.00568257  0.64342627  0.39477415  1  -0.288161  0.113518  -0.120815  -0.188467  0.096851  2.190041  0.079
I  I143  1  0.72264921  0.49450245  0.26881192  1  -0.364747  0.128614  -0.185119  -0.270041  0.106329  1.700931  0.082
I  I144  1  0.16170046  0.92518753  0.39824628  1  -0.406227  0.053648  -0.1997  -0.297625  0.043709  1.706637  0.034
I  I145  1  0.86930812  0.63415249  0.11341907  1  -0.382281  0.053672  -0.160521  -0.261797  0.043947  1.827743  0.033
I  I146  1  0.39484961  0.00598472  0.64333880  1  -0.287214  0.113407  -0.120529  -0.187921  0.096843  2.188154  0.079
I  I147  1  0.26895498  0.72308271  0.49453260  1  -0.364963  0.128273  -0.185045  -0.27051  0.106092  1.700714  0.082
I  I148  1  0.39837764  0.16180369  0.92517970  1  -0.405914  0.053428  -0.199987  -0.297827  0.043531  1.706316  0.034
I  I149  1  0.11301887  0.86910052  0.63391758  1  -0.382095  0.053159  -0.160442  -0.261869  0.043537  1.825878  0.032
N  N150  1  0.25134432  0.67492569  0.16952485  1  -0.977964  0.0402  -0.362394  -0.05779  0.025357  3.502028  0.034
N  N151  1  0.09915862  0.61405955  0.19527181  1  -1.002814  0.0498  -0.363263  -0.053463  0.031571  3.506729  0.042
N  N152  1  0.16947376  0.25122834  0.67475539  1  -0.980011  0.040405  -0.362555  -0.057377  0.025478  3.50046  0.034
N  N153  1  0.19503327  0.09905776  0.61386238  1  -0.981551  0.04974  -0.363698  -0.054983  0.031531  3.507949  0.042
N  N154  1  0.67488557  0.16948143  0.25146346  1  -0.977872  0.040372  -0.362574  -0.058098  0.025458  3.503168  0.034
N  N155  1  0.61410168  0.19525276  0.09935073  1  -1.004616  0.049759  -0.363399  -0.05408  0.031551  3.50707  0.042
N  N156  1  0.74862069  0.32500239  0.83045412  1  -0.976467  0.040267  -0.362284  -0.05767  0.025397  3.501564  0.034
N  N157  1  0.90077627  0.38590340  0.80470647  1  -1.002281  0.049796  -0.363119  -0.053662  0.031571  3.507034  0.042
N  N158  1  0.83048376  0.74878917  0.32520422  1  -0.978657  0.040401  -0.362257  -0.057036  0.025476  3.500639  0.034
N  N159  1  0.80495435  0.90097611  0.38612048  1  -0.982249  0.049709  -0.363801  -0.054844  0.031509  3.507541  0.042
N  N160  1  0.32519317  0.83055001  0.74858221  1  -0.965251  0.040323  -0.362415  -0.057581  0.02543  3.502218  0.034
N  N161  1  0.38596678  0.80475112  0.90070663  1  -1.002995  0.049804  -0.36329  -0.053832  0.031578  3.50718  0.042
