# generated using pymatgen
data_MnP2H18C18(NO3)2
_symmetry_space_group_name_H-M   'P 1'
_cell_length_a   7.66130491
_cell_length_b   10.82484548
_cell_length_c   10.98860817
_cell_angle_alpha   96.43318825
_cell_angle_beta   91.58673674
_cell_angle_gamma   94.85865455
_symmetry_Int_Tables_number   1
_chemical_formula_structural   MnP2H18C18(NO3)2
_chemical_formula_sum   'Mn2 P4 H36 C36 N4 O12'
_cell_volume   901.68333823
_cell_formula_units_Z   2
loop_
 _symmetry_equiv_pos_site_id
 _symmetry_equiv_pos_as_xyz
  1  'x, y, z'
loop_
 _atom_site_type_symbol
 _atom_site_label
 _atom_site_symmetry_multiplicity
 _atom_site_fract_x
 _atom_site_fract_y
 _atom_site_fract_z
 _atom_site_occupancy
 _atom_site_hle17_ddec_charge
 _atom_site_hle17_ddec_spin_density
 _atom_site_hle17_ddec_sum_bond_order
 _atom_site_hle17_magmom
 _atom_site_hse06_10hf_ddec_charge
 _atom_site_hse06_10hf_ddec_spin_density
 _atom_site_hse06_10hf_ddec_sum_bond_order
 _atom_site_hse06_10hf_magmom
 _atom_site_hse06_ddec_charge
 _atom_site_hse06_ddec_spin_density
 _atom_site_hse06_ddec_sum_bond_order
 _atom_site_hse06_magmom
 _atom_site_pbe_cm5_charge
 _atom_site_pbe_ddec_charge
 _atom_site_pbe_ddec_spin_density
 _atom_site_pbe_ddec_sum_bond_order
 _atom_site_pbe_magmom
Mn  Mn0  1  0.23954196  0.96754622  0.65610966  1  1.218249  4.789113  1.778255  4.679  1.045902  4.708563  2.282505  4.534  1.098843  4.754696  2.215227  4.596  0.616655  1.006478  4.658875  2.332304  4.468
Mn  Mn1  1  0.76042297  0.03249914  0.34394161  1  1.218305  -4.789267  1.777502  -4.679  1.045865  -4.7088  2.281604  -4.534  1.098852  -4.754894  2.214331  -4.596  0.61649  1.0064  -4.659192  2.33141  -4.469
P  P2  1  0.65876531  0.14744241  0.62446395  1  1.510984  -0.003056  4.744997  -0.001  1.357393  -0.004135  5.239181  -0.002  1.40696  -0.003457  5.201723  -0.001  0.364847  1.322568  -0.004642  5.263929  -0.002
P  P3  1  0.34122116  0.85256557  0.37553998  1  1.510892  0.003045  4.74508  0.001  1.357374  0.004106  5.239142  0.002  1.406936  0.003442  5.201684  0.001  0.364795  1.322556  0.004611  5.263893  0.002
P  P4  1  0.85720477  0.82194261  0.54012305  1  1.522461  0.001213  4.732488  0.001  1.364972  0.001493  5.230819  0.001  1.415113  0.001219  5.192709  0.001  0.370841  1.329753  0.001663  5.25574  0.001
P  P5  1  0.14283608  0.17805140  0.45990774  1  1.522079  -0.001192  4.732621  -0.001  1.364694  -0.001468  5.23104  -0.001  1.414837  -0.001192  5.192913  -0.001  0.370681  1.329488  -0.001634  5.25598  -0.001
H  H6  1  0.93942696  0.12902381  0.65530678  1  0.433918  -0.000451  0.863791  0.0  0.400131  -0.000247  0.939589  0.0  0.411582  -0.000325  0.92304  0.0  0.312538  0.392022  -0.000169  0.951261  0.0
H  H7  1  0.06057089  0.87099162  0.34468909  1  0.434064  0.000451  0.863546  0.0  0.400203  0.000247  0.939476  0.0  0.411658  0.000326  0.922926  0.0  0.312565  0.392082  0.00017  0.951162  0.0
H  H8  1  0.61333594  0.90609948  0.60514071  1  0.433947  -0.000649  0.859943  0.0  0.401079  -0.000622  0.935262  0.0  0.412529  -0.000643  0.918585  0.0  0.314606  0.392975  -0.00059  0.947043  0.0
H  H9  1  0.38663387  0.09392155  0.39485886  1  0.433755  0.000649  0.860088  0.0  0.400891  0.00062  0.935475  0.0  0.412322  0.000642  0.918832  0.0  0.314596  0.392794  0.000588  0.947243  0.0
H  H10  1  0.15112009  0.23153782  0.79031533  1  0.081874  -0.000104  0.94174  0.0  0.090977  0.000299  1.003373  0.0  0.093282  0.000152  1.001767  0.0  0.118447  0.089009  0.000447  1.004925  0.001
H  H11  1  0.84888577  0.76843651  0.20963981  1  0.08215  0.000101  0.941397  0.0  0.090991  -0.000296  1.003328  0.0  0.093292  -0.000149  1.001732  0.0  0.118437  0.089024  -0.000444  1.004877  -0.001
H  H12  1  0.08804179  0.32626282  0.00190293  1  0.089768  0.000227  0.975312  0.0  0.101361  0.000209  1.036058  0.0  0.103554  0.000166  1.036703  0.0  0.100329  0.099619  0.000255  1.035915  0.0
H  H13  1  0.91194087  0.67376656  0.99804958  1  0.089521  -0.000224  0.975405  0.0  0.100994  -0.000209  1.036304  0.0  0.103225  -0.000166  1.036913  0.0  0.100256  0.099259  -0.000255  1.036153  0.0
H  H14  1  0.12717468  0.19872270  0.17843114  1  0.109669  0.000171  0.967034  0.0  0.117739  0.000294  1.029364  0.0  0.120626  0.000302  1.027627  0.0  0.109339  0.115369  0.000296  1.03093  0.0
H  H15  1  0.87280021  0.80127592  0.82154697  1  0.109742  -0.000171  0.967102  0.0  0.117766  -0.000293  1.029494  0.0  0.120653  -0.000302  1.027751  0.0  0.109347  0.115399  -0.000295  1.031058  0.0
H  H16  1  0.23379274  0.99130186  0.13824425  1  0.128004  0.000407  0.958214  0.0  0.136193  0.000483  1.018741  0.0  0.140053  0.000421  1.01668  0.0  0.112543  0.133273  0.000542  1.020392  0.0
H  H17  1  0.76619305  0.00867899  0.86170575  1  0.12812  -0.000396  0.958183  0.0  0.136323  -0.000483  1.018696  0.0  0.140189  -0.00042  1.016609  0.0  0.112519  0.133399  -0.000542  1.020343  0.0
H  H18  1  0.34534611  0.83077704  0.09534231  1  0.114202  0.000311  0.969139  0.0  0.123608  0.000408  1.032171  0.0  0.126822  0.000342  1.030707  0.0  0.111241  0.121169  0.000468  1.033443  0.0
H  H19  1  0.65463428  0.16921316  0.90462133  1  0.114226  -0.000312  0.969376  0.0  0.123674  -0.000408  1.032319  0.0  0.126891  -0.000342  1.030849  0.0  0.111277  0.121229  -0.000468  1.033599  0.0
H  H20  1  0.46316039  0.62642672  0.03030001  1  0.082907  -4.6e-05  0.950038  0.0  0.097253  6.4e-05  1.006556  0.0  0.099559  3.5e-05  1.005051  0.0  0.103415  0.095447  9.3e-05  1.00785  0.0
H  H21  1  0.53684514  0.37354479  0.96964026  1  0.082733  4.9e-05  0.950287  0.0  0.097275  -6.4e-05  1.006591  0.0  0.099575  -3.5e-05  1.005089  0.0  0.103474  0.095473  -9.3e-05  1.007881  0.0
H  H22  1  0.50503778  0.56534738  0.80496345  1  0.099658  0.000198  0.96986  0.0  0.108833  0.000215  1.030632  0.0  0.110977  0.000173  1.031868  0.0  0.102679  0.107162  0.000257  1.030107  0.0
H  H23  1  0.49497228  0.43462876  0.19494284  1  0.099551  -0.000196  0.970098  0.0  0.108895  -0.000215  1.03065  0.0  0.111047  -0.000173  1.031873  0.0  0.102712  0.107224  -0.000257  1.030129  0.0
H  H24  1  0.41317886  0.70998413  0.65627911  1  0.096838  -3e-05  0.942335  0.0  0.101871  0.000293  1.008506  0.0  0.104735  0.000162  1.005775  0.0  0.123167  0.099561  0.000418  1.010745  0.001
H  H25  1  0.58679631  0.29004804  0.34366627  1  0.096686  3e-05  0.94241  0.0  0.101943  -0.000293  1.008419  0.0  0.104815  -0.000161  1.005677  0.0  0.123215  0.099632  -0.000418  1.010658  -0.001
H  H26  1  0.78485928  0.62207352  0.42450051  1  0.124878  0.000238  0.947093  0.0  0.139748  0.00033  1.004032  0.0  0.141949  0.000273  1.003579  0.0  0.102582  0.138313  0.000388  1.004319  0.0
H  H27  1  0.21515504  0.37791776  0.57559407  1  0.124606  -0.000234  0.947085  0.0  0.13951  -0.00033  1.00409  0.0  0.141706  -0.000273  1.003634  0.0  0.102451  0.138102  -0.000387  1.004355  0.0
H  H28  1  0.01069464  0.65407756  0.46362547  1  0.142335  -0.000111  0.958812  0.0  0.154691  -0.000184  1.019811  0.0  0.156119  -0.000177  1.021743  0.0  0.110621  0.15361  -0.000195  1.018685  0.0
H  H29  1  0.98931993  0.34592581  0.53642129  1  0.142356  0.000115  0.959024  0.0  0.15473  0.000185  1.019989  0.0  0.156153  0.000178  1.021914  0.0  0.110653  0.153659  0.000196  1.018855  0.0
H  H30  1  0.09069185  0.66701777  0.70224341  1  0.096585  -0.00037  0.990112  0.0  0.106228  -0.000388  1.054282  0.0  0.108737  -0.000395  1.054123  0.0  0.102113  0.104398  -0.000372  1.054561  0.0
H  H31  1  0.90932808  0.33297627  0.29781336  1  0.096486  0.000369  0.990245  0.0  0.106064  0.000388  1.054565  0.0  0.108575  0.000395  1.054409  0.0  0.101981  0.104236  0.000372  1.054837  0.0
H  H32  1  0.07446716  0.52868649  0.86833793  1  0.072753  -9e-06  0.965751  0.0  0.085441  -4e-06  1.024955  0.0  0.087925  -9e-06  1.024226  0.0  0.091357  0.08374  1e-05  1.025427  0.0
H  H33  1  0.92557974  0.47130381  0.13170986  1  0.072884  1e-05  0.965869  0.0  0.085502  4e-06  1.025116  0.0  0.087989  9e-06  1.024393  0.0  0.091393  0.083841  -9e-06  1.02555  0.0
H  H34  1  0.83390858  0.35832622  0.86284093  1  0.084654  -7e-06  0.981871  0.0  0.095182  -4e-05  1.049845  0.0  0.097688  -2.6e-05  1.049402  0.0  0.092315  0.093495  -6.2e-05  1.050148  0.0
H  H35  1  0.16611978  0.64167247  0.13719649  1  0.084754  6e-06  0.981726  0.0  0.095246  4e-05  1.049694  0.0  0.097756  2.6e-05  1.049245  0.0  0.092349  0.093558  6.2e-05  1.050006  0.0
H  H36  1  0.62967564  0.46462470  0.52488253  1  0.092588  4e-05  0.957317  0.0  0.10552  2.9e-05  1.019501  0.0  0.108264  3e-05  1.018335  0.0  0.097725  0.103485  2.7e-05  1.020536  0.0
H  H37  1  0.37030207  0.53539732  0.47516644  1  0.092599  -4.1e-05  0.957596  0.0  0.105618  -2.8e-05  1.019652  0.0  0.108364  -3e-05  1.018492  0.0  0.097804  0.103584  -2.7e-05  1.020683  0.0
H  H38  1  0.52088752  0.27954805  0.77646415  1  0.122521  -0.000376  0.966629  0.0  0.135211  -0.000599  1.030944  0.0  0.137076  -0.000495  1.030943  0.0  0.101952  0.134185  -0.000683  1.030694  0.0
H  H39  1  0.47914498  0.72038903  0.22356026  1  0.12245  0.000385  0.966336  0.0  0.135215  0.000599  1.030609  0.0  0.137073  0.000496  1.03061  0.0  0.101934  0.134192  0.000683  1.03036  0.0
H  H40  1  0.46486741  0.30496730  0.62418758  1  0.138376  4.7e-05  0.958691  0.0  0.152459  -5.1e-05  1.01729  0.0  0.155056  -4.1e-05  1.016206  0.0  0.109625  0.150538  -6e-05  1.018128  0.0
H  H41  1  0.53515904  0.69506873  0.37586026  1  0.138228  -4.2e-05  0.958608  0.0  0.15227  5.1e-05  1.017298  0.0  0.154849  4.1e-05  1.016239  0.0  0.109616  0.15035  6e-05  1.018128  0.0
C  C42  1  0.16975399  0.18172276  0.86993641  1  0.138808  0.004199  3.708271  0.004  0.109376  0.006373  3.96343  0.005  0.116181  0.005331  3.981007  0.005  0.051693  0.104553  0.007912  3.95234  0.006
C  C43  1  0.83024430  0.81827492  0.13003660  1  0.138327  -0.00414  3.70841  -0.004  0.109098  -0.006333  3.963523  -0.005  0.115896  -0.005294  3.981113  -0.005  0.051718  0.104292  -0.007862  3.952422  -0.006
C  C44  1  0.13378814  0.23338814  0.98734525  1  -0.131758  -0.002158  3.752892  -0.002  -0.144175  -0.001192  4.00332  -0.001  -0.151975  -0.0018  4.026395  -0.001  -0.087166  -0.139195  -0.000687  3.988522  -0.001
C  C45  1  0.86617259  0.76662259  0.01262207  1  -0.131139  0.002108  3.753213  0.002  -0.143398  0.001183  4.003418  0.001  -0.15123  0.001785  4.026475  0.001  -0.087118  -0.138423  0.00068  3.988608  0.001
C  C46  1  0.15712208  0.16406009  0.08513289  1  0.008422  0.003997  3.694788  0.003  -0.011616  0.005777  3.944812  0.004  -0.007509  0.004819  3.962715  0.004  -0.064996  -0.01473  0.007908  3.933506  0.006
C  C47  1  0.84282862  0.83593291  0.91483321  1  0.008013  -0.00394  3.695578  -0.003  -0.01198  -0.005736  3.945487  -0.004  -0.007889  -0.004785  3.963417  -0.004  -0.065048  -0.015083  -0.007848  3.934164  -0.006
C  C48  1  0.21774391  0.04639660  0.06228179  1  -0.124041  -0.002237  3.648608  -0.002  -0.144182  -0.001135  3.89722  -0.001  -0.150787  -0.001653  3.917191  -0.002  -0.07368  -0.139884  -0.000975  3.884514  -0.002
C  C49  1  0.78219936  0.95358891  0.93766696  1  -0.12408  0.00216  3.648469  0.002  -0.144022  0.001124  3.896959  0.001  -0.150639  0.001638  3.916969  0.002  -0.073681  -0.139715  0.000963  3.884233  0.001
C  C50  1  0.25230735  0.00074382  0.94177905  1  0.16786  0.003591  3.764957  0.004  0.165221  0.006231  4.006693  0.006  0.171334  0.004993  4.027451  0.005  0.123292  0.160757  0.008478  3.993117  0.007
C  C51  1  0.74767473  0.99923892  0.05818473  1  0.167909  -0.003536  3.7646  -0.004  0.164876  -0.006195  4.00689  -0.006  0.170978  -0.004954  4.027657  -0.005  0.12342  0.160426  -0.008428  3.993297  -0.007
C  C52  1  0.31821135  0.87687378  0.90998177  1  0.180599  0.001846  3.755802  0.002  0.178126  0.004537  3.994942  0.004  0.184758  0.003478  4.015051  0.003  0.129152  0.173584  0.006025  3.98158  0.005
C  C53  1  0.68176974  0.12312202  0.08997704  1  0.180515  -0.001874  3.756085  -0.002  0.178199  -0.004527  3.995266  -0.004  0.184838  -0.003469  4.015373  -0.003  0.129128  0.17365  -0.00601  3.981898  -0.005
C  C54  1  0.36203148  0.80050169  0.99897082  1  -0.147836  -0.000782  3.705757  -0.001  -0.169513  -0.000329  3.95803  -0.001  -0.17656  -0.000706  3.979855  -0.001  -0.081242  -0.164954  5.9e-05  3.943729  0.0
C  C55  1  0.63794731  0.19947543  0.00098045  1  -0.147839  0.000821  3.706483  0.001  -0.169557  0.000328  3.958754  0.001  -0.176603  0.000706  3.980575  0.001  -0.081272  -0.164991  -5.7e-05  3.944439  0.0
C  C56  1  0.42790026  0.68683390  0.96217732  1  -0.020108  0.002059  3.773532  0.002  -0.03811  0.003853  4.023475  0.003  -0.035043  0.003118  4.042959  0.002  -0.072764  -0.040121  0.005061  4.010598  0.004
C  C57  1  0.57209955  0.31314415  0.03776901  1  -0.020046  -0.002091  3.773714  -0.002  -0.038218  -0.003843  4.0237  -0.003  -0.035147  -0.003109  4.043193  -0.002  -0.072997  -0.040231  -0.005047  4.010806  -0.004
C  C58  1  0.44948801  0.65175422  0.83786257  1  -0.122736  -0.00049  3.734218  0.0  -0.132515  -5.2e-05  3.980537  0.0  -0.139775  -0.00059  4.002767  0.0  -0.083546  -0.12818  0.000826  3.966305  0.001
C  C59  1  0.55050551  0.34822569  0.16207382  1  -0.122715  0.00052  3.734391  0.0  -0.132515  5.6e-05  3.980744  0.0  -0.139786  0.000594  4.00298  0.0  -0.083437  -0.128175  -0.000815  3.966517  -0.001
C  C60  1  0.40031619  0.73172763  0.75464885  1  0.150395  0.002277  3.678758  0.002  0.12035  0.004514  3.932966  0.004  0.127931  0.003653  3.948242  0.003  0.061757  0.115021  0.005467  3.923424  0.004
C  C61  1  0.59967910  0.26828775  0.24529874  1  0.150671  -0.002285  3.678896  -0.002  0.12028  -0.004498  3.933391  -0.004  0.127861  -0.003645  3.948671  -0.003  0.061637  0.11495  -0.005451  3.923851  -0.004
C  C62  1  0.87878461  0.65656862  0.50051216  1  -0.490991  -0.000552  3.70362  0.0  -0.511703  -0.000523  3.936669  0.0  -0.521576  -0.000448  3.945314  0.0  -0.165781  -0.504876  -0.000603  3.930979  0.0
C  C63  1  0.12124825  0.34342451  0.49956115  1  -0.490698  0.000545  3.703764  0.0  -0.511504  0.000531  3.936298  0.0  -0.521342  0.000462  3.944863  0.0  -0.165742  -0.504737  0.00061  3.930665  0.0
C  C64  1  0.86053776  0.57657080  0.60340034  1  0.168252  -0.000245  3.756857  0.0  0.189264  -0.000445  3.989407  0.0  0.191787  -0.000323  4.01338  0.0  -0.001899  0.187381  -0.000608  3.973346  -0.001
C  C65  1  0.13946458  0.42342885  0.39666670  1  0.167761  0.00026  3.757073  0.0  0.189335  0.000448  3.988918  0.0  0.191851  0.000323  4.012888  0.0  -0.001793  0.187462  0.000609  3.972868  0.001
C  C66  1  0.98505193  0.59322719  0.70100943  1  -0.129754  -9.4e-05  3.7215  0.0  -0.152449  -0.000114  3.967616  0.0  -0.155603  -0.000131  3.988223  0.0  -0.096257  -0.150247  -0.0001  3.953552  0.0
C  C67  1  0.01495418  0.40678179  0.29905779  1  -0.129469  8.2e-05  3.721667  0.0  -0.152323  0.000112  3.967665  0.0  -0.155485  0.000133  3.988279  0.0  -0.096117  -0.150116  0.000101  3.953606  0.0
C  C68  1  0.97412287  0.51599200  0.79433272  1  -0.075254  2.6e-05  3.831372  0.0  -0.084074  -9.2e-05  4.081543  0.0  -0.084792  -5.3e-05  4.102403  0.0  -0.100371  -0.083229  -0.000155  4.066802  0.0
C  C69  1  0.02589845  0.48401324  0.20572439  1  -0.075168  -2e-05  3.831475  0.0  -0.08392  9.3e-05  4.081627  0.0  -0.084649  5.1e-05  4.102496  0.0  -0.100286  -0.083109  0.000155  4.066878  0.0
C  C70  1  0.83879317  0.42096861  0.79179476  1  -0.147275  -6.5e-05  3.760093  0.0  -0.171822  -7e-05  4.011003  0.0  -0.175207  -3.6e-05  4.031883  0.0  -0.105543  -0.169381  -0.000137  3.996514  0.0
C  C71  1  0.16121687  0.57904035  0.20825161  1  -0.147711  5.8e-05  3.760236  0.0  -0.1722  6.9e-05  4.01118  0.0  -0.175583  3.9e-05  4.032057  0.0  -0.10578  -0.16976  0.000138  3.996709  0.0
C  C72  1  0.71246322  0.40190150  0.69493915  1  0.138862  0.000178  3.802266  0.0  0.160419  -3.9e-05  4.037168  0.0  0.162708  7e-06  4.06073  0.0  -0.013192  0.15873  -7.1e-05  4.02126  0.0
C  C73  1  0.28752243  0.59812147  0.30512191  1  0.139019  -0.000165  3.801587  0.0  0.160537  3.8e-05  4.036674  0.0  0.162814  -9e-06  4.060239  0.0  -0.012994  0.158847  7.1e-05  4.02077  0.0
C  C74  1  0.72501489  0.48088521  0.60201658  1  -0.182859  -0.000373  3.670264  0.0  -0.20956  -0.000394  3.914185  0.0  -0.213706  -0.000263  3.934244  0.0  -0.094235  -0.206761  -0.000572  3.900832  0.0
C  C75  1  0.27496208  0.51914149  0.39804199  1  -0.182751  0.000366  3.670342  0.0  -0.209682  0.000394  3.914128  0.0  -0.213843  0.000263  3.93421  0.0  -0.094386  -0.206879  0.000572  3.900766  0.0
C  C76  1  0.57471222  0.29344510  0.68694811  1  -0.488759  -0.001907  3.704038  -0.001  -0.513169  -0.002186  3.942629  -0.001  -0.522226  -0.001825  3.949646  -0.001  -0.167454  -0.506716  -0.002554  3.937551  -0.001
C  C77  1  0.42530816  0.70656292  0.31309109  1  -0.488463  0.001876  3.703147  0.001  -0.512967  0.002187  3.942085  0.001  -0.522001  0.001827  3.949063  0.001  -0.167555  -0.506505  0.002552  3.936998  0.001
N  N78  1  0.22690853  0.06793030  0.84688950  1  -0.355292  0.024646  3.19793  0.011  -0.294997  0.030214  3.472772  0.012  -0.312288  0.026585  3.486392  0.009  -0.31012  -0.283374  0.034239  3.464392  0.015
N  N79  1  0.77313719  0.93208138  0.15308144  1  -0.355313  -0.024626  3.197855  -0.011  -0.294979  -0.030185  3.472809  -0.012  -0.312269  -0.026577  3.486441  -0.009  -0.310221  -0.283356  -0.034194  3.464414  -0.015
N  N80  1  0.33581343  0.84098610  0.78956462  1  -0.339529  0.027247  3.184564  0.016  -0.277299  0.032187  3.451517  0.017  -0.294001  0.028611  3.463915  0.014  -0.305214  -0.265906  0.036153  3.443712  0.02
N  N81  1  0.66416822  0.15902461  0.21038765  1  -0.339521  -0.027213  3.18461  -0.016  -0.277264  -0.032178  3.451614  -0.017  -0.293979  -0.028604  3.464024  -0.014  -0.305069  -0.265859  -0.036137  3.443797  -0.02
O  O82  1  0.87794315  0.88141995  0.41963622  1  -0.8828  -0.03364  2.02176  -0.017  -0.78585  -0.041787  2.301591  -0.021  -0.815477  -0.038335  2.277912  -0.018  -0.358174  -0.763852  -0.044975  2.317353  -0.024
O  O83  1  0.12208182  0.11847694  0.58032813  1  -0.882404  0.033701  2.021988  0.017  -0.785814  0.041851  2.302236  0.021  -0.815428  0.038386  2.278523  0.018  -0.358136  -0.763831  0.045044  2.318017  0.024
O  O84  1  0.52783523  0.03866586  0.64684499  1  -0.869694  0.026336  2.003591  0.012  -0.783291  0.035716  2.282761  0.019  -0.811309  0.032529  2.259782  0.016  -0.352296  -0.762524  0.03873  2.297873  0.021
O  O85  1  0.47218947  0.96134490  0.35314362  1  -0.869708  -0.02635  2.003118  -0.012  -0.783306  -0.035724  2.282419  -0.019  -0.811276  -0.032536  2.259327  -0.016  -0.352393  -0.762547  -0.038741  2.297547  -0.021
O  O86  1  0.98175610  0.87562567  0.64616891  1  -0.855639  0.035545  1.993362  0.022  -0.768419  0.04234  2.279981  0.025  -0.798615  0.03831  2.258511  0.021  -0.363652  -0.745126  0.045945  2.293566  0.028
O  O87  1  0.01826690  0.12438234  0.35386123  1  -0.85556  -0.035508  1.993017  -0.021  -0.768436  -0.042306  2.279682  -0.025  -0.798654  -0.038279  2.258223  -0.021  -0.363721  -0.74516  -0.04591  2.293286  -0.028
O  O88  1  0.70950420  0.15982069  0.49373817  1  -0.860085  -0.036261  2.016307  -0.021  -0.766517  -0.042364  2.300734  -0.023  -0.797521  -0.038685  2.280188  -0.02  -0.365788  -0.743197  -0.045723  2.314018  -0.026
O  O89  1  0.29048180  0.84022553  0.50624809  1  -0.859942  0.036215  2.016527  0.021  -0.766493  0.042328  2.301055  0.023  -0.797417  0.038646  2.280362  0.02  -0.365565  -0.743184  0.045679  2.314342  0.026
O  O90  1  0.83187073  0.13822485  0.70634278  1  -0.766466  0.000447  2.034988  0.001  -0.697395  0.000822  2.277559  0.001  -0.718379  0.000594  2.253241  0.001  -0.390718  -0.68209  0.001071  2.29407  0.001
O  O91  1  0.16812288  0.86174577  0.29363810  1  -0.766565  -0.000446  2.03465  -0.001  -0.697454  -0.000824  2.277319  -0.001  -0.718435  -0.000595  2.252953  -0.001  -0.39082  -0.682145  -0.001072  2.29387  -0.001
O  O92  1  0.65985919  0.82211173  0.58019714  1  -0.759551  0.001683  2.060498  0.002  -0.687781  0.00232  2.302997  0.003  -0.709737  0.001758  2.279193  0.002  -0.380587  -0.671756  0.002879  2.318918  0.003
O  O93  1  0.34018580  0.17792614  0.41982487  1  -0.759254  -0.001683  2.060701  -0.002  -0.68745  -0.00232  2.303205  -0.003  -0.7094  -0.001759  2.279425  -0.002  -0.380472  -0.671398  -0.002879  2.319046  -0.003
