# generated using pymatgen
data_K3CuPH16C10(NO6)2
_symmetry_space_group_name_H-M   'P 1'
_cell_length_a   8.31467793
_cell_length_b   9.73046612
_cell_length_c   11.99443890
_cell_angle_alpha   90.00021440
_cell_angle_beta   89.99977249
_cell_angle_gamma   90.00064061
_symmetry_Int_Tables_number   1
_chemical_formula_structural   K3CuPH16C10(NO6)2
_chemical_formula_sum   'K6 Cu2 P2 H32 C20 N4 O24'
_cell_volume   970.41837831
_cell_formula_units_Z   2
loop_
 _symmetry_equiv_pos_site_id
 _symmetry_equiv_pos_as_xyz
  1  'x, y, z'
loop_
 _atom_site_type_symbol
 _atom_site_label
 _atom_site_symmetry_multiplicity
 _atom_site_fract_x
 _atom_site_fract_y
 _atom_site_fract_z
 _atom_site_occupancy
 _atom_site_hle17_ddec_charge
 _atom_site_hle17_ddec_spin_density
 _atom_site_hle17_ddec_sum_bond_order
 _atom_site_hle17_magmom
 _atom_site_hse06_10hf_ddec_charge
 _atom_site_hse06_10hf_ddec_spin_density
 _atom_site_hse06_10hf_ddec_sum_bond_order
 _atom_site_hse06_10hf_magmom
 _atom_site_hse06_ddec_charge
 _atom_site_hse06_ddec_spin_density
 _atom_site_hse06_ddec_sum_bond_order
 _atom_site_hse06_magmom
 _atom_site_pbe_cm5_charge
 _atom_site_pbe_ddec_charge
 _atom_site_pbe_ddec_spin_density
 _atom_site_pbe_ddec_sum_bond_order
 _atom_site_pbe_magmom
K  K0  1  0.49998017  0.85600984  0.49999732  1  0.908165  -0.000184  0.531661  0.0  0.861475  -0.000158  0.728109  0.0  0.8774  -0.000142  0.701689  0.0  0.805352  0.849428  -0.000171  0.747125  0.0
K  K1  1  0.99999276  0.14398662  0.00000136  1  0.908145  -0.000224  0.531711  0.0  0.861411  -0.000164  0.72823  0.0  0.877338  -0.000133  0.701812  0.0  0.805387  0.849359  -0.000168  0.747254  0.0
K  K2  1  0.15127712  0.89258145  0.72980935  1  0.925984  0.000408  0.447847  0.0  0.876433  0.000567  0.62788  0.0  0.892912  0.000353  0.603966  0.0  0.766094  0.864149  0.000737  0.645175  0.0
K  K3  1  0.84872339  0.89258888  0.27018791  1  0.926001  0.00043  0.447874  0.0  0.876432  0.00057  0.627949  0.0  0.892913  0.00035  0.604034  0.0  0.766127  0.864146  0.000737  0.645244  0.0
K  K4  1  0.65128767  0.10741191  0.77019037  1  0.926003  0.000419  0.447919  0.0  0.87643  0.000569  0.628005  0.0  0.892907  0.000353  0.60409  0.0  0.766168  0.864145  0.000736  0.645301  0.0
K  K5  1  0.34872189  0.10741125  0.22979785  1  0.925961  0.000415  0.447877  0.0  0.876432  0.000569  0.627894  0.0  0.892912  0.000353  0.603979  0.0  0.766093  0.864141  0.000736  0.645189  0.0
Cu  Cu6  1  0.00000379  0.25214427  0.50000293  1  0.797944  0.675026  1.832037  0.502  0.782358  0.776545  2.191947  0.628  0.870396  0.843572  2.138636  0.719  0.729033  0.729413  0.730324  2.228239  0.572
Cu  Cu7  1  0.49999174  0.74785559  0.00000295  1  0.798067  0.675052  1.832011  0.502  0.782514  0.776559  2.191933  0.628  0.870465  0.843578  2.138594  0.719  0.729082  0.729499  0.730342  2.228277  0.572
P  P8  1  0.00000622  0.62627332  0.49999682  1  1.241881  0.000816  4.693443  0.001  1.117136  0.000922  5.179732  0.001  1.155871  0.000467  5.156526  0.001  0.278516  1.090017  0.001368  5.195307  0.001
P  P9  1  0.50001457  0.37372962  0.00000072  1  1.241854  0.000817  4.693705  0.001  1.117072  0.000923  5.179995  0.001  1.155807  0.000467  5.156786  0.001  0.278434  1.089952  0.001368  5.195576  0.001
H  H10  1  0.39288632  0.34874516  0.64451118  1  0.107805  0.001939  0.913952  0.002  0.121286  0.001342  0.973451  0.001  0.123894  0.000877  0.971303  0.001  0.119765  0.119163  0.001679  0.975384  0.001
H  H11  1  0.60711795  0.34872908  0.35549278  1  0.107845  0.00194  0.913995  0.002  0.121341  0.001341  0.973473  0.001  0.123946  0.000877  0.971335  0.001  0.119774  0.119222  0.001679  0.975402  0.001
H  H12  1  0.89287697  0.65127725  0.85550290  1  0.107934  0.001938  0.913996  0.002  0.121483  0.001341  0.97345  0.001  0.124088  0.000877  0.971316  0.001  0.119814  0.119358  0.001679  0.975383  0.001
H  H13  1  0.10710476  0.65124406  0.14450280  1  0.107851  0.00194  0.913885  0.002  0.121329  0.001341  0.973401  0.001  0.123907  0.000877  0.971254  0.001  0.119795  0.119214  0.001679  0.975324  0.001
H  H14  1  0.36116557  0.32322996  0.49878948  1  0.118018  -0.000109  0.920848  0.0  0.133811  -5.7e-05  0.978454  0.0  0.135641  -4.9e-05  0.977493  0.0  0.12963  0.132396  -5.3e-05  0.979347  0.0
H  H15  1  0.63885281  0.32321692  0.50121189  1  0.118072  -0.000109  0.920779  0.0  0.133872  -5.7e-05  0.978401  0.0  0.135703  -4.9e-05  0.977443  0.0  0.129605  0.132459  -5.3e-05  0.979301  0.0
H  H16  1  0.86114538  0.67679804  0.00121958  1  0.118022  -0.00011  0.920933  0.0  0.133923  -5.7e-05  0.978458  0.0  0.135756  -4.9e-05  0.977495  0.0  0.129609  0.132504  -5.3e-05  0.979361  0.0
H  H17  1  0.13883669  0.67675988  0.99878369  1  0.117981  -0.000109  0.921018  0.0  0.133865  -5.8e-05  0.978528  0.0  0.135673  -4.9e-05  0.977556  0.0  0.129667  0.132457  -5.3e-05  0.97942  0.0
H  H18  1  0.06955419  0.51738008  0.71219240  1  0.117007  0.001021  0.934775  0.001  0.131039  0.000567  0.994983  0.001  0.134117  0.00037  0.992477  0.0  0.121647  0.128813  0.000722  0.996872  0.001
H  H19  1  0.93046430  0.51736475  0.28780623  1  0.116872  0.001022  0.934717  0.001  0.130964  0.000567  0.994904  0.001  0.134041  0.00037  0.992396  0.0  0.121551  0.128726  0.000722  0.996803  0.001
H  H20  1  0.56955988  0.48264127  0.78780254  1  0.116859  0.001022  0.934722  0.001  0.130966  0.000567  0.994917  0.001  0.134039  0.00037  0.992414  0.0  0.121602  0.128734  0.000722  0.996804  0.001
H  H21  1  0.43044613  0.48262179  0.21219681  1  0.116886  0.001022  0.934766  0.001  0.130901  0.000567  0.99502  0.001  0.133976  0.00037  0.992515  0.0  0.121612  0.128679  0.000722  0.996906  0.001
H  H22  1  0.19611731  0.38268325  0.75943225  1  0.111289  0.002156  0.92112  0.003  0.125454  0.001324  0.978917  0.002  0.127618  0.000897  0.977557  0.001  0.118414  0.123782  0.001635  0.980038  0.002
H  H23  1  0.80389582  0.38267264  0.24056514  1  0.111372  0.002155  0.921026  0.003  0.125472  0.001324  0.97893  0.002  0.127633  0.000897  0.97758  0.001  0.118414  0.123792  0.001635  0.980049  0.002
H  H24  1  0.69611180  0.61735063  0.74057569  1  0.111369  0.002154  0.921044  0.003  0.125455  0.001324  0.979017  0.002  0.127621  0.000897  0.977664  0.001  0.118355  0.123773  0.001634  0.980135  0.002
H  H25  1  0.30388273  0.61731679  0.25943241  1  0.111193  0.002157  0.921166  0.003  0.125376  0.001324  0.978962  0.002  0.127535  0.000897  0.977607  0.001  0.118405  0.123706  0.001635  0.980078  0.002
H  H26  1  0.21685454  0.48560983  0.43608586  1  0.126447  0.000151  0.958749  0.0  0.135409  0.000199  1.022927  0.0  0.137208  0.000127  1.022409  0.0  0.117402  0.133925  0.000253  1.023526  0.0
H  H27  1  0.78314910  0.48560978  0.56390767  1  0.126467  0.000152  0.9588  0.0  0.135433  0.000199  1.022987  0.0  0.137231  0.000127  1.022469  0.0  0.11741  0.133948  0.000253  1.023588  0.0
H  H28  1  0.71685593  0.51440239  0.06391359  1  0.12649  0.000152  0.958551  0.0  0.135469  0.000198  1.022764  0.0  0.137269  0.000127  1.022243  0.0  0.117402  0.133985  0.000253  1.023364  0.0
H  H29  1  0.28314929  0.51438075  0.93608836  1  0.126487  0.000151  0.958746  0.0  0.135365  0.000199  1.022968  0.0  0.137161  0.000127  1.022451  0.0  0.117415  0.133882  0.000253  1.023568  0.0
H  H30  1  0.26844429  0.58107034  0.55912879  1  0.142259  0.004916  0.967554  0.007  0.152356  0.002771  1.02836  0.004  0.15437  0.001753  1.02707  0.003  0.121056  0.150699  0.003523  1.029505  0.005
H  H31  1  0.73156420  0.58106407  0.44086086  1  0.142198  0.004917  0.967542  0.007  0.152306  0.00277  1.02835  0.004  0.154318  0.001753  1.027063  0.003  0.121062  0.15066  0.003523  1.029489  0.005
H  H32  1  0.76844226  0.41895293  0.94086644  1  0.142049  0.004916  0.967632  0.007  0.152219  0.002771  1.028377  0.004  0.154231  0.001753  1.027088  0.003  0.121042  0.150577  0.003523  1.029511  0.005
H  H33  1  0.23156172  0.41891541  0.05913105  1  0.142409  0.004916  0.967624  0.007  0.152453  0.00277  1.028415  0.004  0.154467  0.001753  1.02713  0.003  0.121129  0.150791  0.003523  1.029573  0.005
H  H34  1  0.84546879  0.84191994  0.60900902  1  0.420548  1e-06  0.891655  0.0  0.392186  8e-06  0.952241  0.0  0.402708  5e-06  0.936834  0.0  0.282235  0.38475  1e-05  0.963136  0.0
H  H35  1  0.15451783  0.84192329  0.39099059  1  0.420635  2e-06  0.891535  0.0  0.392295  8e-06  0.95208  0.0  0.402816  5e-06  0.936674  0.0  0.282266  0.384864  1e-05  0.962972  0.0
H  H36  1  0.34549348  0.15807530  0.89099685  1  0.420559  1e-06  0.891637  0.0  0.39218  8e-06  0.952244  0.0  0.402709  4e-06  0.936832  0.0  0.282211  0.384732  1e-05  0.963146  0.0
H  H37  1  0.65452756  0.15806881  0.10900153  1  0.420589  1e-06  0.891565  0.0  0.392251  8e-06  0.952111  0.0  0.402771  4e-06  0.936707  0.0  0.282286  0.384819  1e-05  0.963004  0.0
H  H38  1  0.82416059  0.98679560  0.55272735  1  0.407934  -0.000171  0.898601  0.0  0.379931  -8.7e-05  0.959778  0.0  0.389716  -0.000101  0.945113  0.0  0.292033  0.372945  -7.3e-05  0.970311  0.0
H  H39  1  0.17583632  0.98680456  0.44726602  1  0.408029  -0.000171  0.898465  0.0  0.380013  -8.7e-05  0.959662  0.0  0.389797  -0.000101  0.944999  0.0  0.292058  0.373033  -7.3e-05  0.970184  0.0
H  H40  1  0.32416623  0.01319635  0.94727524  1  0.408026  -0.000171  0.898457  0.0  0.37999  -8.7e-05  0.959677  0.0  0.389774  -0.000101  0.945013  0.0  0.292045  0.373003  -7.3e-05  0.97021  0.0
H  H41  1  0.67582888  0.01319288  0.05271270  1  0.408013  -0.000171  0.898499  0.0  0.379901  -8.7e-05  0.959807  0.0  0.389685  -0.000101  0.945142  0.0  0.291978  0.372916  -7.4e-05  0.970337  0.0
C  C42  1  0.30782944  0.30937239  0.58184886  1  -0.182695  -0.002965  3.615149  -0.003  -0.238479  -0.00056  3.871133  -0.002  -0.239495  -0.001304  3.879041  -0.002  -0.064314  -0.237597  0.000183  3.866251  -0.001
C  C43  1  0.69217793  0.30936359  0.41814998  1  -0.182933  -0.002969  3.615193  -0.003  -0.238713  -0.00056  3.871225  -0.002  -0.239738  -0.001304  3.879137  -0.002  -0.064285  -0.23785  0.000184  3.866364  -0.001
C  C44  1  0.80782384  0.69065023  0.91815711  1  -0.183027  -0.002961  3.615013  -0.003  -0.238964  -0.00056  3.87123  -0.002  -0.239992  -0.001303  3.879138  -0.002  -0.064417  -0.238082  0.000185  3.86635  -0.001
C  C45  1  0.19216923  0.69061346  0.08184788  1  -0.182804  -0.002965  3.615196  -0.003  -0.238666  -0.000559  3.871259  -0.002  -0.239555  -0.001302  3.879022  -0.002  -0.064406  -0.237806  0.000184  3.866397  -0.001
C  C46  1  0.28388640  0.15540743  0.59513565  1  0.688485  -0.004036  3.857346  -0.003  0.647169  -0.000678  4.156173  -0.001  0.681568  -0.000831  4.148954  -0.001  0.204605  0.623758  -0.000479  4.160428  -0.001
C  C47  1  0.71612619  0.15539058  0.40486772  1  0.689044  -0.004033  3.857062  -0.003  0.647614  -0.000676  4.15607  -0.001  0.682016  -0.000829  4.148849  -0.001  0.204758  0.62421  -0.000479  4.160322  -0.001
C  C48  1  0.78385762  0.84461701  0.90487122  1  0.689361  -0.004035  3.856752  -0.003  0.647786  -0.000675  4.156002  -0.001  0.682184  -0.000829  4.148778  -0.001  0.204876  0.624375  -0.000477  4.160251  -0.001
C  C49  1  0.21611940  0.84458978  0.09513173  1  0.688818  -0.004032  3.857296  -0.003  0.647417  -0.000676  4.156262  -0.001  0.681782  -0.00083  4.149029  -0.001  0.20467  0.624009  -0.000477  4.160518  -0.001
C  C50  1  0.09885351  0.40795995  0.70086445  1  -0.183073  -0.002122  3.556723  -0.003  -0.234272  9.6e-05  3.805714  -0.001  -0.235334  -0.001002  3.813807  -0.002  -0.071573  -0.233336  0.001166  3.800648  -0.001
C  C51  1  0.90115875  0.40794747  0.29913135  1  -0.182752  -0.002122  3.556433  -0.003  -0.23403  9.5e-05  3.805611  -0.001  -0.235092  -0.000998  3.813703  -0.002  -0.071389  -0.233065  0.001167  3.800501  -0.001
C  C52  1  0.59884732  0.59206477  0.79913709  1  -0.182741  -0.002118  3.556378  -0.003  -0.234153  9.6e-05  3.805743  -0.001  -0.235222  -0.001001  3.813843  -0.002  -0.071519  -0.233177  0.001168  3.800619  -0.001
C  C53  1  0.40113605  0.59203981  0.20086427  1  -0.182706  -0.00212  3.556566  -0.003  -0.233919  9.7e-05  3.805655  -0.001  -0.23498  -0.001004  3.813764  -0.002  -0.071508  -0.232991  0.001168  3.800584  -0.001
C  C54  1  0.94783946  0.32653226  0.73526161  1  0.680808  0.002646  3.926888  0.003  0.638083  0.001724  4.234512  0.003  0.670651  0.001054  4.226633  0.002  0.18826  0.616017  0.002284  4.238917  0.003
C  C55  1  0.05217174  0.32651863  0.26473894  1  0.680597  0.002645  3.92755  0.003  0.637865  0.001725  4.235245  0.003  0.670435  0.001054  4.227365  0.002  0.188192  0.61579  0.002285  4.239648  0.003
C  C56  1  0.44782346  0.67348349  0.76474481  1  0.680657  0.002645  3.927929  0.003  0.638053  0.001725  4.235455  0.003  0.670618  0.001055  4.227578  0.002  0.18833  0.615976  0.002285  4.239867  0.003
C  C57  1  0.55216458  0.67347351  0.23525846  1  0.680993  0.002648  3.927224  0.003  0.638207  0.001725  4.234925  0.003  0.670773  0.001056  4.227044  0.002  0.188306  0.616142  0.002287  4.239327  0.003
C  C58  1  0.17597377  0.51560634  0.51948295  1  -0.348915  -0.001242  3.603809  -0.002  -0.384245  0.000478  3.859544  -0.001  -0.387626  -0.001084  3.869522  -0.002  -0.084902  -0.38148  0.002032  3.85328  0.001
C  C59  1  0.82403266  0.51560218  0.48051067  1  -0.348946  -0.001245  3.603844  -0.002  -0.384327  0.000478  3.859678  -0.001  -0.387705  -0.001083  3.869655  -0.002  -0.084945  -0.381576  0.002033  3.853427  0.001
C  C60  1  0.67596995  0.48440371  0.98051754  1  -0.348775  -0.001239  3.603495  -0.002  -0.384274  0.000477  3.859459  -0.001  -0.387654  -0.001083  3.869429  -0.002  -0.084905  -0.381522  0.002032  3.853215  0.001
C  C61  1  0.32403007  0.48438642  0.01948765  1  -0.349102  -0.001242  3.604118  -0.002  -0.384147  0.000478  3.85954  -0.001  -0.387525  -0.001084  3.869527  -0.002  -0.08498  -0.38138  0.002032  3.853271  0.001
N  N62  1  0.15463338  0.38680988  0.58400185  1  -0.084599  0.093754  3.271775  0.121  -0.025151  0.058581  3.536934  0.081  -0.053742  0.044273  3.568065  0.067  -0.337026  -0.00827  0.066508  3.517596  0.087
N  N63  1  0.84537620  0.38680254  0.41599305  1  -0.084694  0.093763  3.271996  0.121  -0.025202  0.058583  3.537166  0.081  -0.053786  0.04427  3.568301  0.067  -0.337174  -0.008321  0.066511  3.517823  0.087
N  N64  1  0.65461837  0.61321126  0.91600537  1  -0.084699  0.093776  3.271392  0.121  -0.025118  0.058592  3.536628  0.081  -0.053682  0.044283  3.567735  0.067  -0.336915  -0.008234  0.066517  3.517283  0.087
N  N65  1  0.34536768  0.61318317  0.08400689  1  -0.084851  0.093763  3.272157  0.121  -0.025458  0.058582  3.537328  0.081  -0.054072  0.044271  3.568416  0.067  -0.337134  -0.008552  0.066511  3.517978  0.087
O  O66  1  0.14393007  0.10818182  0.56634326  1  -0.648388  0.05586  2.075185  0.077  -0.60065  0.0407  2.332821  0.061  -0.637228  0.032173  2.32167  0.052  -0.360805  -0.5771  0.045753  2.341212  0.065
O  O67  1  0.85607830  0.10817364  0.43366414  1  -0.648632  0.055853  2.075065  0.077  -0.600855  0.040696  2.332749  0.061  -0.637434  0.032169  2.321603  0.052  -0.360916  -0.577311  0.04575  2.341147  0.065
O  O68  1  0.64391376  0.89182483  0.93366399  1  -0.648868  0.055827  2.075362  0.077  -0.600989  0.040684  2.333081  0.061  -0.637543  0.032161  2.321905  0.052  -0.361023  -0.577425  0.045736  2.341456  0.065
O  O69  1  0.35606147  0.89179985  0.06633994  1  -0.648451  0.055831  2.075468  0.077  -0.600716  0.040687  2.333199  0.061  -0.637271  0.032164  2.322028  0.052  -0.360852  -0.577153  0.045739  2.341583  0.065
O  O70  1  0.39739473  0.08115365  0.62709770  1  -0.688748  0.008101  1.945017  0.01  -0.647684  0.004935  2.178903  0.007  -0.672246  0.002633  2.16989  0.004  -0.44824  -0.630141  0.00712  2.184526  0.009
O  O71  1  0.60262170  0.08113555  0.37290795  1  -0.688961  0.008101  1.945078  0.01  -0.647887  0.004934  2.179078  0.007  -0.672453  0.002634  2.170072  0.004  -0.448228  -0.630321  0.007121  2.184653  0.009
O  O72  1  0.89736710  0.91886984  0.87290803  1  -0.689033  0.0081  1.944795  0.01  -0.647885  0.004933  2.178854  0.007  -0.672447  0.002633  2.169843  0.004  -0.448225  -0.630331  0.00712  2.184451  0.009
O  O73  1  0.10260126  0.91883858  0.12708931  1  -0.688888  0.008101  1.944972  0.01  -0.647779  0.004935  2.178899  0.007  -0.672345  0.002634  2.169901  0.004  -0.448252  -0.630234  0.007122  2.184519  0.009
O  O74  1  0.85346773  0.28292837  0.65963246  1  -0.702303  -0.000947  2.020833  0.001  -0.662521  -0.001694  2.275891  0.0  -0.690193  -0.002434  2.264348  -0.001  -0.406066  -0.643598  -0.000899  2.283679  0.001
O  O75  1  0.14653929  0.28291908  0.34036713  1  -0.702239  -0.000947  2.021064  0.001  -0.662454  -0.001694  2.27613  0.0  -0.690124  -0.002435  2.264584  -0.001  -0.406054  -0.643536  -0.000899  2.283925  0.001
O  O76  1  0.35345907  0.71707105  0.84037422  1  -0.702293  -0.000951  2.021394  0.001  -0.662532  -0.001694  2.276409  0.0  -0.690188  -0.002436  2.264852  -0.001  -0.406127  -0.643604  -0.000901  2.284204  0.001
O  O77  1  0.64651389  0.71707499  0.15962918  1  -0.702372  -0.000942  2.021215  0.001  -0.662575  -0.001691  2.276314  0.0  -0.690228  -0.00243  2.264746  -0.001  -0.406058  -0.643648  -0.000896  2.284106  0.001
O  O78  1  0.92637342  0.31323087  0.83890715  1  -0.710079  0.002257  1.945681  0.003  -0.66469  0.000694  2.180322  0.001  -0.686723  0.000176  2.168292  0.0  -0.447018  -0.648675  0.001378  2.187965  0.002
O  O79  1  0.07363520  0.31320977  0.16109836  1  -0.71004  0.00226  1.946064  0.003  -0.664614  0.000693  2.180698  0.001  -0.686649  0.000177  2.168669  0.0  -0.446975  -0.648589  0.001379  2.188343  0.002
O  O80  1  0.42636421  0.68678261  0.66111350  1  -0.710085  0.00226  1.946295  0.003  -0.664685  0.000693  2.180841  0.001  -0.68672  0.000176  2.168812  0.0  -0.447005  -0.648663  0.00138  2.188491  0.002
O  O81  1  0.57362400  0.68677332  0.33890064  1  -0.710225  0.002262  1.945844  0.003  -0.664807  0.000693  2.180507  0.001  -0.686841  0.000177  2.168477  0.0  -0.447023  -0.648789  0.00138  2.18815  0.002
O  O82  1  0.96856469  0.70680264  0.60688600  1  -0.854635  0.000407  1.913932  0.0  -0.783867  0.00034  2.158696  0.0  -0.80887  0.000158  2.142291  0.0  -0.430671  -0.765868  0.00064  2.16965  0.001
O  O83  1  0.03144182  0.70680277  0.39310820  1  -0.854604  0.000407  1.913989  0.0  -0.783864  0.00034  2.158791  0.0  -0.808864  0.000158  2.142385  0.0  -0.4306  -0.765866  0.00064  2.169751  0.001
O  O84  1  0.46857909  0.29320098  0.89310953  1  -0.854631  0.000406  1.913732  0.0  -0.78389  0.000341  2.158559  0.0  -0.80889  0.000157  2.142157  0.0  -0.430702  -0.765887  0.00064  2.169512  0.001
O  O85  1  0.53144731  0.29319740  0.10688509  1  -0.854614  0.000405  1.914022  0.0  -0.783854  0.00034  2.158769  0.0  -0.808852  0.000157  2.142362  0.0  -0.43062  -0.76586  0.00064  2.169735  0.001
O  O86  1  0.77826289  0.92722283  0.61080924  1  -0.917124  0.00014  1.752764  0.0  -0.872016  9.6e-05  1.909578  0.0  -0.890702  5e-06  1.880349  0.0  -0.717017  -0.8587  0.000115  1.930085  0.0
O  O87  1  0.22172123  0.92723093  0.38918312  1  -0.9173  0.000139  1.752587  0.0  -0.872196  9.6e-05  1.909398  0.0  -0.89089  5e-06  1.880182  0.0  -0.717085  -0.85889  0.000115  1.929891  0.0
O  O88  1  0.27827926  0.07277793  0.88919181  1  -0.917207  0.000139  1.752563  0.0  -0.872026  9.6e-05  1.909422  0.0  -0.890737  6e-06  1.880206  0.0  -0.716968  -0.85869  0.000115  1.929971  0.0
O  O89  1  0.72172744  0.07276490  0.11079798  1  -0.91725  0.000139  1.752533  0.0  -0.872026  9.5e-05  1.909513  0.0  -0.890725  6e-06  1.880312  0.0  -0.71705  -0.858718  0.000115  1.93001  0.0
