# generated using pymatgen
data_Pr2U3H30(C5O7)6
_symmetry_space_group_name_H-M   'P 1'
_cell_length_a   10.88506696
_cell_length_b   11.53656359
_cell_length_c   13.24371147
_cell_angle_alpha   69.05725128
_cell_angle_beta   80.32211276
_cell_angle_gamma   62.68231513
_symmetry_Int_Tables_number   1
_chemical_formula_structural   Pr2U3H30(C5O7)6
_chemical_formula_sum   'Pr2 U3 H30 C30 O42'
_cell_volume   1379.98902664
_cell_formula_units_Z   1
loop_
 _symmetry_equiv_pos_site_id
 _symmetry_equiv_pos_as_xyz
  1  'x, y, z'
loop_
 _atom_site_type_symbol
 _atom_site_label
 _atom_site_symmetry_multiplicity
 _atom_site_fract_x
 _atom_site_fract_y
 _atom_site_fract_z
 _atom_site_occupancy
 _atom_site_pbe_bader_charge
 _atom_site_pbe_bader_spin_density
 _atom_site_pbe_cm5_charge
 _atom_site_pbe_ddec_charge
 _atom_site_pbe_ddec_spin_density
 _atom_site_pbe_ddec_sum_bond_order
 _atom_site_pbe_magmom
Pr  Pr0  1  0.60898662  0.21646900  0.75917269  1  2.314424  0  1.483203  2.25595  0  1.895351  0
Pr  Pr1  1  0.39100867  0.78353561  0.24082596  1  2.314447  0  1.483154  2.255911  0  1.895424  0
U  U2  1  0.62565647  0.70218440  0.83636259  1  2.9207  0  2.189855  2.440009  0  4.786814  0
U  U3  1  0.37434251  0.29781601  0.16364287  1  2.920588  0  2.189792  2.440091  0  4.786535  0
U  U4  1  0.00000173  0.49999260  0.49998875  1  2.893496  0  2.144926  2.405902  0  4.729418  0
H  H5  1  0.80712120  0.99704565  0.91146926  1  0.63922  0  0.302059  0.396262  0  0.927526  0
H  H6  1  0.19285533  0.00297211  0.08854686  1  0.638978  0  0.302123  0.396323  0  0.927461  0
H  H7  1  0.76438370  0.90151478  0.87781185  1  0.628086  0  0.30685  0.401041  0  0.930001  0
H  H8  1  0.23561313  0.09849273  0.12220005  1  0.62789  0  0.306809  0.400964  0  0.930092  0
H  H9  1  0.68246792  0.14272222  0.03624903  1  0.646957  0  0.30482  0.398688  0  0.927693  0
H  H10  1  0.31753585  0.85728217  0.96376513  1  0.647084  0  0.304779  0.398648  0  0.927758  0
H  H11  1  0.78602300  0.19616649  0.95664997  1  0.604365  0  0.327251  0.409908  0  0.882132  0
H  H12  1  0.21397744  0.80383697  0.04335663  1  0.604469  0  0.327226  0.409874  0  0.882192  0
H  H13  1  0.48222542  0.42263087  0.89096881  1  0.631197  0  0.31605  0.422342  0  0.88862  0
H  H14  1  0.51775957  0.57737383  0.10902444  1  0.631352  0  0.316119  0.422549  0  0.888352  0
H  H15  1  0.49235597  0.52052590  0.77271162  1  0.65289  0  0.311214  0.415322  0  0.903659  0
H  H16  1  0.50763979  0.47947976  0.22728514  1  0.652941  0  0.311255  0.415425  0  0.903523  0
H  H17  1  0.29376456  0.42364707  0.68064304  1  0.637259  0  0.334103  0.429945  0  0.856885  0
H  H18  1  0.70624609  0.57636291  0.31933297  1  0.634819  0  0.334101  0.430026  0  0.856853  0
H  H19  1  0.35375507  0.36301583  0.58610940  1  0.646934  0  0.308941  0.409053  0  0.917101  0
H  H20  1  0.64624734  0.63697667  0.41387308  1  0.64682  0  0.308885  0.409023  0  0.917161  0
H  H21  1  0.72945443  0.38578898  0.57956237  1  0.648555  0  0.311995  0.40786  0  0.916941  0
H  H22  1  0.27055494  0.61419821  0.42043284  1  0.648855  0  0.311969  0.407936  0  0.916845  0
H  H23  1  0.61696635  0.38647864  0.51542184  1  0.652946  0  0.319625  0.422107  0  0.886266  0
H  H24  1  0.38303623  0.61351776  0.48457528  1  0.652963  0  0.319645  0.422074  0  0.886308  0
H  H25  1  0.70411061  0.00823847  0.63982860  1  0.634259  0  0.324404  0.430029  0  0.864125  0
H  H26  1  0.29588272  0.99175990  0.36017750  1  0.634241  0  0.3244  0.430061  0  0.864108  0
H  H27  1  0.67479444  0.15419599  0.54742814  1  0.6511  0  0.293377  0.379884  0  0.970915  0
H  H28  1  0.32521143  0.84579928  0.45257718  1  0.650873  0  0.293425  0.379954  0  0.970798  0
H  H29  1  0.09515708  0.37251635  0.96035450  1  0.162704  0  0.124688  0.142241  0  0.992233  0
H  H30  1  0.90483657  0.62747271  0.03965742  1  0.16224  0  0.124679  0.142258  0  0.992151  0
H  H31  1  0.16694462  0.09232814  0.72741048  1  0.105469  0  0.116842  0.127266  0  0.987218  0
H  H32  1  0.83305876  0.90768787  0.27257755  1  0.105428  0  0.116801  0.12718  0  0.98725  0
H  H33  1  0.71998441  0.99572688  0.41114812  1  0.12086  0  0.118461  0.128389  0  0.981576  0
H  H34  1  0.28002747  0.00426741  0.58885213  1  0.120959  0  0.118512  0.12841  0  0.981787  0
C  C35  1  0.00188571  0.33986978  0.84895246  1  -0.002401  0  -0.00352  -0.041408  0  3.960322  0
C  C36  1  0.99811179  0.66012758  0.15105111  1  -0.002377  0  -0.003473  -0.041333  0  3.960151  0
C  C37  1  0.11233897  0.31219089  0.90772315  1  0.028496  0  -0.057419  -0.078539  0  3.891839  0
C  C38  1  0.88765475  0.68780229  0.09228674  1  0.02805  0  -0.057391  -0.078507  0  3.891691  0
C  C39  1  0.24496763  0.21271991  0.89660452  1  -0.025542  0  -0.005361  -0.086828  0  3.967389  0
C  C40  1  0.75502897  0.78727739  0.10340373  1  -0.024614  0  -0.005341  -0.086825  0  3.967369  0
C  C41  1  0.26556019  0.13453182  0.82898005  1  -0.014162  0  0.011882  -0.017766  0  3.908882  0
C  C42  1  0.73444156  0.86546862  0.17102200  1  -0.014557  0  0.0119  -0.017836  0  3.908927  0
C  C43  1  0.15198171  0.15575521  0.77668189  1  -0.020216  0  -0.069115  -0.121343  0  3.921237  0
C  C44  1  0.84802105  0.84425150  0.22331207  1  -0.020176  0  -0.069101  -0.121247  0  3.921345  0
C  C45  1  0.02115412  0.26039441  0.78312919  1  -0.027841  0  0.017485  -0.020262  0  3.914314  0
C  C46  1  0.97884347  0.73960917  0.21686946  1  -0.027795  0  0.017439  -0.020321  0  3.914346  0
C  C47  1  0.62211731  0.99890492  0.44933679  1  -0.067858  0  -0.0672  -0.113859  0  3.927532  0
C  C48  1  0.37788435  0.00109144  0.55066425  1  -0.067838  0  -0.067227  -0.114013  0  3.927558  0
C  C49  1  0.61358985  0.87393646  0.50184947  1  0.056483  0  0.004654  -0.01327  0  3.922716  0
C  C50  1  0.38642201  0.12605788  0.49814699  1  0.056589  0  0.004806  -0.013031  0  3.922608  0
C  C51  1  0.48942429  0.87479608  0.55383169  1  -0.042564  0  0.004878  -0.066627  0  3.960734  0
C  C52  1  0.51058751  0.12519410  0.44616907  1  -0.04253  0  0.004933  -0.066801  0  3.961067  0
C  C53  1  0.86868731  0.45922740  0.85212126  1  1.516533  0  0.206392  0.561942  0  4.202067  0
C  C54  1  0.13131019  0.54076995  0.14788306  1  1.516586  0  0.206378  0.561886  0  4.202161  0
C  C55  1  0.35613672  0.19468232  0.96110113  1  1.5743  0  0.251377  0.645597  0  4.135696  0
C  C56  1  0.64385627  0.80532329  0.03889980  1  1.574699  0  0.251406  0.645675  0  4.135665  0
C  C57  1  0.40460179  0.02678748  0.81021204  1  1.591776  0  0.244448  0.64412  0  4.142301  0
C  C58  1  0.59539816  0.97321497  0.18979418  1  1.591815  0  0.244495  0.644323  0  4.141817  0
C  C59  1  0.90491150  0.28468153  0.71875438  1  1.62711  0  0.257622  0.666064  0  4.122328  0
C  C60  1  0.09508885  0.71531999  0.28124376  1  1.625538  0  0.257546  0.666038  0  4.121929  0
C  C61  1  0.46473688  0.74857307  0.61361490  1  1.607244  0  0.244587  0.632597  0  4.152902  0
C  C62  1  0.53527363  0.25142224  0.38638598  1  1.607964  0  0.244581  0.632636  0  4.153056  0
C  C63  1  0.73883379  0.74461331  0.50106833  1  1.545218  0  0.214644  0.567633  0  4.209653  0
C  C64  1  0.26117106  0.25538214  0.49892273  1  1.545273  0  0.214575  0.567598  0  4.21013  0
O  O65  1  0.55041159  0.61449227  0.95369323  1  -0.890748  0  -0.750925  -0.715046  0  1.846197  0
O  O66  1  0.44958322  0.38551128  0.04630807  1  -0.890643  0  -0.75085  -0.715025  0  1.846097  0
O  O67  1  0.70133211  0.79379176  0.72387571  1  -0.86614  0  -0.749401  -0.689147  0  1.845727  0
O  O68  1  0.29867652  0.20620144  0.27613062  1  -0.866125  0  -0.749414  -0.689163  0  1.845682  0
O  O69  1  0.06108449  0.49785860  0.61986366  1  -0.864416  0  -0.760736  -0.700975  0  1.84398  0
O  O70  1  0.93891955  0.50212371  0.38011338  1  -0.864655  0  -0.760748  -0.701046  0  1.844138  0
O  O71  1  0.85600418  0.53626843  0.90655839  1  -1.125774  0  -0.344736  -0.570187  0  2.175998  0
O  O72  1  0.14398949  0.46372060  0.09345580  1  -1.126006  0  -0.344773  -0.570237  0  2.17607  0
O  O73  1  0.76585660  0.48852853  0.79739785  1  -1.125275  0  -0.333758  -0.577412  0  2.264267  0
O  O74  1  0.23414529  0.51148231  0.20259346  1  -1.125056  0  -0.333711  -0.57738  0  2.264403  0
O  O75  1  0.82974086  0.22464589  0.76603896  1  -1.186254  0  -0.370969  -0.625531  0  2.262408  0
O  O76  1  0.17024226  0.77537813  0.23396755  1  -1.184651  0  -0.370956  -0.625525  0  2.262215  0
O  O77  1  0.89285196  0.35831440  0.61895890  1  -1.158118  0  -0.340161  -0.599254  0  2.338771  0
O  O78  1  0.10716279  0.64166255  0.38103415  1  -1.15806  0  -0.340079  -0.599203  0  2.338683  0
O  O79  1  0.41248906  0.90424710  0.83514324  1  -1.161361  0  -0.361768  -0.640405  0  2.279244  0
O  O80  1  0.58750898  0.09575331  0.16486235  1  -1.161463  0  -0.361797  -0.640492  0  2.279249  0
O  O81  1  0.50220480  0.05769361  0.76999186  1  -1.178728  0  -0.344156  -0.65161  0  2.353881  0
O  O82  1  0.49779969  0.94230053  0.23002154  1  -1.178662  0  -0.344162  -0.651678  0  2.353546  0
O  O83  1  0.47601231  0.17237278  0.92555546  1  -1.19082  0  -0.365905  -0.624284  0  2.330564  0
O  O84  1  0.52397679  0.82765035  0.07443916  1  -1.190727  0  -0.365965  -0.624379  0  2.330583  0
O  O85  1  0.31812575  0.20570630  0.05663092  1  -1.166191  0  -0.36972  -0.63161  0  2.391266  0
O  O86  1  0.68187550  0.79429100  0.94337668  1  -1.166437  0  -0.369651  -0.631623  0  2.391444  0
O  O87  1  0.50367505  0.68422490  0.71325050  1  -1.169379  0  -0.36017  -0.627829  0  2.313419  0
O  O88  1  0.49632813  0.31577655  0.28675255  1  -1.16958  0  -0.360112  -0.627811  0  2.313321  0
O  O89  1  0.39620774  0.71996054  0.56730870  1  -1.158114  0  -0.276492  -0.50579  0  2.155134  0
O  O90  1  0.60380548  0.28003066  0.43269231  1  -1.158696  0  -0.276532  -0.505813  0  2.155238  0
O  O91  1  0.72909582  0.63167100  0.52242444  1  -1.15582  0  -0.312241  -0.586588  0  2.247213  0
O  O92  1  0.27090754  0.36831932  0.47756763  1  -1.155612  0  -0.312199  -0.586585  0  2.247733  0
O  O93  1  0.85601351  0.74756493  0.47724262  1  -1.127613  0  -0.335895  -0.570275  0  2.223696  0
O  O94  1  0.14399214  0.25242653  0.52273972  1  -1.127741  0  -0.335894  -0.570222  0  2.223638  0
O  O95  1  0.79066373  0.97892497  0.84892645  1  -1.250194  0  -0.639428  -0.824944  0  1.992141  0
O  O96  1  0.20932946  0.02108661  0.15108849  1  -1.249856  0  -0.639463  -0.824952  0  1.992205  0
O  O97  1  0.73282760  0.14441817  0.96677927  1  -1.236715  0  -0.572248  -0.813477  0  2.064498  0
O  O98  1  0.26717101  0.85558523  0.03323364  1  -1.236939  0  -0.572194  -0.813409  0  2.064682  0
O  O99  1  0.49255307  0.42975647  0.81397635  1  -1.267956  0  -0.632731  -0.87375  0  1.982021  0
O  O100  1  0.50743296  0.57025443  0.18601336  1  -1.268173  0  -0.632846  -0.874062  0  1.981618  0
O  O101  1  0.38032790  0.36564233  0.65306464  1  -1.268562  0  -0.619198  -0.85434  0  2.004133  0
O  O102  1  0.61968149  0.63434913  0.34691719  1  -1.265967  0  -0.61911  -0.854355  0  2.004162  0
O  O103  1  0.63729059  0.38620036  0.58491406  1  -1.274885  0  -0.634536  -0.842849  0  2.009782  0
O  O104  1  0.36271340  0.61379709  0.41508179  1  -1.275179  0  -0.63454  -0.842883  0  2.009721  0
O  O105  1  0.70886891  0.09581219  0.62288100  1  -1.268255  0  -0.646502  -0.851973  0  2.020777  0
O  O106  1  0.29112909  0.90418617  0.37712447  1  -1.268028  0  -0.646548  -0.852076  0  2.020666  0
