# generated using pymatgen
data_TbH7C8SO9
_symmetry_space_group_name_H-M   'P 1'
_cell_length_a   6.14350885
_cell_length_b   9.18680060
_cell_length_c   10.40424768
_cell_angle_alpha   97.54000965
_cell_angle_beta   94.59218907
_cell_angle_gamma   109.10902907
_symmetry_Int_Tables_number   1
_chemical_formula_structural   TbH7C8SO9
_chemical_formula_sum   'Tb2 H14 C16 S2 O18'
_cell_volume   545.28899024
_cell_formula_units_Z   2
loop_
 _symmetry_equiv_pos_site_id
 _symmetry_equiv_pos_as_xyz
  1  'x, y, z'
loop_
 _atom_site_type_symbol
 _atom_site_label
 _atom_site_symmetry_multiplicity
 _atom_site_fract_x
 _atom_site_fract_y
 _atom_site_fract_z
 _atom_site_occupancy
 _atom_site_pbe_bader_spin_density
 _atom_site_pbe_cm5_charge
 _atom_site_pbe_ddec_charge
 _atom_site_pbe_ddec_spin_density
 _atom_site_pbe_ddec_sum_bond_order
 _atom_site_pbe_magmom
Tb  Tb0  1  0.33937263  0.32491483  0.11146263  1  0  1.534786  2.134862  0  2.059514  0
Tb  Tb1  1  0.66062754  0.67508606  0.88853778  1  0  1.53482  2.134908  0  2.059447  0
H  H2  1  0.10653469  0.96205187  0.10600972  1  0  0.311778  0.429777  0  0.887692  0
H  H3  1  0.89346756  0.03794670  0.89398953  1  0  0.311774  0.429799  0  0.887669  0
H  H4  1  0.37671791  0.02629668  0.14469198  1  0  0.302132  0.385071  0  0.960257  0
H  H5  1  0.62328493  0.97370303  0.85530936  1  0  0.302121  0.385077  0  0.960269  0
H  H6  1  0.68481531  0.31507512  0.92927491  1  0  0.309648  0.4137  0  0.91363  0
H  H7  1  0.31518753  0.68492460  0.07072644  1  0  0.309609  0.413593  0  0.913771  0
H  H8  1  0.48041848  0.14814767  0.89606419  1  0  0.309509  0.408198  0  0.915161  0
H  H9  1  0.51958437  0.85185206  0.10393523  1  0  0.309527  0.408199  0  0.915168  0
H  H10  1  0.33270984  0.63810066  0.51840048  1  0  0.122272  0.142356  0  0.990417  0
H  H11  1  0.66729419  0.36190140  0.48160024  1  0  0.122247  0.142324  0  0.990484  0
H  H12  1  0.84860031  0.88013938  0.59337931  1  0  0.118055  0.115959  0  0.988886  0
H  H13  1  0.15139645  0.11985798  0.40662339  1  0  0.118051  0.115949  0  0.988911  0
H  H14  1  0.70251573  0.82253176  0.35673914  1  0  0.107437  0.117391  0  1.010782  0
H  H15  1  0.29748117  0.17746913  0.64326111  1  0  0.107441  0.117402  0  1.010773  0
C  C16  1  0.93459787  0.69807087  0.30324670  1  0  0.015432  -0.007029  0  3.853814  0
C  C17  1  0.06540230  0.30193002  0.69675370  1  0  0.015422  -0.007078  0  3.853877  0
C  C18  1  0.11242393  0.64593731  0.35026193  1  0  -0.008571  -0.043087  0  3.928229  0
C  C19  1  0.88757461  0.35406357  0.64973839  1  0  -0.008614  -0.043115  0  3.928197  0
C  C20  1  0.19753210  0.68149978  0.48353384  1  0  -0.067868  -0.087599  0  3.92629  0
C  C21  1  0.80247030  0.31850229  0.51646585  1  0  -0.067821  -0.087528  0  3.926257  0
C  C22  1  0.10592860  0.76786761  0.56937459  1  0  -0.012281  -0.098261  0  3.983355  0
C  C23  1  0.89407320  0.23213328  0.43062589  1  0  -0.012292  -0.098307  0  3.983283  0
C  C24  1  0.92412542  0.81619588  0.52495601  1  0  -0.063605  -0.055779  0  3.956384  0
C  C25  1  0.07587193  0.18380268  0.47504302  1  0  -0.063575  -0.055702  0  3.956354  0
C  C26  1  0.84052282  0.78182728  0.39201697  1  0  -0.074708  -0.091792  0  3.924615  0
C  C27  1  0.15947513  0.21817243  0.60798415  1  0  -0.074741  -0.091848  0  3.924636  0
C  C28  1  0.83885927  0.66966825  0.16071271  1  0  0.238356  0.652644  0  4.13954  0
C  C29  1  0.16113822  0.33033379  0.83928867  1  0  0.238352  0.652694  0  4.139491  0
C  C30  1  0.21255787  0.54840010  0.26443837  1  0  0.193064  0.561203  0  4.239999  0
C  C31  1  0.78744408  0.45160429  0.73556254  1  0  0.1931  0.561277  0  4.239977  0
S  S32  1  0.22537146  0.81536774  0.73674522  1  0  0.560146  1.266947  0  6.058734  0
S  S33  1  0.77462975  0.18463198  0.26325509  1  0  0.560156  1.26694  0  6.058726  0
O  O34  1  0.66593810  0.54922980  0.11059752  1  0  -0.397129  -0.711059  0  2.417113  0
O  O35  1  0.33406370  0.45077109  0.88940296  1  0  -0.397126  -0.711102  0  2.417095  0
O  O36  1  0.92124352  0.77567986  0.09246655  1  0  -0.354313  -0.620338  0  2.26778  0
O  O37  1  0.07875620  0.22432335  0.90753604  1  0  -0.354296  -0.620325  0  2.267729  0
O  O38  1  0.16494793  0.53077501  0.13932079  1  0  -0.35668  -0.618349  0  2.265692  0
O  O39  1  0.83505610  0.46922705  0.86067993  1  0  -0.356688  -0.618381  0  2.265695  0
O  O40  1  0.33954908  0.48071427  0.31569088  1  0  -0.374807  -0.61574  0  2.223516  0
O  O41  1  0.66045109  0.51928662  0.68430953  1  0  -0.374819  -0.615768  0  2.223474  0
O  O42  1  0.35982425  0.71042393  0.75026653  1  0  -0.393829  -0.687767  0  2.349713  0
O  O43  1  0.64017088  0.28957343  0.24973609  1  0  -0.393807  -0.687749  0  2.34971  0
O  O44  1  0.37655049  0.98145878  0.76019461  1  0  -0.325703  -0.608775  0  2.189738  0
O  O45  1  0.62345294  0.01854210  0.23980690  1  0  -0.325715  -0.608787  0  2.189802  0
O  O46  1  0.03218615  0.78878347  0.81417952  1  0  -0.380862  -0.675145  0  2.388172  0
O  O47  1  0.96781134  0.21121859  0.18582091  1  0  -0.380897  -0.675152  0  2.388195  0
O  O48  1  0.24679195  0.05467330  0.10724829  1  0  -0.66428  -0.86263  0  2.103335  0
O  O49  1  0.75320867  0.94532526  0.89275089  1  0  -0.664281  -0.862681  0  2.103289  0
O  O50  1  0.56489160  0.23591528  0.96647734  1  0  -0.647968  -0.844749  0  2.096963  0
O  O51  1  0.43511288  0.76408444  0.03352408  1  0  -0.647962  -0.844647  0  2.097008  0
