# generated using pymatgen
data_Cd3H30C38(N3O4)4
_symmetry_space_group_name_H-M   'P 1'
_cell_length_a   6.19126706
_cell_length_b   13.94215416
_cell_length_c   13.91424640
_cell_angle_alpha   121.38067252
_cell_angle_beta   90.08827597
_cell_angle_gamma   99.11059350
_symmetry_Int_Tables_number   1
_chemical_formula_structural   Cd3H30C38(N3O4)4
_chemical_formula_sum   'Cd3 H30 C38 N12 O16'
_cell_volume   1007.41302469
_cell_formula_units_Z   1
loop_
 _symmetry_equiv_pos_site_id
 _symmetry_equiv_pos_as_xyz
  1  'x, y, z'
loop_
 _atom_site_type_symbol
 _atom_site_label
 _atom_site_symmetry_multiplicity
 _atom_site_fract_x
 _atom_site_fract_y
 _atom_site_fract_z
 _atom_site_occupancy
 _atom_site_hle17_bader_spin_density
 _atom_site_hle17_ddec_charge
 _atom_site_hle17_ddec_spin_density
 _atom_site_hle17_ddec_sum_bond_order
 _atom_site_hle17_magmom
 _atom_site_hse06_10hf_bader_spin_density
 _atom_site_hse06_10hf_ddec_charge
 _atom_site_hse06_10hf_ddec_spin_density
 _atom_site_hse06_10hf_ddec_sum_bond_order
 _atom_site_hse06_10hf_magmom
 _atom_site_hse06_bader_spin_density
 _atom_site_hse06_ddec_charge
 _atom_site_hse06_ddec_spin_density
 _atom_site_hse06_ddec_sum_bond_order
 _atom_site_hse06_magmom
 _atom_site_pbe_bader_spin_density
 _atom_site_pbe_cm5_charge
 _atom_site_pbe_ddec_charge
 _atom_site_pbe_ddec_spin_density
 _atom_site_pbe_ddec_sum_bond_order
 _atom_site_pbe_magmom
Cd  Cd0  1  0.00000098  0.99999995  0.49999977  1  0  1.228894  0  1.645583  0  0  1.062512  0  2.089028  0  0  1.120129  0  2.027098  0  0  0.760748  1.021282  0  2.131844  0
Cd  Cd1  1  0.41281830  0.05076846  0.16417854  1  0  1.195669  0  1.659247  0  0  1.003952  0  2.108394  0  0  1.057945  0  2.05739  0  0  0.786488  0.965323  0  2.143502  0
Cd  Cd2  1  0.58717165  0.94923167  0.83582169  1  0  1.195599  0  1.659288  0  0  1.003887  0  2.108435  0  0  1.057876  0  2.057433  0  0  0.786471  0.965257  0  2.143533  0
H  H3  1  0.26662325  0.27887084  0.14374947  1  0  0.096341  0  0.94246  0  0  0.10238  0  1.013929  0  0  0.105163  0  1.009767  0  0  0.137581  0.100363  0  1.016814  0
H  H4  1  0.73338119  0.72112920  0.85624713  1  0  0.09635  0  0.94229  0  0  0.10234  0  1.013829  0  0  0.105124  0  1.009666  0  0  0.137566  0.100355  0  1.016668  0
H  H5  1  0.87125618  0.24815577  0.25498519  1  0  0.111682  0  0.955478  0  0  0.12066  0  1.015624  0  0  0.123541  0  1.013845  0  0  0.120993  0.118545  0  1.017029  0
H  H6  1  0.12873766  0.75184615  0.74502099  1  0  0.111671  0  0.955279  0  0  0.12056  0  1.015566  0  0  0.123438  0  1.013787  0  0  0.120953  0.118448  0  1.016963  0
H  H7  1  0.93694507  0.44077543  0.23881748  1  0  0.117754  0  0.973067  0  0  0.12654  0  1.034972  0  0  0.129075  0  1.033772  0  0  0.124671  0.124711  0  1.035954  0
H  H8  1  0.06306264  0.55922469  0.76118420  1  0  0.117778  0  0.973188  0  0  0.12654  0  1.035112  0  0  0.129073  0  1.033909  0  0  0.124674  0.124707  0  1.036095  0
H  H9  1  0.84523068  0.59903658  0.26301867  1  0  0.132477  0  0.95422  0  0  0.138827  0  1.017582  0  0  0.14287  0  1.014633  0  0  0.118158  0.135844  0  1.019905  0
H  H10  1  0.15477125  0.40096097  0.73698099  1  0  0.132473  0  0.954087  0  0  0.138783  0  1.017505  0  0  0.142825  0  1.014555  0  0  0.11814  0.1358  0  1.019832  0
H  H11  1  0.72941058  0.74202685  0.23143769  1  0  0.147757  0  0.947422  0  0  0.156762  0  1.004546  0  0  0.160441  0  1.001999  0  0  0.126507  0.153963  0  1.006662  0
H  H12  1  0.27059713  0.25797326  0.76856327  1  0  0.14777  0  0.947485  0  0  0.156771  0  1.004597  0  0  0.160451  0  1.002048  0  0  0.126478  0.15397  0  1.00672  0
H  H13  1  0.60355432  0.85514764  0.19737676  1  0  0.119598  0  0.943481  0  0  0.126438  0  1.007458  0  0  0.129912  0  1.002719  0  0  0.141361  0.12381  0  1.010973  0
H  H14  1  0.39644559  0.14485766  0.80262972  1  0  0.119585  0  0.943762  0  0  0.126429  0  1.0077  0  0  0.129897  0  1.002974  0  0  0.141393  0.123778  0  1.011246  0
H  H15  1  0.02932938  0.60124373  0.01447613  1  0  0.119211  0  1.000822  0  0  0.113127  0  1.089014  0  0  0.117677  0  1.084668  0  0  0.118715  0.109837  0  1.092205  0
H  H16  1  0.97068087  0.39875893  0.98552540  1  0  0.119211  0  1.000747  0  0  0.113092  0  1.088988  0  0  0.117641  0  1.084642  0  0  0.118692  0.109804  0  1.092177  0
H  H17  1  0.00727071  0.79715859  0.01269838  1  0  0.094325  0  0.956653  0  0  0.106094  0  1.016451  0  0  0.107557  0  1.016029  0  0  0.114832  0.105007  0  1.016868  0
H  H18  1  0.99272444  0.20284249  0.98730809  1  0  0.094257  0  0.956729  0  0  0.106049  0  1.016504  0  0  0.107511  0  1.016082  0  0  0.11484  0.104962  0  1.016924  0
H  H19  1  0.24677772  0.32545432  0.42296524  1  0  0.094158  0  0.96003  0  0  0.106757  0  1.020707  0  0  0.110032  0  1.018664  0  0  0.101178  0.104193  0  1.022706  0
H  H20  1  0.75322674  0.67454577  0.57703426  1  0  0.09418  0  0.959996  0  0  0.106781  0  1.020673  0  0  0.110055  0  1.01863  0  0  0.101177  0.104218  0  1.022665  0
H  H21  1  0.86866954  0.55588589  0.58158387  1  0  0.083413  0  0.98381  0  0  0.096487  0  1.045568  0  0  0.098974  0  1.04473  0  0  0.095943  0.094741  0  1.046232  0
H  H22  1  0.13133109  0.44411252  0.41841622  1  0  0.083437  0  0.983828  0  0  0.0965  0  1.045596  0  0  0.098987  0  1.044758  0  0  0.095949  0.094755  0  1.046261  0
H  H23  1  0.99486965  0.41120556  0.60568336  1  0  0.079983  0  0.985152  0  0  0.089845  0  1.052232  0  0  0.092677  0  1.050726  0  0  0.095864  0.087614  0  1.05386  0
H  H24  1  0.00512682  0.58879028  0.39431470  1  0  0.079948  0  0.985133  0  0  0.089831  0  1.052192  0  0  0.092657  0  1.0507  0  0  0.095846  0.087599  0  1.053822  0
H  H25  1  0.85455923  0.06782907  0.24299748  1  0  0.4239  0  0.881164  0  0  0.39242  0  0.945636  0  0  0.403967  0  0.928715  0  0  0.285587  0.384229  0  0.957631  0
H  H26  1  0.14543322  0.93217352  0.75699899  1  0  0.423858  0  0.881228  0  0  0.392363  0  0.945726  0  0  0.403912  0  0.928802  0  0  0.285523  0.384172  0  0.957721  0
H  H27  1  0.09651717  0.95625636  0.30115074  1  0  0.411751  0  0.897379  0  0  0.379121  0  0.965036  0  0  0.390532  0  0.948578  0  0  0.283229  0.37105  0  0.976651  0
H  H28  1  0.90347731  0.04374290  0.69884907  1  0  0.411726  0  0.897409  0  0  0.379099  0  0.965064  0  0  0.390512  0  0.948603  0  0  0.28321  0.371026  0  0.976682  0
H  H29  1  0.72961986  0.08003098  0.35164888  1  0  0.432643  0  0.872221  0  0  0.397651  0  0.94141  0  0  0.409023  0  0.925164  0  0  0.284521  0.3896  0  0.952891  0
H  H30  1  0.27037781  0.91996821  0.64834729  1  0  0.432682  0  0.872188  0  0  0.397676  0  0.941385  0  0  0.409048  0  0.92514  0  0  0.284538  0.389629  0  0.952861  0
H  H31  1  0.07467286  0.83980580  0.30450370  1  0  0.405773  0  0.909361  0  0  0.372941  0  0.97735  0  0  0.384971  0  0.960092  0  0  0.279345  0.364483  0  0.98944  0
H  H32  1  0.92532484  0.16019345  0.69549610  1  0  0.405765  0  0.909378  0  0  0.372932  0  0.977367  0  0  0.384963  0  0.960107  0  0  0.279342  0.364479  0  0.989447  0
C  C33  1  0.43818036  0.29477459  0.17262477  1  0  0.19714  0  3.618869  0  0  0.132366  0  3.890874  0  0  0.147797  0  3.901666  0  0  0.152997  0.122363  0  3.883173  0
C  C34  1  0.56180795  0.70522549  0.82737330  1  0  0.197201  0  3.61893  0  0  0.132455  0  3.890994  0  0  0.147885  0  3.901785  0  0  0.153029  0.122428  0  3.883253  0
C  C35  1  0.75525225  0.28473009  0.23135469  1  0  0.017322  0  3.729132  0  0  -0.01654  0  3.996214  0  0  -0.015579  0  4.018134  0  0  0.00296  -0.017155  0  3.981339  0
C  C36  1  0.24476196  0.71527011  0.76865207  1  0  0.01736  0  3.729088  0  0  -0.016436  0  3.996205  0  0  -0.01547  0  4.018124  0  0  0.003019  -0.017057  0  3.981327  0
C  C37  1  0.78890133  0.38090440  0.22559564  1  0  -0.062753  0  3.671976  0  0  -0.102637  0  3.932899  0  0  -0.102085  0  3.953592  0  0  0.002672  -0.102903  0  3.918853  0
C  C38  1  0.21108994  0.61909492  0.77440706  1  0  -0.062794  0  3.672028  0  0  -0.102654  0  3.93293  0  0  -0.102104  0  3.953627  0  0  0.002612  -0.102915  0  3.918881  0
C  C39  1  0.53894432  0.47484077  0.17299819  1  0  0.293302  0  3.7767  0  0  0.268323  0  4.044074  0  0  0.277975  0  4.062523  0  0  0.227636  0.261742  0  4.031659  0
C  C40  1  0.46105474  0.52515333  0.82699755  1  0  0.293322  0  3.776707  0  0  0.268207  0  4.044267  0  0  0.277858  0  4.062719  0  0  0.227564  0.261632  0  4.03184  0
C  C41  1  0.68652808  0.57880040  0.21637885  1  0  -0.102885  0  3.640116  0  0  -0.125209  0  3.892135  0  0  -0.127779  0  3.908382  0  0  -0.05569  -0.123565  0  3.881487  0
C  C42  1  0.31348056  0.42120228  0.78362342  1  0  -0.102797  0  3.640028  0  0  -0.125048  0  3.892084  0  0  -0.127617  0  3.908329  0  0  -0.05564  -0.123405  0  3.881437  0
C  C43  1  0.62347030  0.65893136  0.19819234  1  0  -0.086082  0  3.615595  0  0  -0.110362  0  3.867289  0  0  -0.111844  0  3.882661  0  0  -0.046562  -0.109429  0  3.857338  0
C  C44  1  0.37652454  0.34106448  0.80180572  1  0  -0.086166  0  3.615325  0  0  -0.110454  0  3.867027  0  0  -0.111934  0  3.882391  0  0  -0.046558  -0.109522  0  3.857086  0
C  C45  1  0.41887500  0.62839660  0.13655465  1  0  0.312698  0  3.758322  0  0  0.283023  0  4.029846  0  0  0.293932  0  4.045838  0  0  0.236609  0.275496  0  4.019209  0
C  C46  1  0.58113269  0.37160346  0.86344340  1  0  0.312723  0  3.75812  0  0  0.28306  0  4.029644  0  0  0.293968  0  4.045634  0  0  0.236592  0.275534  0  4.019004  0
C  C47  1  0.44628872  0.81296538  0.14634975  1  0  0.189199  0  3.590365  0  0  0.130217  0  3.850242  0  0  0.144667  0  3.86151  0  0  0.153431  0.120819  0  3.842436  0
C  C48  1  0.55369738  0.18703307  0.85365107  1  0  0.189046  0  3.590352  0  0  0.1301  0  3.850189  0  0  0.144547  0  3.861462  0  0  0.153325  0.120716  0  3.842404  0
C  C49  1  0.14335069  0.68195159  0.05053759  1  0  -0.043591  0  3.627023  0  0  -0.087175  0  3.89868  0  0  -0.085235  0  3.914812  0  0  0.001041  -0.088221  0  3.887745  0
C  C50  1  0.85665186  0.31804767  0.94946293  1  0  -0.043584  0  3.626872  0  0  -0.087131  0  3.898556  0  0  -0.08519  0  3.914687  0  0  0.001083  -0.088175  0  3.887618  0
C  C51  1  0.13651094  0.77937441  0.05017450  1  0  0.019121  0  3.749344  0  0  -0.015673  0  4.019479  0  0  -0.01398  0  4.040848  0  0  0.000508  -0.016858  0  4.005018  0
C  C52  1  0.86348811  0.22062410  0.94983067  1  0  0.019272  0  3.749223  0  0  -0.015532  0  4.019311  0  0  -0.013838  0  4.040681  0  0  0.000545  -0.016717  0  4.004852  0
C  C53  1  0.32637466  0.15668502  0.44552312  1  0  0.675928  0  3.897662  0  0  0.618441  0  4.199502  0  0  0.653678  0  4.191053  0  0  0.212152  0.594449  0  4.204453  0
C  C54  1  0.67361883  0.84331597  0.55447828  1  0  0.675925  0  3.897757  0  0  0.618428  0  4.19961  0  0  0.653666  0  4.191167  0  0  0.212108  0.594436  0  4.20456  0
C  C55  1  0.48198342  0.26664561  0.48155290  1  0  -0.052448  0  3.740185  0  0  -0.03692  0  3.976867  0  0  -0.040271  0  3.99546  0  0  -0.009823  -0.034833  0  3.964454  0
C  C56  1  0.51801813  0.73335534  0.51844705  1  0  -0.0525  0  3.740167  0  0  -0.036948  0  3.976842  0  0  -0.040302  0  3.995438  0  0  -0.009852  -0.034863  0  3.964429  0
C  C57  1  0.41035958  0.34808067  0.46619207  1  0  -0.124238  0  3.711986  0  0  -0.154985  0  3.962999  0  0  -0.156945  0  3.981985  0  0  -0.089523  -0.153639  0  3.950541  0
C  C58  1  0.58964035  0.65192025  0.53380642  1  0  -0.124269  0  3.712055  0  0  -0.154994  0  3.963063  0  0  -0.156958  0  3.982061  0  0  -0.089508  -0.153645  0  3.950597  0
C  C59  1  0.54118477  0.45610785  0.50579522  1  0  0.053663  0  3.783507  0  0  0.067392  0  4.020022  0  0  0.068354  0  4.042574  0  0  -0.013337  0.066788  0  4.004619  0
C  C60  1  0.45881941  0.54389143  0.49420603  1  0  0.053712  0  3.783461  0  0  0.06738  0  4.020028  0  0  0.06834  0  4.042583  0  0  -0.013321  0.066776  0  4.004628  0
C  C61  1  0.75510298  0.47641038  0.55508075  1  0  -0.122085  0  3.76237  0  0  -0.145928  0  4.017485  0  0  -0.148089  0  4.037598  0  0  -0.100672  -0.144333  0  4.003658  0
C  C62  1  0.24489765  0.52358801  0.44491862  1  0  -0.122108  0  3.76236  0  0  -0.145935  0  4.017498  0  0  -0.148096  0  4.037613  0  0  -0.100699  -0.144345  0  4.003682  0
C  C63  1  0.82719323  0.39519430  0.56997391  1  0  -0.089996  0  3.794385  0  0  -0.11347  0  4.049594  0  0  -0.114018  0  4.068586  0  0  -0.097687  -0.113076  0  4.037142  0
C  C64  1  0.17281255  0.60480497  0.43002734  1  0  -0.089999  0  3.794564  0  0  -0.113479  0  4.049752  0  0  -0.114029  0  4.068743  0  0  -0.097683  -0.11309  0  4.03731  0
C  C65  1  0.69014654  0.29143288  0.53783476  1  0  -0.061944  0  3.73066  0  0  -0.050208  0  3.966858  0  0  -0.053849  0  3.985126  0  0  -0.013594  -0.047994  0  3.954785  0
C  C66  1  0.30984699  0.70856378  0.46216156  1  0  -0.061902  0  3.730618  0  0  -0.050157  0  3.96685  0  0  -0.053798  0  3.985119  0  0  -0.013548  -0.047941  0  3.954777  0
C  C67  1  0.76998407  0.21082556  0.56456195  1  0  0.668912  0  3.899489  0  0  0.61228  0  4.203614  0  0  0.646834  0  4.194873  0  0  0.211593  0.588741  0  4.208896  0
C  C68  1  0.23001234  0.78917457  0.43543901  1  0  0.668965  0  3.899353  0  0  0.612234  0  4.203624  0  0  0.646788  0  4.194883  0  0  0.211582  0.588702  0  4.208896  0
C  C69  1  0.93001242  0.02134487  0.05148495  1  0  0.531126  0  3.921718  0  0  0.485019  0  4.215302  0  0  0.514254  0  4.210165  0  0  0.199108  0.46516  0  4.218067  0
C  C70  1  0.06999383  0.97866459  0.94851718  1  0  0.531105  0  3.921744  0  0  0.484991  0  4.215336  0  0  0.514224  0  4.210205  0  0  0.199101  0.465125  0  4.218108  0
N  N71  1  0.53659029  0.23201618  0.19796904  1  0  -0.369066  0  3.235595  0  0  -0.293844  0  3.517563  0  0  -0.314958  0  3.535553  0  0  -0.341856  -0.27929  0  3.504893  0
N  N72  1  0.46340613  0.76798396  0.80203265  1  0  -0.369139  0  3.235796  0  0  -0.293903  0  3.51771  0  0  -0.315016  0  3.535701  0  0  -0.341959  -0.279354  0  3.50505  0
N  N73  1  0.58616026  0.38747299  0.18869884  1  0  -0.11562  0  3.580666  0  0  -0.027353  0  3.794809  0  0  -0.043762  0  3.820682  0  0  -0.218233  -0.0164  0  3.777122  0
N  N74  1  0.41384965  0.61252877  0.81129936  1  0  -0.11569  0  3.580691  0  0  -0.027374  0  3.794849  0  0  -0.043781  0  3.82072  0  0  -0.218144  -0.016433  0  3.777175  0
N  N75  1  0.34569475  0.45047619  0.11493465  1  0  -0.234222  0  3.023728  0  0  -0.214226  0  3.310763  0  0  -0.220792  0  3.325092  0  0  -0.190859  -0.209826  0  3.301247  0
N  N76  1  0.65431361  0.54952130  0.88506210  1  0  -0.234167  0  3.023627  0  0  -0.214099  0  3.310645  0  0  -0.220669  0  3.324984  0  0  -0.190785  -0.209697  0  3.301123  0
N  N77  1  0.28566406  0.52745356  0.09632387  1  0  -0.213076  0  3.028733  0  0  -0.186213  0  3.314141  0  0  -0.19272  0  3.327373  0  0  -0.180384  -0.181773  0  3.305435  0
N  N78  1  0.71434463  0.47254481  0.90367476  1  0  -0.213104  0  3.028761  0  0  -0.186248  0  3.314137  0  0  -0.192757  0  3.327368  0  0  -0.180396  -0.181815  0  3.305436  0
N  N79  1  0.34182443  0.70398080  0.11197251  1  0  -0.111949  0  3.567491  0  0  -0.024775  0  3.784346  0  0  -0.040834  0  3.808754  0  0  -0.218019  -0.014044  0  3.767614  0
N  N80  1  0.65818322  0.29602358  0.88803062  1  0  -0.111956  0  3.56737  0  0  -0.024815  0  3.784232  0  0  -0.040873  0  3.808638  0  0  -0.217987  -0.014082  0  3.767496  0
N  N81  1  0.32494316  0.85983942  0.10948597  1  0  -0.378187  0  3.224507  0  0  -0.302356  0  3.502303  0  0  -0.323754  0  3.520763  0  0  -0.347543  -0.287651  0  3.489355  0
N  N82  1  0.67505166  0.14016078  0.89051862  1  0  -0.378089  0  3.224373  0  0  -0.302268  0  3.502149  0  0  -0.323667  0  3.520614  0  0  -0.347532  -0.287562  0  3.489197  0
O  O83  1  0.25284387  0.09040946  0.34165808  1  0  -0.657612  0  2.027359  0  0  -0.58294  0  2.265822  0  0  -0.611755  0  2.254415  0  0  -0.316977  -0.562497  0  2.272879  0
O  O84  1  0.74714374  0.90959315  0.65833838  1  0  -0.657526  0  2.02739  0  0  -0.582908  0  2.265946  0  0  -0.611706  0  2.254498  0  0  -0.316937  -0.562465  0  2.273001  0
O  O85  1  0.27569033  0.14176579  0.52560742  1  0  -0.624143  0  2.00509  0  0  -0.561527  0  2.254561  0  0  -0.591529  0  2.244567  0  0  -0.318714  -0.540305  0  2.260746  0
O  O86  1  0.72431191  0.85823260  0.47439194  1  0  -0.624138  0  2.005033  0  0  -0.561523  0  2.254508  0  0  -0.591527  0  2.244515  0  0  -0.318706  -0.540299  0  2.260693  0
O  O87  1  0.84273698  0.25138962  0.66585297  1  0  -0.618974  0  1.962906  0  0  -0.56515  0  2.186792  0  0  -0.590302  0  2.179169  0  0  -0.313824  -0.547285  0  2.191454  0
O  O88  1  0.15725561  0.74860448  0.33414204  1  0  -0.619044  0  1.962684  0  0  -0.565215  0  2.186648  0  0  -0.590366  0  2.179024  0  0  -0.313868  -0.547351  0  2.191308  0
O  O89  1  0.76257600  0.10784756  0.48226826  1  0  -0.650832  0  2.040214  0  0  -0.575072  0  2.273324  0  0  -0.604852  0  2.261049  0  0  -0.312707  -0.554151  0  2.281267  0
O  O90  1  0.23742590  0.89214994  0.51772849  1  0  -0.650812  0  2.040356  0  0  -0.574974  0  2.273462  0  0  -0.604755  0  2.261188  0  0  -0.312656  -0.554056  0  2.281395  0
O  O91  1  0.71030135  0.06061554  0.27163748  1  0  -0.873877  0  1.89431  0  0  -0.808466  0  2.104057  0  0  -0.831671  0  2.069412  0  0  -0.60389  -0.791954  0  2.128135  0
O  O92  1  0.28969471  0.93938364  0.72835797  1  0  -0.873857  0  1.894294  0  0  -0.808431  0  2.104092  0  0  -0.831628  0  2.069428  0  0  -0.603836  -0.791922  0  2.128164  0
O  O93  1  0.03394843  0.06648974  0.14840581  1  0  -0.604098  0  2.096538  0  0  -0.539865  0  2.33719  0  0  -0.566489  0  2.327681  0  0  -0.307764  -0.521269  0  2.343198  0
O  O94  1  0.96606124  0.93352472  0.85159167  1  0  -0.604119  0  2.096411  0  0  -0.539869  0  2.337066  0  0  -0.566497  0  2.327551  0  0  -0.307763  -0.521263  0  2.343065  0
O  O95  1  0.72482541  0.00834412  0.03111756  1  0  -0.603405  0  2.083826  0  0  -0.54138  0  2.344068  0  0  -0.568869  0  2.335955  0  0  -0.307592  -0.522027  0  2.348904  0
O  O96  1  0.27516709  0.99165417  0.96887528  1  0  -0.603421  0  2.084087  0  0  -0.541399  0  2.344307  0  0  -0.568871  0  2.336164  0  0  -0.30761  -0.522051  0  2.349153  0
O  O97  1  0.99090039  0.89525995  0.30271344  1  0  -0.838212  0  1.89815  0  0  -0.776011  0  2.089708  0  0  -0.799919  0  2.055204  0  0  -0.590784  -0.758992  0  2.113592  0
O  O98  1  0.00909763  0.10474016  0.69728680  1  0  -0.838187  0  1.898163  0  0  -0.775984  0  2.089716  0  0  -0.799896  0  2.055205  0  0  -0.59076  -0.758967  0  2.113592  0
