# generated using pymatgen
data_MgH3C7NO3
_symmetry_space_group_name_H-M   'P 1'
_cell_length_a   6.87483637
_cell_length_b   25.68165600
_cell_length_c   25.68195094
_cell_angle_alpha   119.21619422
_cell_angle_beta   95.11800268
_cell_angle_gamma   95.10884650
_symmetry_Int_Tables_number   1
_chemical_formula_structural   MgH3C7NO3
_chemical_formula_sum   'Mg6 H18 C42 N6 O18'
_cell_volume   3895.59607194
_cell_formula_units_Z   6
loop_
 _symmetry_equiv_pos_site_id
 _symmetry_equiv_pos_as_xyz
  1  'x, y, z'
loop_
 _atom_site_type_symbol
 _atom_site_label
 _atom_site_symmetry_multiplicity
 _atom_site_fract_x
 _atom_site_fract_y
 _atom_site_fract_z
 _atom_site_occupancy
 _atom_site_pbe_bader_charge
 _atom_site_pbe_bader_spin_density
 _atom_site_pbe_cm5_charge
 _atom_site_pbe_ddec_charge
 _atom_site_pbe_ddec_spin_density
 _atom_site_pbe_ddec_sum_bond_order
 _atom_site_pbe_magmom
Mg  Mg0  1  0.86083367  0.70445423  0.37719475  1  1.683133  0  0.912136  1.412948  0  1.322227  0
Mg  Mg1  1  0.48361380  0.62281145  0.32728144  1  1.685184  0  0.912041  1.412604  0  1.323081  0
Mg  Mg2  1  0.15640341  0.67274527  0.29555920  1  1.684262  0  0.912106  1.41321  0  1.322051  0
Mg  Mg3  1  0.13916706  0.29554458  0.62280360  1  1.683098  0  0.912154  1.413008  0  1.322153  0
Mg  Mg4  1  0.51638424  0.37718781  0.67271706  1  1.685185  0  0.912063  1.412629  0  1.323039  0
Mg  Mg5  1  0.84359294  0.32725354  0.70443943  1  1.684254  0  0.912109  1.41324  0  1.321981  0
H  H6  1  0.20478045  0.54161431  0.41702814  1  0.09842  0  0.109814  0.116032  0  1.011794  0
H  H7  1  0.78787123  0.58297006  0.12459535  1  0.11176  0  0.109673  0.115823  0  1.012495  0
H  H8  1  0.66310425  0.87540445  0.45833625  1  0.092131  0  0.109813  0.116352  0  1.012135  0
H  H9  1  0.32020675  0.45886345  0.50423206  1  0.10308  0  0.108695  0.108481  0  1.009792  0
H  H10  1  0.81583347  0.49577667  0.95462495  1  0.126085  0  0.108694  0.108355  0  1.009554  0
H  H11  1  0.86136560  0.04532154  0.54113125  1  0.111281  0  0.108916  0.108205  0  1.009569  0
H  H12  1  0.46006077  0.39956956  0.54845816  1  0.081625  0  0.10751  0.124813  0  0.999458  0
H  H13  1  0.91150855  0.45155987  0.85112135  1  0.077799  0  0.107886  0.125619  0  0.999087  0
H  H14  1  0.06052301  0.14886067  0.60042811  1  0.078566  0  0.107557  0.125176  0  0.999919  0
H  H15  1  0.79521737  0.45838450  0.58297131  1  0.098382  0  0.109816  0.11604  0  1.011789  0
H  H16  1  0.21212816  0.41703192  0.87540412  1  0.111632  0  0.109646  0.115832  0  1.01242  0
H  H17  1  0.33689525  0.12459482  0.54166462  1  0.092147  0  0.109807  0.116335  0  1.01214  0
H  H18  1  0.67979118  0.54113852  0.49576854  1  0.103052  0  0.108699  0.108466  0  1.009792  0
H  H19  1  0.18416907  0.50422575  0.04537286  1  0.125965  0  0.10871  0.108373  0  1.009506  0
H  H20  1  0.13863581  0.95467863  0.45886855  1  0.1113  0  0.108874  0.10812  0  1.009527  0
H  H21  1  0.53994031  0.60043287  0.45154234  1  0.081606  0  0.107522  0.124825  0  0.999437  0
H  H22  1  0.08849409  0.54843985  0.14887593  1  0.077759  0  0.107904  0.125585  0  0.999067  0
H  H23  1  0.93947986  0.85113950  0.39957055  1  0.07859  0  0.107566  0.125168  0  0.999903  0
C  C24  1  0.11141484  0.60548831  0.36573302  1  1.494897  0  0.239471  0.682  0  4.115632  0
C  C25  1  0.74562274  0.63424150  0.23978006  1  1.493353  0  0.238169  0.679787  0  4.11818  0
C  C26  1  0.50578982  0.76023409  0.39447473  1  1.51215  0  0.239225  0.681516  0  4.117236  0
C  C27  1  0.98571243  0.58913381  0.40075256  1  -0.026616  0  -0.041183  -0.20445  0  3.968162  0
C  C28  1  0.58508456  0.59918732  0.18838078  1  0.014434  0  -0.040985  -0.203484  0  3.968235  0
C  C29  1  0.39655593  0.81162514  0.41078956  1  0.031276  0  -0.041894  -0.205565  0  3.971342  0
C  C30  1  0.05956825  0.55508376  0.42513190  1  -0.047437  0  -0.072096  -0.122108  0  3.942883  0
C  C31  1  0.63457120  0.57485225  0.12995090  1  -0.096661  0  -0.072611  -0.122247  0  3.943135  0
C  C32  1  0.50443532  0.87004809  0.44484135  1  -0.053214  0  -0.07193  -0.122086  0  3.944917  0
C  C33  1  0.95338273  0.53836608  0.45974572  1  0.403421  0  0.072546  0.14067  0  4.083548  0
C  C34  1  0.49380438  0.54023074  0.07861556  1  0.39414  0  0.072938  0.140469  0  4.085027  0
C  C35  1  0.41499678  0.92138564  0.46154606  1  0.393434  0  0.072259  0.140234  0  4.085839  0
C  C36  1  0.04661261  0.46163363  0.54025371  1  0.403391  0  0.0726  0.140787  0  4.083456  0
C  C37  1  0.50619984  0.45977213  0.92138290  1  0.394484  0  0.072899  0.140488  0  4.085012  0
C  C38  1  0.58500148  0.07861408  0.53845578  1  0.393396  0  0.072265  0.140323  0  4.085836  0
C  C39  1  0.23721121  0.44540979  0.53109218  1  -0.019931  0  -0.071867  -0.092508  0  3.946292  0
C  C40  1  0.70594316  0.46894865  0.91431635  1  -0.029104  0  -0.071766  -0.091366  0  3.946133  0
C  C41  1  0.79182825  0.08565127  0.55465023  1  -0.072125  0  -0.071823  -0.091539  0  3.946041  0
C  C42  1  0.31383726  0.41261241  0.55529923  1  -0.030023  0  -0.100775  -0.201499  0  3.963158  0
C  C43  1  0.75842087  0.44474714  0.85731985  1  -0.039621  0  -0.101208  -0.203355  0  3.964595  0
C  C44  1  0.90123913  0.14265486  0.58742136  1  -0.015156  0  -0.101411  -0.203262  0  3.964356  0
C  C45  1  0.20559160  0.39330037  0.58888018  1  0.600615  0  0.10084  0.374619  0  4.061443  0
C  C46  1  0.61661478  0.41116751  0.80442546  1  0.59526  0  0.101165  0.37459  0  4.06213  0
C  C47  1  0.81231110  0.19554852  0.60673096  1  0.59277  0  0.102433  0.37696  0  4.061315  0
C  C48  1  0.01428538  0.41086500  0.59924610  1  -0.026828  0  -0.041182  -0.204444  0  3.968264  0
C  C49  1  0.41491484  0.40081466  0.81161751  1  0.0144  0  -0.041006  -0.20346  0  3.968083  0
C  C50  1  0.60344356  0.18837413  0.58921053  1  0.031464  0  -0.041855  -0.205526  0  3.971244  0
C  C51  1  0.94042811  0.44491505  0.57486673  1  -0.047375  0  -0.072097  -0.122145  0  3.942922  0
C  C52  1  0.36543112  0.42514972  0.87004786  1  -0.096485  0  -0.072538  -0.122254  0  3.94297  0
C  C53  1  0.49556417  0.12995117  0.55515953  1  -0.053257  0  -0.071909  -0.122068  0  3.944957  0
C  C54  1  0.88858443  0.39451051  0.63426607  1  1.494887  0  0.239446  0.681991  0  4.115625  0
C  C55  1  0.25437574  0.36575867  0.76021928  1  1.493162  0  0.238182  0.679831  0  4.118205  0
C  C56  1  0.49420945  0.23976472  0.60552396  1  1.512025  0  0.239287  0.681714  0  4.117032  0
C  C57  1  0.76278604  0.55459083  0.46890813  1  -0.019916  0  -0.071812  -0.0924  0  3.946278  0
C  C58  1  0.29405938  0.53105378  0.08568107  1  -0.028468  0  -0.071787  -0.091357  0  3.946047  0
C  C59  1  0.20817294  0.91434845  0.44535051  1  -0.072156  0  -0.071797  -0.091423  0  3.946015  0
C  C60  1  0.68616168  0.58738866  0.44470095  1  -0.030085  0  -0.100818  -0.201593  0  3.963146  0
C  C61  1  0.24157908  0.55525303  0.14267719  1  -0.039709  0  -0.101188  -0.203258  0  3.96447  0
C  C62  1  0.09876374  0.85734531  0.41257847  1  -0.015582  0  -0.101386  -0.203207  0  3.96433  0
C  C63  1  0.79440666  0.60669935  0.41111932  1  0.600466  0  0.100883  0.374697  0  4.061322  0
C  C64  1  0.38338540  0.58883311  0.19557336  1  0.594993  0  0.10115  0.3745  0  4.062216  0
C  C65  1  0.18769087  0.80444985  0.39326798  1  0.593246  0  0.102409  0.376921  0  4.061346  0
N  N66  1  0.04846107  0.50641167  0.48341397  1  -0.524459  0  -0.164105  -0.152958  0  3.310596  0
N  N67  1  0.56509298  0.51658431  0.02298563  1  -0.503566  0  -0.164123  -0.152893  0  3.313707  0
N  N68  1  0.54202731  0.97698828  0.49355156  1  -0.484588  0  -0.1642  -0.153077  0  3.31329  0
N  N69  1  0.95153405  0.49358759  0.51658563  1  -0.488014  0  -0.164105  -0.15304  0  3.310574  0
N  N70  1  0.43491124  0.48341856  0.97701167  1  -0.462497  0  -0.164081  -0.152958  0  3.313672  0
N  N71  1  0.45797533  0.02301144  0.50644961  1  -0.525858  0  -0.164199  -0.153093  0  3.31325  0
O  O72  1  0.27283966  0.58474936  0.35324075  1  -1.240209  0  -0.356279  -0.643883  0  2.143633  0
O  O73  1  0.91956195  0.64675851  0.23156892  1  -1.245755  0  -0.355716  -0.643286  0  2.144302  0
O  O74  1  0.68792581  0.76844101  0.41520855  1  -1.245568  0  -0.356062  -0.643585  0  2.143907  0
O  O75  1  0.05458914  0.64240487  0.34882011  1  -1.290599  0  -0.403583  -0.770359  0  2.414732  0
O  O76  1  0.70562544  0.65117052  0.29359977  1  -1.292054  0  -0.403294  -0.769386  0  2.415816  0
O  O77  1  0.41200071  0.70641417  0.35760983  1  -1.29769  0  -0.403351  -0.76998  0  2.416478  0
O  O78  1  0.71381339  0.64058175  0.39126717  1  -1.304059  0  -0.441117  -0.771821  0  2.311621  0
O  O79  1  0.32261547  0.60873367  0.24930281  1  -1.310897  0  -0.441076  -0.771418  0  2.312607  0
O  O80  1  0.07315920  0.75072418  0.35945447  1  -1.307888  0  -0.441534  -0.772433  0  2.311392  0
O  O81  1  0.72715815  0.41524945  0.64675869  1  -1.240191  0  -0.356331  -0.643892  0  2.143561  0
O  O82  1  0.08043754  0.35324076  0.76843000  1  -1.245765  0  -0.355752  -0.643374  0  2.144382  0
O  O83  1  0.31207493  0.23155780  0.58478979  1  -1.245554  0  -0.35609  -0.643696  0  2.143873  0
O  O84  1  0.94541474  0.35759440  0.65117892  1  -1.290585  0  -0.403535  -0.770344  0  2.414731  0
O  O85  1  0.29437439  0.34882649  0.70639884  1  -1.291895  0  -0.403282  -0.769409  0  2.415792  0
O  O86  1  0.58800025  0.29358510  0.64238796  1  -1.297702  0  -0.403452  -0.77018  0  2.416482  0
O  O87  1  0.28618487  0.35941797  0.60873156  1  -1.304061  0  -0.441089  -0.771811  0  2.311698  0
O  O88  1  0.67738111  0.39126560  0.75069644  1  -1.310915  0  -0.441036  -0.771397  0  2.312517  0
O  O89  1  0.92683906  0.24927553  0.64054504  1  -1.307843  0  -0.441562  -0.772461  0  2.311301  0
