# generated using pymatgen
data_ZnH4C3(N2O)2
_symmetry_space_group_name_H-M   'P 1'
_cell_length_a   9.10564808
_cell_length_b   10.44607837
_cell_length_c   12.50400000
_cell_angle_alpha   90.00000000
_cell_angle_beta   90.00000000
_cell_angle_gamma   90.00000000
_symmetry_Int_Tables_number   1
_chemical_formula_structural   ZnH4C3(N2O)2
_chemical_formula_sum   'Zn8 H32 C24 N32 O16'
_cell_volume   1189.35939183
_cell_formula_units_Z   8
loop_
 _symmetry_equiv_pos_site_id
 _symmetry_equiv_pos_as_xyz
  1  'x, y, z'
loop_
 _atom_site_type_symbol
 _atom_site_label
 _atom_site_symmetry_multiplicity
 _atom_site_fract_x
 _atom_site_fract_y
 _atom_site_fract_z
 _atom_site_occupancy
 _atom_site_hle17_bader_spin_density
 _atom_site_hle17_ddec_charge
 _atom_site_hle17_ddec_spin_density
 _atom_site_hle17_ddec_sum_bond_order
 _atom_site_hle17_magmom
 _atom_site_hse06_10hf_bader_spin_density
 _atom_site_hse06_10hf_ddec_charge
 _atom_site_hse06_10hf_ddec_spin_density
 _atom_site_hse06_10hf_ddec_sum_bond_order
 _atom_site_hse06_10hf_magmom
 _atom_site_hse06_bader_spin_density
 _atom_site_hse06_ddec_charge
 _atom_site_hse06_ddec_spin_density
 _atom_site_hse06_ddec_sum_bond_order
 _atom_site_hse06_magmom
 _atom_site_pbe_bader_charge
 _atom_site_pbe_bader_spin_density
 _atom_site_pbe_cm5_charge
 _atom_site_pbe_ddec_charge
 _atom_site_pbe_ddec_spin_density
 _atom_site_pbe_ddec_sum_bond_order
 _atom_site_pbe_magmom
Zn  Zn0  1  0.08763791  0.39674410  0.09995202  1  0  0.946431  0  1.935441  0  0  0.750946  0  2.413052  0  0  0.792822  0  2.364471  0  1.228096  0  0.723435  0.721602  0  2.446336  0
Zn  Zn1  1  0.41236054  0.60325605  0.59995122  1  0  0.946422  0  1.935437  0  0  0.750946  0  2.413026  0  0  0.792827  0  2.36444  0  1.228202  0  0.723418  0.721602  0  2.446316  0
Zn  Zn2  1  0.91236120  0.89674322  0.40004798  1  0  0.946425  0  1.93546  0  0  0.75094  0  2.413065  0  0  0.792827  0  2.36448  0  1.228095  0  0.723425  0.721602  0  2.44635  0
Zn  Zn3  1  0.58763857  0.10325597  0.90004958  1  0  0.946432  0  1.935447  0  0  0.750973  0  2.41303  0  0  0.79285  0  2.364444  0  1.228096  0  0.723414  0.721628  0  2.44632  0
Zn  Zn4  1  0.91236230  0.60325605  0.90004798  1  0  0.946437  0  1.935446  0  0  0.750954  0  2.413068  0  0  0.792835  0  2.364484  0  1.228095  0  0.723436  0.721619  0  2.446353  0
Zn  Zn5  1  0.58763857  0.39674410  0.40004878  1  0  0.946435  0  1.935436  0  0  0.750966  0  2.413035  0  0  0.792846  0  2.364448  0  1.228072  0  0.723402  0.721622  0  2.446323  0
Zn  Zn6  1  0.08763791  0.10325597  0.59995202  1  0  0.946444  0  1.935469  0  0  0.750973  0  2.413096  0  0  0.79285  0  2.364511  0  1.228094  0  0.723437  0.721631  0  2.446381  0
Zn  Zn7  1  0.41236164  0.89674418  0.09995122  1  0  0.946437  0  1.935402  0  0  0.750973  0  2.41301  0  0  0.79285  0  2.364423  0  1.228106  0  0.723416  0.721626  0  2.446298  0
H  H8  1  0.28186681  0.42850626  0.90630758  1  0  0.338266  0  0.891083  0  0  0.320542  0  0.956586  0  0  0.327012  0  0.951544  0  0.462401  0  0.309772  0.316075  0  0.960022  0
H  H9  1  0.21813274  0.57149485  0.40630678  1  0  0.338204  0  0.891049  0  0  0.320476  0  0.956567  0  0  0.326944  0  0.951537  0  0.462416  0  0.309749  0.31601  0  0.960001  0
H  H10  1  0.71813230  0.92850634  0.59369322  1  0  0.338254  0  0.89109  0  0  0.320529  0  0.95659  0  0  0.326999  0  0.951549  0  0.462408  0  0.30977  0.316063  0  0.960025  0
H  H11  1  0.78186747  0.07149477  0.09369242  1  0  0.338202  0  0.891067  0  0  0.320472  0  0.95659  0  0  0.326942  0  0.951549  0  0.462417  0  0.309744  0.316003  0  0.960032  0
H  H12  1  0.71813340  0.57149389  0.09369242  1  0  0.338268  0  0.891075  0  0  0.320543  0  0.956577  0  0  0.327013  0  0.951535  0  0.462403  0  0.309774  0.316077  0  0.960013  0
H  H13  1  0.78186747  0.42850626  0.59369242  1  0  0.338198  0  0.891053  0  0  0.320468  0  0.95658  0  0  0.32694  0  0.951536  0  0.462411  0  0.309744  0.316002  0  0.960015  0
H  H14  1  0.28186681  0.07149382  0.40630758  1  0  0.338269  0  0.891081  0  0  0.320544  0  0.956583  0  0  0.327015  0  0.951539  0  0.462403  0  0.309773  0.316078  0  0.960018  0
H  H15  1  0.21813274  0.92850634  0.90630678  1  0  0.338272  0  0.891092  0  0  0.320552  0  0.956583  0  0  0.327018  0  0.951552  0  0.462406  0  0.309776  0.316085  0  0.960018  0
H  H16  1  0.40723186  0.33548379  0.83630438  1  0  0.35092  0  0.919757  0  0  0.329559  0  0.989843  0  0  0.337929  0  0.982069  0  0.536851  0  0.298513  0.323691  0  0.995263  0
H  H17  1  0.09276770  0.66451732  0.33630358  1  0  0.350878  0  0.919831  0  0  0.32951  0  0.989923  0  0  0.337882  0  0.982145  0  0.536838  0  0.298504  0.323643  0  0.995342  0
H  H18  1  0.59276725  0.83548483  0.66369642  1  0  0.350896  0  0.919793  0  0  0.329533  0  0.989882  0  0  0.337903  0  0.982107  0  0.536778  0  0.298504  0.323665  0  0.995301  0
H  H19  1  0.90723251  0.16451724  0.16369642  1  0  0.35089  0  0.919812  0  0  0.329523  0  0.989901  0  0  0.337894  0  0.982125  0  0.53684  0  0.2985  0.323655  0  0.995319  0
H  H20  1  0.59276835  0.66451636  0.16369562  1  0  0.35092  0  0.919759  0  0  0.329557  0  0.989849  0  0  0.337928  0  0.982074  0  0.536856  0  0.298511  0.32369  0  0.995268  0
H  H21  1  0.90723251  0.33548379  0.66369642  1  0  0.350873  0  0.919825  0  0  0.329508  0  0.989914  0  0  0.337879  0  0.982139  0  0.536838  0  0.298502  0.32364  0  0.995333  0
H  H22  1  0.40723186  0.16451628  0.33630438  1  0  0.350912  0  0.91977  0  0  0.329551  0  0.989855  0  0  0.337922  0  0.98208  0  0.536852  0  0.298511  0.323684  0  0.995273  0
H  H23  1  0.09276770  0.83548387  0.83630358  1  0  0.350902  0  0.919787  0  0  0.329545  0  0.989865  0  0  0.337916  0  0.982089  0  0.536842  0  0.29851  0.323677  0  0.995284  0
H  H24  1  0.17063805  0.10439324  0.16594930  1  0  0.105636  0  0.931807  0  0  0.11789  0  0.98935  0  0  0.120451  0  0.985782  0  0.180462  0  0.141368  0.115856  0  0.992268  0
H  H25  1  0.32936261  0.89560691  0.66594770  1  0  0.105636  0  0.931805  0  0  0.117889  0  0.989347  0  0  0.120452  0  0.98578  0  0.180454  0  0.141364  0.115856  0  0.992264  0
H  H26  1  0.82935887  0.60439332  0.33405150  1  0  0.105736  0  0.931734  0  0  0.117896  0  0.989375  0  0  0.120459  0  0.985809  0  0.180491  0  0.141367  0.115863  0  0.992292  0
H  H27  1  0.67063760  0.39560683  0.83405150  1  0  0.105637  0  0.931816  0  0  0.117892  0  0.989355  0  0  0.120455  0  0.98579  0  0.180462  0  0.141367  0.115858  0  0.992274  0
H  H28  1  0.82936216  0.89560691  0.83405070  1  0  0.105618  0  0.931821  0  0  0.117876  0  0.989362  0  0  0.120437  0  0.985794  0  0.180451  0  0.14136  0.115842  0  0.99228  0
H  H29  1  0.67064090  0.10439420  0.33405070  1  0  0.10571  0  0.931774  0  0  0.117874  0  0.989415  0  0  0.120434  0  0.985847  0  0.180472  0  0.141346  0.115841  0  0.992331  0
H  H30  1  0.17063695  0.39560683  0.66594850  1  0  0.105624  0  0.93182  0  0  0.117876  0  0.989362  0  0  0.12044  0  0.985797  0  0.180456  0  0.141365  0.115843  0  0.99228  0
H  H31  1  0.32936261  0.60439332  0.16594850  1  0  0.105636  0  0.931804  0  0  0.117888  0  0.989349  0  0  0.120452  0  0.985782  0  0.180449  0  0.141361  0.115855  0  0.992266  0
H  H32  1  0.04860939  0.35236477  0.40059501  1  0  0.00502  0  0.936843  0  0  0.016365  0  1.008199  0  0  0.015333  0  1.005608  0  0.084864  0  0.101363  0.016731  0  1.0104  0
H  H33  1  0.45139236  0.64763156  0.90059501  1  0  0.004978  0  0.936908  0  0  0.016323  0  1.008253  0  0  0.015291  0  1.005663  0  0.084845  0  0.10136  0.016692  0  1.010451  0
H  H34  1  0.95139082  0.85236581  0.09940419  1  0  0.005014  0  0.936867  0  0  0.016359  0  1.008213  0  0  0.015327  0  1.005622  0  0.084857  0  0.101363  0.016726  0  1.010412  0
H  H35  1  0.54860895  0.14763148  0.59940499  1  0  0.005002  0  0.936868  0  0  0.016347  0  1.00821  0  0  0.015318  0  1.005619  0  0.084753  0  0.101372  0.016714  0  1.01041  0
H  H36  1  0.95139082  0.64763539  0.59940419  1  0  0.005032  0  0.936862  0  0  0.01638  0  1.008204  0  0  0.015349  0  1.005613  0  0.084858  0  0.101372  0.016748  0  1.010404  0
H  H37  1  0.54861004  0.35236573  0.09940419  1  0  0.005015  0  0.936862  0  0  0.01636  0  1.008208  0  0  0.015327  0  1.005618  0  0.084756  0  0.101372  0.016727  0  1.010408  0
H  H38  1  0.04860939  0.14763627  0.90059581  1  0  0.005016  0  0.936856  0  0  0.01636  0  1.008212  0  0  0.015329  0  1.005619  0  0.084831  0  0.101366  0.016728  0  1.01041  0
H  H39  1  0.45139017  0.85236581  0.40059581  1  0  0.005014  0  0.936865  0  0  0.01636  0  1.008211  0  0  0.015328  0  1.005621  0  0.084753  0  0.101369  0.016726  0  1.010412  0
C  C40  1  0.23417334  0.13576004  0.09730006  1  0  0.255604  0  3.708502  0  0  0.187902  0  3.988745  0  0  0.206526  0  3.996586  0  1.018306  0  0.152176  0.175125  0  3.984102  0
C  C41  1  0.26582732  0.86424108  0.59729926  1  0  0.255619  0  3.708499  0  0  0.187927  0  3.988731  0  0  0.206549  0  3.996579  0  1.018313  0  0.152211  0.17515  0  3.984089  0
C  C42  1  0.76582468  0.63575916  0.40270074  1  0  0.255546  0  3.708591  0  0  0.187916  0  3.988812  0  0  0.206541  0  3.996664  0  1.01832  0  0.152232  0.175139  0  3.984173  0
C  C43  1  0.73417289  0.36424100  0.90269994  1  0  0.255572  0  3.708548  0  0  0.187868  0  3.98879  0  0  0.206487  0  3.99664  0  1.018291  0  0.152158  0.175093  0  3.984148  0
C  C44  1  0.76582687  0.86424108  0.90269914  1  0  0.255611  0  3.7085  0  0  0.187914  0  3.988735  0  0  0.206538  0  3.996576  0  1.018313  0  0.152181  0.175138  0  3.984094  0
C  C45  1  0.73417509  0.13575908  0.40269914  1  0  0.255571  0  3.708603  0  0  0.187934  0  3.988833  0  0  0.206561  0  3.996678  0  1.018316  0  0.152236  0.175159  0  3.984189  0
C  C46  1  0.23417224  0.36424100  0.59730006  1  0  0.255613  0  3.708524  0  0  0.187921  0  3.988754  0  0  0.20654  0  3.996602  0  1.018315  0  0.152178  0.175144  0  3.984114  0
C  C47  1  0.26582732  0.63575916  0.09729926  1  0  0.255613  0  3.708498  0  0  0.187916  0  3.988741  0  0  0.206535  0  3.996588  0  1.018322  0  0.152208  0.175138  0  3.9841  0
C  C48  1  0.32227250  0.25331995  0.97123480  1  0  0.593039  0  3.858271  0  0  0.542372  0  4.137342  0  0  0.566427  0  4.148253  0  1.534625  0  0.326941  0.526289  0  4.129426  0
C  C49  1  0.17772815  0.74668117  0.47123401  1  0  0.592964  0  3.858396  0  0  0.542281  0  4.137477  0  0  0.56634  0  4.148384  0  1.534624  0  0.3269  0.526198  0  4.129561  0
C  C50  1  0.67772661  0.75332002  0.52876599  1  0  0.592874  0  3.858241  0  0  0.542193  0  4.137337  0  0  0.566253  0  4.148251  0  1.534628  0  0.326876  0.52611  0  4.129421  0
C  C51  1  0.82227206  0.24668205  0.02876599  1  0  0.592951  0  3.858436  0  0  0.5423  0  4.137475  0  0  0.566354  0  4.148388  0  1.534631  0  0.326922  0.526216  0  4.12956  0
C  C52  1  0.67772771  0.74668117  0.02876520  1  0  0.593025  0  3.858311  0  0  0.542333  0  4.137417  0  0  0.566385  0  4.14833  0  1.534632  0  0.326913  0.526248  0  4.129503  0
C  C53  1  0.82227206  0.25331899  0.52876599  1  0  0.592993  0  3.858379  0  0  0.54234  0  4.137431  0  0  0.566397  0  4.148342  0  1.534625  0  0.3269  0.526255  0  4.129517  0
C  C54  1  0.32227140  0.24668013  0.47123480  1  0  0.593057  0  3.858206  0  0  0.542373  0  4.137304  0  0  0.566427  0  4.148216  0  1.534634  0  0.326952  0.52629  0  4.129389  0
C  C55  1  0.17772815  0.75331907  0.97123401  1  0  0.592978  0  3.858299  0  0  0.542309  0  4.137376  0  0  0.566365  0  4.148283  0  1.534632  0  0.326881  0.526225  0  4.129461  0
C  C56  1  0.05037203  0.33129370  0.31350768  1  0  0.562588  0  3.941238  0  0  0.494899  0  4.24009  0  0  0.527896  0  4.233748  0  1.55034  0  0.127619  0.472669  0  4.243583  0
C  C57  1  0.44962643  0.66870262  0.81350848  1  0  0.56271  0  3.941106  0  0  0.495039  0  4.23992  0  0  0.528034  0  4.233578  0  1.550264  0  0.127686  0.47281  0  4.243414  0
C  C58  1  0.94962818  0.83129378  0.18649152  1  0  0.562562  0  3.941356  0  0  0.494891  0  4.240188  0  0  0.527889  0  4.233846  0  1.550325  0  0.127618  0.472663  0  4.243679  0
C  C59  1  0.55037269  0.16870350  0.68649232  1  0  0.562695  0  3.941037  0  0  0.495026  0  4.239858  0  0  0.52802  0  4.233512  0  1.550406  0  0.127688  0.472798  0  4.243353  0
C  C60  1  0.94962818  0.66870741  0.68649232  1  0  0.562526  0  3.94137  0  0  0.494862  0  4.240198  0  0  0.527858  0  4.233855  0  1.550348  0  0.127614  0.472634  0  4.243689  0
C  C61  1  0.55037488  0.33129370  0.18649312  1  0  0.562712  0  3.941283  0  0  0.495046  0  4.240095  0  0  0.528044  0  4.23375  0  1.550417  0  0.127703  0.47282  0  4.243587  0
C  C62  1  0.05037203  0.16870733  0.81350768  1  0  0.562586  0  3.941328  0  0  0.494912  0  4.240164  0  0  0.527908  0  4.233822  0  1.550374  0  0.127626  0.472681  0  4.243657  0
C  C63  1  0.44962643  0.83129378  0.31350688  1  0  0.562683  0  3.941318  0  0  0.495017  0  4.240133  0  0  0.528013  0  4.233788  0  1.550442  0  0.127691  0.47279  0  4.243626  0
N  N64  1  0.22216101  0.25381295  0.05286308  1  0  -0.536732  0  3.184792  0  0  -0.449512  0  3.486812  0  0  -0.474738  0  3.491521  0  -1.25176  0  -0.370302  -0.432327  0  3.483758  0
N  N65  1  0.27783964  0.74618816  0.55286148  1  0  -0.536724  0  3.184805  0  0  -0.449519  0  3.486836  0  0  -0.474755  0  3.491557  0  -1.25174  0  -0.370295  -0.432335  0  3.483784  0
N  N66  1  0.77783700  0.75381207  0.44713772  1  0  -0.536725  0  3.184943  0  0  -0.449492  0  3.486923  0  0  -0.47474  0  3.491656  0  -1.251701  0  -0.370286  -0.432305  0  3.48387  0
N  N67  1  0.72216057  0.24618808  0.94713772  1  0  -0.536706  0  3.184824  0  0  -0.449503  0  3.486837  0  0  -0.474728  0  3.49155  0  -1.251719  0  -0.370289  -0.432317  0  3.483783  0
N  N68  1  0.77784030  0.74618816  0.94713692  1  0  -0.536718  0  3.184754  0  0  -0.449499  0  3.48679  0  0  -0.474722  0  3.491498  0  -1.251738  0  -0.370287  -0.432314  0  3.483741  0
N  N69  1  0.72216167  0.25381200  0.44713772  1  0  -0.536774  0  3.184889  0  0  -0.449558  0  3.486871  0  0  -0.474794  0  3.491591  0  -1.251705  0  -0.370304  -0.43237  0  3.483817  0
N  N70  1  0.22215991  0.24618712  0.55286308  1  0  -0.536741  0  3.184805  0  0  -0.449519  0  3.486833  0  0  -0.474745  0  3.491542  0  -1.251759  0  -0.370298  -0.432332  0  3.48378  0
N  N71  1  0.27784074  0.75381207  0.05286148  1  0  -0.53673  0  3.18476  0  0  -0.449533  0  3.4868  0  0  -0.474761  0  3.491511  0  -1.251744  0  -0.370297  -0.432347  0  3.483746  0
N  N72  1  0.33340845  0.06487506  0.04795985  1  0  -0.292528  0  3.271613  0  0  -0.221672  0  3.580383  0  0  -0.237552  0  3.590109  0  -0.839037  0  -0.276414  -0.210647  0  3.573555  0
N  N73  1  0.16659221  0.93512509  0.54795905  1  0  -0.292581  0  3.271628  0  0  -0.221734  0  3.580396  0  0  -0.237614  0  3.590122  0  -0.839038  0  -0.276452  -0.210711  0  3.573571  0
N  N74  1  0.66658957  0.56487514  0.45204175  1  0  -0.292647  0  3.271671  0  0  -0.221783  0  3.580412  0  0  -0.237663  0  3.590139  0  -0.839663  0  -0.276526  -0.21076  0  3.573589  0
N  N75  1  0.83340800  0.43512501  0.95204015  1  0  -0.292544  0  3.271603  0  0  -0.221692  0  3.580367  0  0  -0.237574  0  3.590099  0  -0.838984  0  -0.276426  -0.210672  0  3.573548  0
N  N76  1  0.66659176  0.93512509  0.95204015  1  0  -0.292545  0  3.271664  0  0  -0.221691  0  3.580424  0  0  -0.237572  0  3.590153  0  -0.839006  0  -0.276428  -0.210666  0  3.573597  0
N  N77  1  0.83340910  0.06487506  0.45204015  1  0  -0.292562  0  3.271679  0  0  -0.221696  0  3.580414  0  0  -0.237576  0  3.59014  0  -0.838999  0  -0.276446  -0.210674  0  3.573593  0
N  N78  1  0.33340735  0.43512501  0.54795985  1  0  -0.292538  0  3.271664  0  0  -0.221683  0  3.580424  0  0  -0.237563  0  3.590152  0  -0.839068  0  -0.27643  -0.210659  0  3.573599  0
N  N79  1  0.16659221  0.56487514  0.04795985  1  0  -0.29252  0  3.271571  0  0  -0.221668  0  3.58033  0  0  -0.237548  0  3.590059  0  -0.839042  0  -0.276429  -0.210644  0  3.573507  0
N  N80  1  0.39208192  0.13952604  0.96636756  1  0  -0.424356  0  3.133196  0  0  -0.353091  0  3.436987  0  0  -0.373024  0  3.444855  0  -0.828287  0  -0.28886  -0.339565  0  3.431157  0
N  N81  1  0.10791763  0.86047507  0.46636676  1  0  -0.424288  0  3.133258  0  0  -0.352986  0  3.437024  0  0  -0.37292  0  3.444892  0  -0.828308  0  -0.288817  -0.339461  0  3.431197  0
N  N82  1  0.60791609  0.63952612  0.53363404  1  0  -0.424163  0  3.133074  0  0  -0.352883  0  3.436855  0  0  -0.372817  0  3.444726  0  -0.8278  0  -0.288762  -0.339356  0  3.431025  0
N  N83  1  0.89208258  0.36047595  0.03363244  1  0  -0.424249  0  3.133245  0  0  -0.352975  0  3.437003  0  0  -0.372908  0  3.444876  0  -0.828381  0  -0.288808  -0.339448  0  3.431175  0
N  N84  1  0.60791829  0.86047507  0.03363244  1  0  -0.424331  0  3.133238  0  0  -0.353056  0  3.437033  0  0  -0.372988  0  3.444903  0  -0.828374  0  -0.288838  -0.339528  0  3.431202  0
N  N85  1  0.89208258  0.13952509  0.53363244  1  0  -0.424293  0  3.133269  0  0  -0.353032  0  3.437049  0  0  -0.372964  0  3.444918  0  -0.828385  0  -0.288815  -0.339506  0  3.431223  0
N  N86  1  0.39208192  0.36047499  0.46636756  1  0  -0.424364  0  3.133121  0  0  -0.353099  0  3.436937  0  0  -0.373031  0  3.444804  0  -0.82827  0  -0.288857  -0.339571  0  3.431108  0
N  N87  1  0.10791763  0.63952517  0.96636676  1  0  -0.424338  0  3.133275  0  0  -0.353047  0  3.437041  0  0  -0.37298  0  3.44491  0  -0.828292  0  -0.288835  -0.339523  0  3.431217  0
N  N88  1  0.35146208  0.35292575  0.90630598  1  0  -0.71825  0  3.101247  0  0  -0.689282  0  3.348839  0  0  -0.70941  0  3.344147  0  -1.298874  0  -0.58559  -0.675076  0  3.351996  0
N  N89  1  0.14853748  0.64707537  0.40630518  1  0  -0.718138  0  3.101239  0  0  -0.689155  0  3.348832  0  0  -0.709283  0  3.344136  0  -1.298864  0  -0.585558  -0.674947  0  3.351985  0
N  N90  1  0.64853703  0.85292678  0.59369482  1  0  -0.718141  0  3.101132  0  0  -0.689165  0  3.348725  0  0  -0.709291  0  3.34403  0  -1.298834  0  -0.585555  -0.674958  0  3.351879  0
N  N91  1  0.85146273  0.14707529  0.09369402  1  0  -0.71817  0  3.101298  0  0  -0.689189  0  3.348863  0  0  -0.709318  0  3.344173  0  -1.298856  0  -0.585566  -0.674982  0  3.352015  0
N  N92  1  0.64853813  0.64707441  0.09369322  1  0  -0.718262  0  3.101265  0  0  -0.689276  0  3.348858  0  0  -0.709403  0  3.344166  0  -1.298857  0  -0.585582  -0.675068  0  3.352014  0
N  N93  1  0.85146273  0.35292479  0.59369482  1  0  -0.718131  0  3.101232  0  0  -0.68916  0  3.348819  0  0  -0.709287  0  3.344127  0  -1.298863  0  -0.585554  -0.674952  0  3.351972  0
N  N94  1  0.35146208  0.14707433  0.40630598  1  0  -0.718246  0  3.10125  0  0  -0.689267  0  3.34884  0  0  -0.709395  0  3.344147  0  -1.298865  0  -0.585589  -0.67506  0  3.351996  0
N  N95  1  0.14853858  0.85292582  0.90630518  1  0  -0.718237  0  3.101227  0  0  -0.68927  0  3.348818  0  0  -0.709398  0  3.344121  0  -1.298868  0  -0.585574  -0.675063  0  3.351973  0
O  O96  1  0.09383736  0.42602686  0.25540067  1  0  -0.600247  0  2.080136  0  0  -0.517535  0  2.35217  0  0  -0.546196  0  2.338278  0  -1.179595  0  -0.33933  -0.497756  0  2.361103  0
O  O97  1  0.40615890  0.57397234  0.75540067  1  0  -0.600303  0  2.080114  0  0  -0.517589  0  2.352139  0  0  -0.54624  0  2.338226  0  -1.179634  0  -0.339328  -0.497809  0  2.361073  0
O  O98  1  0.90616285  0.92602598  0.24459933  1  0  -0.600208  0  2.080178  0  0  -0.51753  0  2.352234  0  0  -0.546193  0  2.338346  0  -1.17958  0  -0.339334  -0.497752  0  2.361167  0
O  O99  1  0.59384021  0.07397226  0.74460013  1  0  -0.600301  0  2.080039  0  0  -0.517589  0  2.352051  0  0  -0.546251  0  2.338159  0  -1.179654  0  -0.339332  -0.49781  0  2.360986  0
O  O100  1  0.90616285  0.57397425  0.74459933  1  0  -0.600213  0  2.080156  0  0  -0.517524  0  2.352197  0  0  -0.54619  0  2.33831  0  -1.179574  0  -0.339337  -0.497748  0  2.36113  0
O  O101  1  0.59384021  0.42602591  0.24459933  1  0  -0.600275  0  2.080173  0  0  -0.517588  0  2.352214  0  0  -0.546246  0  2.338314  0  -1.179621  0  -0.339343  -0.497808  0  2.361148  0
O  O102  1  0.09383736  0.07397417  0.75540067  1  0  -0.600219  0  2.080127  0  0  -0.517543  0  2.352186  0  0  -0.546205  0  2.338293  0  -1.179578  0  -0.339341  -0.497766  0  2.36112  0
O  O103  1  0.40616000  0.92602598  0.25540147  1  0  -0.600271  0  2.080175  0  0  -0.517581  0  2.352209  0  0  -0.546241  0  2.338316  0  -1.179615  0  -0.33934  -0.4978  0  2.361142  0
O  O104  1  0.01207163  0.22330390  0.28118842  1  0  -0.585379  0  2.009676  0  0  -0.529372  0  2.238593  0  0  -0.553464  0  2.231314  0  -1.198407  0  -0.320679  -0.512662  0  2.242964  0
O  O105  1  0.48792903  0.77669147  0.78118682  1  0  -0.585425  0  2.009475  0  0  -0.52945  0  2.238433  0  0  -0.553543  0  2.23115  0  -1.198276  0  -0.320742  -0.51274  0  2.242807  0
O  O106  1  0.98792858  0.72330397  0.21881078  1  0  -0.585388  0  2.009694  0  0  -0.529365  0  2.238593  0  0  -0.553459  0  2.231314  0  -1.198397  0  -0.320684  -0.512654  0  2.242962  0
O  O107  1  0.51207009  0.27669140  0.71881318  1  0  -0.585437  0  2.00952  0  0  -0.529462  0  2.238477  0  0  -0.553554  0  2.231194  0  -1.198297  0  -0.320755  -0.512751  0  2.242849  0
O  O108  1  0.98792858  0.77669626  0.71881158  1  0  -0.58534  0  2.009703  0  0  -0.529369  0  2.238644  0  0  -0.55346  0  2.231365  0  -1.198425  0  -0.320682  -0.512658  0  2.243013  0
O  O109  1  0.51207228  0.22330773  0.21881238  1  0  -0.585481  0  2.009634  0  0  -0.52948  0  2.238567  0  0  -0.553573  0  2.23128  0  -1.198342  0  -0.320754  -0.512771  0  2.242938  0
O  O110  1  0.01207163  0.27669618  0.78118842  1  0  -0.585389  0  2.009735  0  0  -0.52938  0  2.238643  0  0  -0.553472  0  2.231364  0  -1.198425  0  -0.320686  -0.512671  0  2.243014  0
O  O111  1  0.48792793  0.72330780  0.28118762  1  0  -0.585458  0  2.009657  0  0  -0.529469  0  2.238599  0  0  -0.553561  0  2.231314  0  -1.198376  0  -0.32075  -0.512758  0  2.242972  0
