# generated using pymatgen
data_CdNiH21C13N6
_symmetry_space_group_name_H-M   'P 1'
_cell_length_a   7.21936657
_cell_length_b   11.37470396
_cell_length_c   13.62093385
_cell_angle_alpha   115.35129914
_cell_angle_beta   91.88367627
_cell_angle_gamma   106.85401303
_symmetry_Int_Tables_number   1
_chemical_formula_structural   CdNiH21C13N6
_chemical_formula_sum   'Cd2 Ni2 H42 C26 N12'
_cell_volume   951.31903478
_cell_formula_units_Z   2
loop_
 _symmetry_equiv_pos_site_id
 _symmetry_equiv_pos_as_xyz
  1  'x, y, z'
loop_
 _atom_site_type_symbol
 _atom_site_label
 _atom_site_symmetry_multiplicity
 _atom_site_fract_x
 _atom_site_fract_y
 _atom_site_fract_z
 _atom_site_occupancy
 _atom_site_pbe_bader_charge
 _atom_site_pbe_bader_spin_density
 _atom_site_pbe_cm5_charge
 _atom_site_pbe_ddec_charge
 _atom_site_pbe_ddec_spin_density
 _atom_site_pbe_ddec_sum_bond_order
 _atom_site_pbe_magmom
Cd  Cd0  1  0.00000219  0.99999882  0.99999691  1  1.248268  0.073133  0.829093  0.894512  0.076039  2.331391  0.055
Cd  Cd1  1  0.00000324  0.00000383  0.49999883  1  1.264038  0.000127  0.814636  0.884987  -0.000535  2.357341  0.0
Ni  Ni2  1  0.53302155  0.10406220  0.27338897  1  0.649457  0.005379  0.407513  0.138945  0.010378  3.852567  0.005
Ni  Ni3  1  0.46698157  0.89594317  0.72661157  1  0.649576  0.005379  0.40746  0.13883  0.010379  3.852689  0.005
H  H4  1  0.21591018  0.16830671  0.90896594  1  0.427718  0.003282  0.306709  0.292739  0.002683  0.943715  0.003
H  H5  1  0.13427397  0.26448329  0.01739305  1  0.436042  0.008972  0.300237  0.281979  0.007944  0.973377  0.008
H  H6  1  0.94503202  0.11531376  0.78143896  1  0.083838  0.011688  0.098394  0.067394  0.008983  1.05499  -0.001
H  H7  1  0.69035125  0.22063858  0.84127819  1  0.031055  0.003341  0.091998  0.092026  0.001613  1.014622  0.003
H  H8  1  0.67807178  0.12446341  0.91470449  1  0.043919  0.04876  0.089061  0.089009  0.037415  1.031247  0.03
H  H9  1  0.88062704  0.33529977  0.08398857  1  0.040062  -0.000397  0.088238  0.086431  -0.001275  0.992252  0.0
H  H10  1  0.89377023  0.43600555  0.01319445  1  -0.017473  0.003038  0.078219  0.062926  0.003407  1.043952  0.0
H  H11  1  0.52264128  0.35586677  0.97426106  1  0.006433  0.000546  0.083017  0.071824  -0.000309  1.004313  0.0
H  H12  1  0.51668836  0.26216672  0.05044348  1  0.033152  0.001346  0.088606  0.089907  0.00087  0.997767  0.0
H  H13  1  0.69103632  0.48187092  0.22073173  1  -0.003863  2.2e-05  0.08649  0.078347  -0.000402  0.982924  0.0
H  H14  1  0.70603982  0.57666982  0.14494209  1  -0.002477  0.006162  0.075408  0.054624  0.008643  1.031583  0.001
H  H15  1  0.33409402  0.48857996  0.09702073  1  -0.033079  0.000223  0.082922  0.07232  -0.000314  1.006108  0.0
H  H16  1  0.32548984  0.40138345  0.17894447  1  0.034779  0.00059  0.086006  0.084802  0.000296  1.019238  0.0
H  H17  1  0.49229403  0.63068453  0.34644892  1  0.041557  0.000255  0.087347  0.086349  0.000102  0.975941  0.0
H  H18  1  0.50126694  0.71536778  0.26399298  1  0.020105  9.4e-05  0.082413  0.075727  -0.00024  1.008663  0.0
H  H19  1  0.12485319  0.60709812  0.20906344  1  0.031588  0.003724  0.084975  0.073515  0.004717  1.022713  0.0
H  H20  1  0.12722934  0.54425230  0.30709741  1  -0.002789  0.000151  0.088808  0.083784  -0.000174  0.975286  0.0
H  H21  1  0.29940635  0.84999790  0.35916684  1  0.039233  1.1e-05  0.100169  0.075888  -0.000209  0.999483  0.0
H  H22  1  0.28263807  0.78847727  0.45787884  1  0.054051  0.000176  0.101431  0.07993  3.7e-05  0.994891  0.0
H  H23  1  0.93415487  0.71786250  0.41753122  1  0.412857  0.000263  0.302616  0.287581  -1.4e-05  0.924893  0.0
H  H24  1  0.93731196  0.75033175  0.31116408  1  0.412481  0.005341  0.289267  0.262732  0.007893  0.989682  0.001
H  H25  1  0.78409066  0.83169345  0.09103055  1  0.427734  0.003282  0.306673  0.292718  0.002682  0.943774  0.003
H  H26  1  0.86572931  0.73551602  0.98260831  1  0.43604  0.00897  0.300275  0.282008  0.007944  0.973359  0.008
H  H27  1  0.05496778  0.88469356  0.21856147  1  0.083857  0.011678  0.098408  0.067448  0.008984  1.054899  -0.001
H  H28  1  0.30964639  0.77936367  0.15872485  1  0.031008  0.00334  0.091977  0.092003  0.001613  1.014629  0.003
H  H29  1  0.32192962  0.87553793  0.08529902  1  0.043877  0.04875  0.089085  0.089028  0.037406  1.031256  0.03
H  H30  1  0.11937528  0.66470054  0.91601313  1  0.040121  -0.000397  0.088248  0.086505  -0.001275  0.99215  0.0
H  H31  1  0.10623494  0.56399487  0.98680954  1  -0.01773  0.003039  0.07822  0.062936  0.003406  1.043998  0.0
H  H32  1  0.47736243  0.64413354  0.02573919  1  0.006418  0.000546  0.083022  0.071834  -0.000309  1.004391  0.0
H  H33  1  0.48331164  0.73783146  0.94955597  1  0.033148  0.001346  0.088596  0.089896  0.00087  0.997806  0.0
H  H34  1  0.30895855  0.51812818  0.77926943  1  -0.003952  2.2e-05  0.086454  0.078284  -0.000402  0.982824  0.0
H  H35  1  0.29395461  0.42332826  0.85505945  1  -0.002538  0.006162  0.075392  0.054589  0.008644  1.031523  0.001
H  H36  1  0.66589955  0.51141298  0.90297827  1  -0.033079  0.000223  0.082911  0.072302  -0.000314  1.006156  0.0
H  H37  1  0.67450789  0.59861266  0.82105570  1  0.034759  0.00059  0.08603  0.084848  0.000296  1.019206  0.0
H  H38  1  0.50769711  0.36931241  0.65354997  1  0.041302  0.000255  0.087385  0.086383  0.000102  0.975886  0.0
H  H39  1  0.49872889  0.28462720  0.73600383  1  0.020153  9.4e-05  0.082389  0.075705  -0.000239  1.008675  0.0
H  H40  1  0.87514253  0.39289986  0.79093147  1  0.031679  0.003724  0.08496  0.073506  0.004716  1.022664  0.0
H  H41  1  0.87276496  0.45574875  0.69290075  1  -0.003158  0.000151  0.08882  0.083796  -0.000174  0.97529  0.0
H  H42  1  0.70059445  0.15000221  0.64082743  1  0.039291  1.1e-05  0.100195  0.075896  -0.000209  0.999589  0.0
H  H43  1  0.71736838  0.21152303  0.54211778  1  0.054056  0.000176  0.101465  0.079999  3.7e-05  0.994885  0.0
H  H44  1  0.06585392  0.28214309  0.58247314  1  0.412721  0.000263  0.30267  0.287678  -1.4e-05  0.924811  0.0
H  H45  1  0.06268435  0.24966431  0.68883532  1  0.41249  0.005341  0.289276  0.262744  0.007892  0.989701  0.001
C  C46  1  0.69472148  0.03557763  0.32449850  1  0.798311  0.000307  0.016249  0.039257  -3.1e-05  3.832164  0.0
C  C47  1  0.67570399  0.09304275  0.16276742  1  0.805659  0.005617  0.026189  0.059079  0.006259  3.815718  0.004
C  C48  1  0.38226980  0.11053486  0.38083616  1  0.79641  0.00161  0.017941  0.036977  0.001201  3.847813  0.0
C  C49  1  0.35808550  0.15004997  0.20829318  1  0.803726  0.007431  0.023843  0.062331  0.008404  3.814449  0.004
C  C50  1  0.95443906  0.18551608  0.86794813  1  0.281073  0.675904  -0.021016  0.038011  0.700402  3.643655  0.387
C  C51  1  0.77453793  0.21434896  0.90662139  1  -0.017288  0.008751  -0.17168  -0.207369  0.01239  4.041306  -0.011
C  C52  1  0.80255528  0.34220915  0.01681046  1  -0.015297  0.015679  -0.169719  -0.138874  0.016452  3.942597  0.012
C  C53  1  0.60373307  0.35505910  0.04413253  1  -0.036272  0.001304  -0.168554  -0.145124  0.000757  3.937669  0.0
C  C54  1  0.61497353  0.48328115  0.14984169  1  0.000481  0.003401  -0.169462  -0.13942  0.003821  3.959112  0.003
C  C55  1  0.41182564  0.49288053  0.17044435  1  0.0026  0.000969  -0.170774  -0.155052  0.00058  3.956409  0.0
C  C56  1  0.41507296  0.62316456  0.27168892  1  -0.037331  0.000326  -0.167075  -0.137076  -0.000116  3.940761  0.0
C  C57  1  0.20801458  0.62770164  0.28753648  1  -0.0304  0.00222  -0.169838  -0.179162  0.002718  3.961326  0.002
C  C58  1  0.21117940  0.76714821  0.37682390  1  0.301998  0.000228  -0.078034  0.019843  0.000572  3.915228  0.0
C  C59  1  0.30528090  0.96441961  0.67550213  1  0.798027  0.000307  0.016099  0.03909  -3.1e-05  3.831728  0.0
C  C60  1  0.32429922  0.90695648  0.83723025  1  0.805352  0.005619  0.026215  0.059217  0.006261  3.815699  0.004
C  C61  1  0.61773517  0.88947158  0.61916477  1  0.795896  0.00161  0.01803  0.037135  0.001201  3.847791  0.0
C  C62  1  0.64192374  0.84995353  0.79170753  1  0.803984  0.007432  0.023906  0.062472  0.008406  3.814517  0.004
C  C63  1  0.04555852  0.81448611  0.13205195  1  0.281268  0.675918  -0.021051  0.037919  0.700417  3.643586  0.387
C  C64  1  0.22546857  0.78565454  0.09338296  1  -0.01738  0.008758  -0.171673  -0.207343  0.01239  4.041258  -0.011
C  C65  1  0.19744569  0.65779117  0.98319342  1  -0.015351  0.015677  -0.169707  -0.138934  0.01645  3.942647  0.012
C  C66  1  0.39626970  0.64494224  0.95586954  1  -0.036277  0.001304  -0.168573  -0.14516  0.000757  3.937778  0.0
C  C67  1  0.38502651  0.51671707  0.85015999  1  0.000622  0.0034  -0.169427  -0.139305  0.003821  3.958888  0.003
C  C68  1  0.58816651  0.50711235  0.82955314  1  0.002615  0.000968  -0.170751  -0.155044  0.00058  3.956542  0.0
C  C69  1  0.58492240  0.37683249  0.72831080  1  -0.037137  0.000326  -0.167124  -0.137164  -0.000116  3.940803  0.0
C  C70  1  0.79198212  0.37229537  0.71245958  1  -0.030183  0.00222  -0.169803  -0.179125  0.002718  3.961303  0.002
C  C71  1  0.78881677  0.23285080  0.62317137  1  0.301985  0.000226  -0.078115  0.01975  0.000572  3.91535  0.0
N  N72  1  0.79483422  0.98562399  0.35144010  1  -1.35088  0.000577  -0.371733  -0.377841  -0.000484  3.197905  0.0
N  N73  1  0.76493083  0.08041593  0.09060171  1  -1.3326  0.012901  -0.372299  -0.369171  0.011705  3.244471  0.009
N  N74  1  0.27907445  0.11026074  0.44557367  1  -1.3422  0.001144  -0.371751  -0.37831  0.000682  3.208967  0.001
N  N75  1  0.23801086  0.16403864  0.15794089  1  -1.345478  0.006409  -0.381234  -0.393765  0.004528  3.202875  0.003
N  N76  1  0.09312013  0.18140361  0.94064630  1  -1.169093  0.112181  -0.601021  -0.547858  0.096499  3.472893  0.054
N  N77  1  0.01447674  0.78099772  0.38744465  1  -1.108055  0.003442  -0.621739  -0.564971  0.003856  3.359508  0.003
N  N78  1  0.20515349  0.01437789  0.64855604  1  -1.350648  0.000578  -0.371607  -0.377729  -0.000484  3.197319  0.0
N  N79  1  0.23507024  0.91957514  0.90939603  1  -1.332445  0.0129  -0.372307  -0.369279  0.011704  3.244501  0.009
N  N80  1  0.72092632  0.88974560  0.55442716  1  -1.341669  0.001144  -0.371826  -0.378421  0.000682  3.209025  0.001
N  N81  1  0.76199743  0.83596585  0.84206015  1  -1.345719  0.00641  -0.381252  -0.393864  0.004528  3.203074  0.003
N  N82  1  0.90687888  0.81859552  0.05935126  1  -1.169152  0.11219  -0.601031  -0.547873  0.096506  3.472974  0.054
N  N83  1  0.98552554  0.21900253  0.61255408  1  -1.107881  0.003443  -0.621782  -0.565063  0.003856  3.359436  0.003
