# generated using pymatgen
data_CuH20C10N8(ClO3)2
_symmetry_space_group_name_H-M   'P 1'
_cell_length_a   6.49374833
_cell_length_b   7.28295177
_cell_length_c   9.34812614
_cell_angle_alpha   74.03339996
_cell_angle_beta   91.27657502
_cell_angle_gamma   86.49196362
_symmetry_Int_Tables_number   1
_chemical_formula_structural   CuH20C10N8(ClO3)2
_chemical_formula_sum   'Cu1 H20 C10 N8 Cl2 O6'
_cell_volume   423.90260028
_cell_formula_units_Z   1
loop_
 _symmetry_equiv_pos_site_id
 _symmetry_equiv_pos_as_xyz
  1  'x, y, z'
loop_
 _atom_site_type_symbol
 _atom_site_label
 _atom_site_symmetry_multiplicity
 _atom_site_fract_x
 _atom_site_fract_y
 _atom_site_fract_z
 _atom_site_occupancy
 _atom_site_hle17_ddec_charge
 _atom_site_hle17_ddec_spin_density
 _atom_site_hle17_ddec_sum_bond_order
 _atom_site_hle17_magmom
 _atom_site_hse06_10hf_ddec_charge
 _atom_site_hse06_10hf_ddec_spin_density
 _atom_site_hse06_10hf_ddec_sum_bond_order
 _atom_site_hse06_10hf_magmom
 _atom_site_hse06_ddec_charge
 _atom_site_hse06_ddec_spin_density
 _atom_site_hse06_ddec_sum_bond_order
 _atom_site_hse06_magmom
 _atom_site_pbe_cm5_charge
 _atom_site_pbe_ddec_charge
 _atom_site_pbe_ddec_spin_density
 _atom_site_pbe_ddec_sum_bond_order
 _atom_site_pbe_magmom
Cu  Cu0  1  0.99999888  0.49999899  0.99999883  1  0.770304  -0.646736  1.903362  -0.476  0.757744  -0.748388  2.287394  -0.597  0.844683  -0.81453  2.2235  -0.683  0.647977  0.708512  -0.705472  2.328833  -0.546
H  H1  1  0.78312485  0.10047301  0.01409062  1  0.148175  0.000106  0.947455  0.0  0.15195  7.7e-05  1.010557  0.0  0.155444  5e-05  1.006031  0.0  0.155224  0.149832  8.7e-05  1.013611  0.0
H  H2  1  0.21686257  0.89952487  0.98590783  1  0.14822  0.000107  0.947504  0.0  0.151949  7.6e-05  1.010644  0.0  0.155445  5e-05  1.006119  0.0  0.155233  0.149833  8.7e-05  1.013703  0.0
H  H3  1  0.61377324  0.60616613  0.20194221  1  0.062309  -0.000608  0.969722  0.0  0.069649  -0.000601  1.046243  0.0  0.071517  -0.000427  1.045108  0.0  0.088014  0.068367  -0.000771  1.047281  0.0
H  H4  1  0.38622794  0.39383322  0.79805709  1  0.062315  -0.00061  0.969721  0.0  0.06965  -0.000601  1.046252  0.0  0.071518  -0.000427  1.045117  0.0  0.088007  0.068367  -0.000771  1.047289  0.0
H  H5  1  0.59948352  0.82756229  0.06223527  1  0.068535  7.1e-05  0.964986  0.0  0.07799  3.9e-05  1.036799  0.0  0.079339  4.5e-05  1.035573  0.0  0.101362  0.076859  4.8e-05  1.038427  0.0
H  H6  1  0.40051913  0.17243850  0.93776587  1  0.068541  6.9e-05  0.96495  0.0  0.077992  4e-05  1.036772  0.0  0.079342  4.5e-05  1.035544  0.0  0.101347  0.076858  4.8e-05  1.038399  0.0
H  H7  1  0.96825730  0.68749303  0.23634243  1  0.37389  5.3e-05  0.878547  0.0  0.353467  5.2e-05  0.94824  0.0  0.363104  4.5e-05  0.937537  0.0  0.303785  0.346755  5.5e-05  0.955763  0.0
H  H8  1  0.03174523  0.31250919  0.76365841  1  0.373904  5.5e-05  0.878522  0.0  0.353473  5.2e-05  0.948228  0.0  0.363113  4.5e-05  0.937521  0.0  0.303782  0.346765  5.5e-05  0.955756  0.0
H  H9  1  0.33186687  0.73259416  0.31740833  1  0.07381  3.9e-05  0.926308  0.0  0.089905  -2e-06  0.986398  0.0  0.090323  7e-06  0.986387  0.0  0.102851  0.089585  -2.6e-05  0.986553  0.0
H  H10  1  0.66812972  0.26740518  0.68259201  1  0.073773  3.8e-05  0.926378  0.0  0.089874  -2e-06  0.986478  0.0  0.090315  7e-06  0.986444  0.0  0.102848  0.089548  -2.6e-05  0.98665  0.0
H  H11  1  0.35690399  0.92720680  0.39534806  1  0.055267  -1.1e-05  0.978863  0.0  0.057048  -1.5e-05  1.064558  0.0  0.058672  1e-06  1.062335  0.0  0.096789  0.056424  -4.7e-05  1.065157  0.0
H  H12  1  0.64309708  0.07279399  0.60465093  1  0.05527  -1.3e-05  0.978867  0.0  0.057054  -1.5e-05  1.064562  0.0  0.058677  1e-06  1.062344  0.0  0.096789  0.056434  -4.7e-05  1.06516  0.0
H  H13  1  0.29027164  0.13021671  0.17037847  1  0.343371  0.000637  0.938865  0.0  0.318617  0.000272  1.022066  0.0  0.328889  0.000243  1.010491  0.0  0.26448  0.31126  0.00028  1.030359  0.0
H  H14  1  0.70972935  0.86978551  0.82962235  1  0.343323  0.000637  0.938945  0.0  0.31857  0.000273  1.02215  0.0  0.32884  0.000243  1.010578  0.0  0.264455  0.311214  0.00028  1.030442  0.0
H  H15  1  0.67636238  0.79922965  0.52788241  1  0.056415  -0.000373  0.961722  0.0  0.062014  -0.000418  1.040574  0.0  0.063554  -0.000297  1.039054  0.0  0.094033  0.060843  -0.00052  1.042081  0.0
H  H16  1  0.32363719  0.20077113  0.47211872  1  0.056417  -0.000371  0.96173  0.0  0.062019  -0.000418  1.040581  0.0  0.063557  -0.000296  1.039063  0.0  0.094041  0.060847  -0.00052  1.042084  0.0
H  H17  1  0.64871010  0.59033600  0.46769929  1  0.053396  -0.000214  0.923359  0.0  0.068248  -0.000222  0.989376  0.0  0.069317  -0.000157  0.988028  0.0  0.096458  0.067355  -0.000292  0.990722  0.0
H  H18  1  0.35129112  0.40966336  0.53230215  1  0.053405  -0.000213  0.923334  0.0  0.068264  -0.000222  0.989349  0.0  0.069333  -0.000157  0.988  0.0  0.096463  0.067371  -0.000292  0.990694  0.0
H  H19  1  0.99939536  0.66837217  0.53733622  1  0.361058  0.000148  0.899029  0.0  0.330945  0.000113  0.987729  0.0  0.340373  9.4e-05  0.976171  0.0  0.302644  0.324081  0.000126  0.996253  0.0
H  H20  1  0.00060715  0.33163006  0.46266355  1  0.36109  0.000147  0.898977  0.0  0.330977  0.000113  0.987674  0.0  0.340406  9.4e-05  0.976114  0.0  0.302649  0.324114  0.000126  0.996196  0.0
C  C21  1  0.78572071  0.13959515  0.11847626  1  0.197313  0.006163  3.542582  0.003  0.131343  0.001402  3.817162  0.0  0.148613  0.002823  3.824763  0.001  0.191411  0.119174  0.000354  3.813066  -0.001
C  C22  1  0.21427407  0.86040704  0.88152131  1  0.197087  0.006146  3.542795  0.003  0.131267  0.0014  3.817185  0.0  0.148523  0.002822  3.824798  0.001  0.191433  0.119098  0.000354  3.813091  -0.001
C  C23  1  0.62963676  0.84710173  0.28853994  1  0.103491  -0.000695  3.56872  -0.001  0.100607  -0.000555  3.812853  -0.001  0.102085  -0.000409  3.829333  0.0  0.080293  0.099248  -0.00064  3.802356  -0.001
C  C24  1  0.37036444  0.15289763  0.71146043  1  0.10335  -0.000699  3.568963  -0.001  0.100736  -0.000556  3.812681  -0.001  0.102217  -0.000409  3.829153  0.0  0.080267  0.099377  -0.00064  3.802189  -0.001
C  C25  1  0.67817713  0.74733893  0.16770239  1  0.054788  -0.000531  3.631399  -0.001  -0.004908  -0.000458  3.895109  -0.001  0.000429  -0.000186  3.901896  0.0  -0.084782  -0.00901  -0.000717  3.891956  -0.001
C  C26  1  0.32182563  0.25266043  0.83229907  1  0.054791  -0.000521  3.631355  -0.001  -0.004968  -0.000458  3.895043  -0.001  0.000366  -0.000187  3.90183  0.0  -0.084777  -0.009064  -0.000717  3.891885  -0.001
C  C27  1  0.39251791  0.87479812  0.29850112  1  0.059976  -6.3e-05  3.643565  0.0  -0.001165  -7.3e-05  3.912822  0.0  0.005092  -3.4e-05  3.918414  0.0  -0.075532  -0.005424  -8.6e-05  3.90845  0.0
C  C28  1  0.60748177  0.12520123  0.70150031  1  0.060059  -5.6e-05  3.643723  0.0  -0.001165  -7.3e-05  3.912969  0.0  0.005075  -3.6e-05  3.91856  0.0  -0.075498  -0.005429  -8.6e-05  3.908614  0.0
C  C29  1  0.71942675  0.72935404  0.44156188  1  0.071423  -0.000575  3.650118  0.0  0.006681  -0.00065  3.923525  -0.001  0.012801  -0.000438  3.928516  0.0  -0.073516  0.002261  -0.000825  3.921172  -0.001
C  C30  1  0.28057446  0.27064531  0.55843849  1  0.071447  -0.000584  3.650094  0.0  0.006637  -0.000651  3.923454  -0.001  0.012756  -0.000437  3.928446  0.0  -0.073532  0.002214  -0.000825  3.921104  -0.001
N  N31  1  0.71918807  0.03556202  0.24920454  1  -0.003862  -0.002465  3.478386  -0.003  0.079352  -0.0016  3.69801  -0.002  0.066715  -0.001382  3.719737  -0.002  -0.105596  0.088504  -0.001743  3.682791  -0.002
N  N32  1  0.28081005  0.96443732  0.75079581  1  -0.003844  -0.002456  3.47842  -0.003  0.079269  -0.0016  3.697984  -0.002  0.066636  -0.001381  3.719712  -0.002  -0.105625  0.088423  -0.001742  3.682768  -0.002
N  N33  1  0.75134417  0.12875660  0.35334339  1  -0.06346  -0.003682  2.878625  -0.005  -0.062704  -0.003034  3.16066  -0.004  -0.060657  -0.001783  3.169073  -0.003  -0.054314  -0.063955  -0.004098  3.154224  -0.005
N  N34  1  0.24865854  0.87124277  0.64665486  1  -0.0634  -0.003676  2.878501  -0.005  -0.062662  -0.00303  3.160572  -0.004  -0.060615  -0.001783  3.168986  -0.003  -0.054289  -0.06391  -0.004098  3.154135  -0.005
N  N35  1  0.83611663  0.28495344  0.28845067  1  -0.053943  0.002392  2.975401  0.002  -0.037527  -0.000241  3.269791  0.0  -0.034337  0.000587  3.279677  0.001  -0.06312  -0.039162  -0.000869  3.263719  -0.001
N  N36  1  0.16388595  0.71504735  0.71154620  1  -0.053968  0.002378  2.975216  0.002  -0.037538  -0.00024  3.269629  0.0  -0.034346  0.000588  3.279513  0.001  -0.063125  -0.039171  -0.000869  3.263561  -0.001
N  N37  1  0.85842806  0.29577617  0.14213524  1  -0.243503  -0.059885  3.278628  -0.077  -0.206168  -0.045975  3.597841  -0.062  -0.235611  -0.038203  3.61701  -0.055  -0.247399  -0.189347  -0.049963  3.587769  -0.064
N  N38  1  0.14156693  0.70422316  0.85786188  1  -0.243322  -0.059876  3.278381  -0.077  -0.206065  -0.045975  3.597591  -0.062  -0.235505  -0.038202  3.616763  -0.055  -0.247403  -0.189249  -0.04996  3.587526  -0.064
Cl  Cl39  1  0.29004863  0.42032507  0.16341274  1  -0.504988  -0.118679  0.92711  -0.146  -0.505517  -0.075044  1.200506  -0.099  -0.538497  -0.055016  1.183667  -0.079  -0.280061  -0.484383  -0.088146  1.213477  -0.109
Cl  Cl40  1  0.70994621  0.57967713  0.83658804  1  -0.505007  -0.118682  0.927146  -0.146  -0.505523  -0.075046  1.200519  -0.099  -0.538506  -0.055017  1.183685  -0.079  -0.28007  -0.484383  -0.088143  1.213488  -0.109
O  O41  1  0.89288001  0.73177325  0.13922740  1  -0.542867  0.001199  2.129969  0.0  -0.505007  0.000976  2.382954  0.0  -0.523822  0.001465  2.371499  0.0  -0.408037  -0.492497  0.000487  2.391969  -0.001
O  O42  1  0.10712111  0.26822754  0.86077480  1  -0.542869  0.001196  2.129935  0.0  -0.505003  0.000977  2.382931  0.0  -0.52382  0.001464  2.371477  0.0  -0.408021  -0.492492  0.000487  2.391953  -0.001
O  O43  1  0.29475569  0.99508160  0.16614448  1  -0.514797  0.000301  2.124781  0.0  -0.464173  0.000153  2.353006  0.0  -0.480918  0.00021  2.343087  0.0  -0.404292  -0.452288  7.7e-05  2.359331  0.0
O  O44  1  0.70524540  0.00491919  0.83385559  1  -0.514707  0.0003  2.124808  0.0  -0.464092  0.000153  2.353053  0.0  -0.480836  0.000211  2.343135  0.0  -0.404254  -0.452209  7.7e-05  2.359389  0.0
O  O45  1  0.93800821  0.70473827  0.43543028  1  -0.540983  4.4e-05  2.118313  0.0  -0.489546  -2e-06  2.349278  0.0  -0.504794  2.5e-05  2.338191  0.0  -0.404709  -0.478775  -3.7e-05  2.357564  0.0
O  O46  1  0.06199267  0.29526538  0.56457024  1  -0.540994  4.7e-05  2.118209  0.0  -0.489556  -1e-06  2.349183  0.0  -0.504805  2.5e-05  2.3381  0.0  -0.404686  -0.47878  -3.7e-05  2.357469  0.0
