# generated using pymatgen
data_VCuPH12C17N2O7
_symmetry_space_group_name_H-M   'P 1'
_cell_length_a   9.51968023
_cell_length_b   9.54343926
_cell_length_c   10.85629449
_cell_angle_alpha   111.47920378
_cell_angle_beta   95.85771254
_cell_angle_gamma   110.63154101
_symmetry_Int_Tables_number   1
_chemical_formula_structural   VCuPH12C17N2O7
_chemical_formula_sum   'V2 Cu2 P2 H24 C34 N4 O14'
_cell_volume   828.14986787
_cell_formula_units_Z   2
loop_
 _symmetry_equiv_pos_site_id
 _symmetry_equiv_pos_as_xyz
  1  'x, y, z'
loop_
 _atom_site_type_symbol
 _atom_site_label
 _atom_site_symmetry_multiplicity
 _atom_site_fract_x
 _atom_site_fract_y
 _atom_site_fract_z
 _atom_site_occupancy
 _atom_site_hle17_ddec_charge
 _atom_site_hle17_ddec_spin_density
 _atom_site_hle17_ddec_sum_bond_order
 _atom_site_hle17_magmom
 _atom_site_hse06_10hf_ddec_charge
 _atom_site_hse06_10hf_ddec_spin_density
 _atom_site_hse06_10hf_ddec_sum_bond_order
 _atom_site_hse06_10hf_magmom
 _atom_site_hse06_ddec_charge
 _atom_site_hse06_ddec_spin_density
 _atom_site_hse06_ddec_sum_bond_order
 _atom_site_hse06_magmom
 _atom_site_pbe_cm5_charge
 _atom_site_pbe_ddec_charge
 _atom_site_pbe_ddec_spin_density
 _atom_site_pbe_ddec_sum_bond_order
 _atom_site_pbe_magmom
V  V0  1  0.84694687  0.46424209  0.27394227  1  1.945426  0.034353  2.852238  0.042  1.996531  -0.001567  3.232344  -0.003  2.080372  0.001562  3.225155  0.002  1.486889  1.934592  -0.004579  3.245435  -0.007
V  V1  1  0.15305209  0.53575376  0.72605128  1  1.945494  -0.034373  2.852152  -0.042  1.996634  0.001558  3.23217  0.003  2.080433  -0.001552  3.225066  -0.002  1.486866  1.934685  0.004578  3.245282  0.007
Cu  Cu2  1  0.60907747  0.13081592  0.24919272  1  0.898724  -0.753957  1.874709  -0.518  0.881455  -0.81653  2.281307  -0.627  0.966626  -0.892455  2.211245  -0.712  0.75683  0.831171  -0.759355  2.328337  -0.568
Cu  Cu3  1  0.39092186  0.86918611  0.75080657  1  0.898724  0.753971  1.874778  0.518  0.881413  0.816537  2.281391  0.627  0.966577  0.892453  2.211351  0.712  0.756801  0.831113  0.759352  2.328401  0.568
P  P4  1  0.00614893  0.29994946  0.40006872  1  1.466051  0.000107  4.859831  0.0  1.327332  -4.7e-05  5.35797  0.0  1.385128  2.6e-05  5.310177  0.0  0.338405  1.287264  -0.000107  5.388511  0.0
P  P5  1  0.99385355  0.70005258  0.59992808  1  1.466154  -0.00011  4.859764  0.0  1.327443  3.6e-05  5.357889  0.0  1.38524  -2.6e-05  5.310094  0.0  0.338464  1.287375  0.000107  5.388435  0.0
H  H6  1  0.26652256  0.37422357  0.28414118  1  0.083351  1.7e-05  0.980884  0.0  0.095701  3.9e-05  1.045082  0.0  0.097848  3.2e-05  1.04473  0.0  0.101992  0.094105  4.6e-05  1.045289  0.0
H  H7  1  0.73347994  0.62577843  0.71586206  1  0.083352  -2.7e-05  0.980947  0.0  0.0957  -3.9e-05  1.04516  0.0  0.097847  -3.2e-05  1.044808  0.0  0.101974  0.094092  -4.6e-05  1.045382  0.0
H  H8  1  0.35371321  0.20030597  0.10615865  1  0.098126  0.000358  0.969583  0.0  0.109124  0.000258  1.033057  0.0  0.113364  0.000204  1.028605  0.0  0.101593  0.105933  0.000323  1.036104  0.0
H  H9  1  0.64628992  0.79969229  0.89384433  1  0.098105  -0.000347  0.969602  0.0  0.109116  -0.000258  1.033065  0.0  0.113357  -0.000203  1.028613  0.0  0.101595  0.105926  -0.000323  1.036108  0.0
H  H10  1  0.98055043  0.76010251  0.07401908  1  0.110556  -1.1e-05  0.949656  0.0  0.122825  -9e-06  1.006873  0.0  0.126357  -4e-06  1.004143  0.0  0.10653  0.119928  -2.7e-05  1.009167  0.0
H  H11  1  0.01944798  0.23989455  0.92597942  1  0.110613  -6e-06  0.949678  0.0  0.122884  1e-05  1.006882  0.0  0.126416  4e-06  1.004152  0.0  0.106547  0.119989  2.7e-05  1.009174  0.0
H  H12  1  0.89329479  0.93511975  0.25227789  1  0.098368  0.000163  0.9459  0.0  0.110913  0.000136  1.002795  0.0  0.113612  8.6e-05  1.001727  0.0  0.105445  0.108802  0.00017  1.003855  0.0
H  H13  1  0.10670517  0.06487855  0.74772023  1  0.098353  -0.000156  0.945956  0.0  0.110888  -0.000136  1.002861  0.0  0.113586  -8.7e-05  1.001797  0.0  0.105431  0.108777  -0.00017  1.003922  0.0
H  H14  1  0.63424869  0.43301688  0.48901798  1  0.097948  -0.00185  0.955943  -0.003  0.103105  -0.001392  1.022571  -0.002  0.105058  -0.000979  1.020583  -0.002  0.12319  0.101004  -0.001714  1.025162  -0.003
H  H15  1  0.36574487  0.56698394  0.51097858  1  0.09796  0.001852  0.955858  0.003  0.103116  0.001393  1.022491  0.002  0.105069  0.000978  1.020503  0.002  0.123183  0.10101  0.001715  1.02509  0.003
H  H16  1  0.47899391  0.48224567  0.66475828  1  0.114701  -0.000432  0.960182  -0.001  0.127104  -0.000391  1.016674  -0.001  0.129859  -0.000274  1.016352  0.0  0.111448  0.124862  -0.000492  1.01753  -0.001
H  H17  1  0.52100331  0.51775637  0.33524082  1  0.114669  0.000427  0.960283  0.001  0.127079  0.000393  1.016765  0.001  0.129838  0.000274  1.016444  0.0  0.111429  0.124838  0.000492  1.017622  0.001
H  H18  1  0.26562799  0.23852278  0.66336392  1  0.102118  -0.000377  0.942067  -0.001  0.112876  -2e-06  1.001925  0.0  0.115338  2.1e-05  0.999375  0.0  0.114113  0.111024  -5.9e-05  1.003904  0.0
H  H19  1  0.73437085  0.76147800  0.33663675  1  0.102064  0.00037  0.942082  0.001  0.112796  3e-06  1.001984  0.0  0.115258  -2.1e-05  0.999429  0.0  0.114093  0.110945  5.9e-05  1.00396  0.0
H  H20  1  0.21544039  0.95286333  0.49517597  1  0.137148  -0.000823  0.961636  -0.001  0.14807  -0.000672  1.01559  -0.001  0.151236  -0.00045  1.014312  -0.001  0.115003  0.145666  -0.000856  1.016513  -0.001
H  H21  1  0.78455585  0.04713622  0.50482408  1  0.137088  0.000818  0.961717  0.001  0.148055  0.000673  1.01561  0.001  0.151222  0.00045  1.01433  0.001  0.114997  0.145653  0.000856  1.016534  0.001
H  H22  1  0.18074736  0.72402222  0.33656090  1  0.127602  -0.000836  0.949059  -0.001  0.132139  -0.000698  1.016228  -0.001  0.13533  -0.000468  1.014379  -0.001  0.11818  0.129557  -0.000857  1.017959  -0.001
H  H23  1  0.81924677  0.27597734  0.66343897  1  0.127592  0.000834  0.949  0.001  0.132093  0.000698  1.016223  0.001  0.135281  0.000467  1.014381  0.001  0.118165  0.129513  0.000856  1.017951  0.001
H  H24  1  0.15569192  0.46860641  0.14232876  1  0.109773  -0.000353  0.946257  -0.001  0.117743  -2.5e-05  1.009285  0.0  0.120606  8e-06  1.006786  0.0  0.115638  0.115467  -7.2e-05  1.011374  0.0
H  H25  1  0.84430910  0.53139186  0.85767404  1  0.109766  0.000354  0.946231  0.001  0.117766  2.5e-05  1.009233  0.0  0.120629  -9e-06  1.006736  0.0  0.115627  0.11549  7.2e-05  1.011324  0.0
H  H26  1  0.34444334  0.49331030  0.99535178  1  0.111337  -0.000431  0.942467  0.0  0.124469  -0.00044  0.994905  0.0  0.127222  -0.000318  0.994438  0.0  0.11377  0.12255  -0.00052  0.995205  -0.001
H  H27  1  0.65555986  0.50668547  0.00465132  1  0.111323  0.000438  0.942478  0.0  0.124447  0.000441  0.994926  0.0  0.127199  0.000318  0.994458  0.0  0.113745  0.122527  0.00052  0.995226  0.001
H  H28  1  0.54507640  0.77838510  0.04882587  1  0.090932  -0.001598  0.952162  -0.003  0.100824  -0.001142  1.012192  -0.002  0.102927  -0.000758  1.009641  -0.002  0.122132  0.099078  -0.001483  1.014225  -0.003
H  H29  1  0.45492567  0.22161317  0.95117703  1  0.090988  0.001599  0.952199  0.003  0.100866  0.001142  1.012236  0.002  0.102968  0.000758  1.009687  0.002  0.122146  0.099119  0.001483  1.01427  0.003
C  C30  1  0.07376499  0.16655696  0.27959116  1  -0.211019  -0.002354  3.734949  -0.002  -0.171153  -0.000619  3.966561  -0.001  -0.179686  -0.000591  3.987686  -0.001  -0.018397  -0.165899  -0.000643  3.953759  -0.001
C  C31  1  0.92623553  0.83344008  0.72040936  1  -0.210962  0.002344  3.734753  0.002  -0.171093  0.000622  3.966362  0.001  -0.179625  0.000596  3.987487  0.001  -0.018369  -0.165841  0.000643  3.953562  0.001
C  C32  1  0.20464505  0.23965121  0.23866705  1  -0.041845  0.001679  3.746579  0.002  -0.06482  0.000317  3.993985  0.0  -0.065751  0.00038  4.016113  0.0  -0.084899  -0.064273  0.000262  3.979621  0.0
C  C33  1  0.79535802  0.76034953  0.76133766  1  -0.041946  -0.001635  3.746723  -0.002  -0.064948  -0.00032  3.994153  0.0  -0.065882  -0.000384  4.016284  0.0  -0.084978  -0.064392  -0.000262  3.979797  0.0
C  C34  1  0.25211378  0.14249817  0.13739931  1  -0.073551  -0.002205  3.730967  -0.003  -0.101758  -0.000175  3.989146  -0.001  -0.101267  -0.000233  4.007108  -0.001  -0.087119  -0.102278  -0.000167  3.977049  -0.001
C  C35  1  0.74788823  0.85750260  0.86260256  1  -0.07346  0.002165  3.731101  0.003  -0.101679  0.000175  3.989277  0.001  -0.101182  0.000238  4.007239  0.001  -0.087089  -0.102192  0.000167  3.977171  0.001
C  C36  1  0.16890687  0.96919777  0.07404138  1  -0.064544  0.0112  3.740601  0.012  -0.042406  0.005617  3.973256  0.006  -0.051352  0.004097  3.996431  0.005  -0.01708  -0.036955  0.006964  3.957946  0.008
C  C37  1  0.83109513  0.03080302  0.92595681  1  -0.064579  -0.011226  3.740676  -0.012  -0.042431  -0.005616  3.973331  -0.006  -0.05138  -0.004106  3.996514  -0.005  -0.017092  -0.036975  -0.006964  3.958021  -0.008
C  C38  1  0.21231947  0.86889756  0.95508328  1  0.662201  -0.00273  3.848585  -0.006  0.621014  0.000956  4.144881  -0.001  0.661305  0.000355  4.135677  -0.001  0.222469  0.593612  0.001461  4.150679  -0.001
C  C39  1  0.78768512  0.13110446  0.04491553  1  0.662171  0.002729  3.848581  0.006  0.620973  -0.000948  4.144891  0.001  0.66126  -0.000347  4.135688  0.001  0.222451  0.593559  -0.00146  4.150698  0.001
C  C40  1  0.04211113  0.89472384  0.11867360  1  -0.054108  -0.001116  3.683608  -0.001  -0.078896  0.000341  3.931478  0.001  -0.078067  2.8e-05  3.950954  0.0  -0.078303  -0.078824  0.000625  3.918262  0.001
C  C41  1  0.95789192  0.10527695  0.88132467  1  -0.05418  0.001206  3.683592  0.001  -0.078986  -0.000341  3.931472  -0.001  -0.078157  -2e-05  3.950947  0.0  -0.078303  -0.078911  -0.000625  3.918254  -0.001
C  C42  1  0.99462071  0.99306134  0.22049733  1  -0.037125  0.002162  3.722158  0.002  -0.057853  0.000592  3.966726  0.001  -0.059367  0.000512  3.988501  0.001  -0.078254  -0.057655  0.000714  3.952938  0.001
C  C43  1  0.00538030  0.00693696  0.77949996  1  -0.037081  -0.002213  3.72205  -0.002  -0.057793  -0.000594  3.966607  -0.001  -0.059309  -0.000518  3.988386  -0.001  -0.078216  -0.057596  -0.000714  3.952823  -0.001
C  C44  1  0.53902044  0.33179161  0.49393301  1  0.134542  0.008929  3.664193  0.01  0.108024  0.000904  3.919606  0.002  0.117293  0.002052  3.93897  0.004  0.053737  0.10133  -1.1e-05  3.908884  0.001
C  C45  1  0.46097621  0.66821168  0.50606645  1  0.134475  -0.008967  3.664165  -0.01  0.107953  -0.000913  3.919613  -0.002  0.117225  -0.002043  3.938984  -0.004  0.053721  0.10126  1.2e-05  3.908888  -0.001
C  C46  1  0.45442104  0.35721771  0.59088837  1  -0.117732  -0.011978  3.707639  -0.012  -0.132047  -0.004544  3.958858  -0.005  -0.139624  -0.004001  3.979691  -0.005  -0.077268  -0.126121  -0.004953  3.945204  -0.006
C  C47  1  0.54557513  0.64278434  0.40911064  1  -0.117707  0.012026  3.707699  0.012  -0.132044  0.004551  3.958885  0.005  -0.139625  0.003991  3.979721  0.005  -0.077249  -0.12612  0.004953  3.945232  0.006
C  C48  1  0.33490447  0.22039677  0.58992200  1  0.031547  0.010255  3.675015  0.009  0.009334  0.002924  3.930029  0.003  0.015179  0.003107  3.945819  0.003  -0.055894  0.004978  0.002785  3.919213  0.003
C  C49  1  0.66509325  0.77960650  0.41007847  1  0.031579  -0.010272  3.674995  -0.009  0.009391  -0.002926  3.930024  -0.003  0.015239  -0.003102  3.945808  -0.003  -0.055877  0.005036  -0.002784  3.919206  -0.003
C  C50  1  0.30390309  0.06169686  0.49362444  1  -0.123474  -0.008944  3.634726  -0.009  -0.14305  -0.003146  3.880827  -0.003  -0.150738  -0.002815  3.901329  -0.003  -0.071368  -0.136894  -0.003507  3.867057  -0.004
C  C51  1  0.69609413  0.93830518  0.50637467  1  -0.123357  0.009015  3.634776  0.009  -0.142961  0.003139  3.880819  0.003  -0.150645  0.002813  3.901321  0.003  -0.071356  -0.136805  0.003506  3.867051  0.004
C  C52  1  0.39211626  0.04469973  0.39844268  1  0.171724  0.004488  3.765255  0.005  0.167881  -0.000501  4.011584  0.0  0.175648  0.000655  4.034013  0.002  0.120377  0.162413  -0.001393  3.997703  -0.001
C  C53  1  0.60787990  0.95530231  0.60155725  1  0.171577  -0.004569  3.765307  -0.005  0.167754  0.000505  4.011629  0.0  0.175523  -0.000654  4.034061  -0.002  0.120365  0.162282  0.001393  3.99775  0.001
C  C54  1  0.37133321  0.88497662  0.29145798  1  0.161478  0.003267  3.779751  0.003  0.159227  -0.000672  4.025557  0.0  0.166242  0.000416  4.0485  0.001  0.117844  0.15428  -0.001555  4.011036  -0.001
C  C55  1  0.62866302  0.11502293  0.70854207  1  0.161498  -0.003207  3.779847  -0.003  0.159244  0.00068  4.025625  0.0  0.166264  -0.000425  4.048565  -0.001  0.117861  0.154298  0.001554  4.011106  0.001
C  C56  1  0.25863317  0.73141250  0.27023109  1  -0.110155  -0.00704  3.648605  -0.007  -0.129227  -0.002523  3.897096  -0.003  -0.13564  -0.002297  3.917152  -0.002  -0.064404  -0.125663  -0.002899  3.88412  -0.003
C  C57  1  0.74136461  0.26858829  0.72976950  1  -0.110064  0.006997  3.648442  0.007  -0.129106  0.002514  3.896958  0.003  -0.135517  0.002308  3.917012  0.002  -0.064368  -0.125541  0.002899  3.883986  0.003
C  C58  1  0.24685607  0.58839246  0.16246328  1  0.019335  0.009054  3.659336  0.008  0.000347  0.002782  3.908489  0.003  0.005314  0.002913  3.924276  0.003  -0.052268  -0.002397  0.002755  3.897772  0.003
C  C59  1  0.75314340  0.41160457  0.83753899  1  0.019172  -0.009021  3.659452  -0.008  0.00014  -0.00278  3.908643  -0.003  0.005105  -0.00292  3.92443  -0.003  -0.052394  -0.002602  -0.002755  3.897926  -0.003
C  C60  1  0.35144629  0.60168689  0.08190183  1  -0.100931  -0.011057  3.698967  -0.012  -0.113874  -0.004534  3.946466  -0.006  -0.120858  -0.003866  3.966567  -0.005  -0.071731  -0.109929  -0.005109  3.933007  -0.006
C  C61  1  0.64855740  0.39831012  0.91810263  1  -0.100843  0.010991  3.698813  0.012  -0.113763  0.004538  3.946311  0.006  -0.120744  0.003869  3.966408  0.005  -0.071609  -0.109815  0.005109  3.932847  0.006
C  C62  1  0.46228758  0.75867635  0.10953258  1  0.143475  0.007291  3.673817  0.008  0.114525  0.000544  3.931327  0.002  0.124252  0.001687  3.948981  0.003  0.055744  0.108314  -0.000249  3.919971  0.001
C  C63  1  0.53771295  0.24132068  0.89046978  1  0.143442  -0.007251  3.673887  -0.008  0.114483  -0.000552  3.931406  -0.002  0.124209  -0.001686  3.949061  -0.003  0.055736  0.108274  0.000249  3.920048  -0.001
N  N64  1  0.50647821  0.17916828  0.39932218  1  -0.320294  -0.097846  3.330624  -0.117  -0.277366  -0.064847  3.620665  -0.084  -0.30993  -0.053295  3.643947  -0.073  -0.345664  -0.258528  -0.071274  3.607609  -0.089
N  N65  1  0.49351696  0.82083130  0.60067410  1  -0.320151  0.097879  3.330613  0.117  -0.277235  0.064848  3.620613  0.084  -0.30981  0.053288  3.643919  0.073  -0.345641  -0.258391  0.071273  3.607547  0.089
N  N66  1  0.47045771  0.89654670  0.21052841  1  -0.332455  -0.087288  3.315239  -0.105  -0.294228  -0.05954  3.615148  -0.078  -0.324599  -0.048851  3.635971  -0.068  -0.342202  -0.275688  -0.065977  3.602868  -0.083
N  N67  1  0.52954063  0.10345284  0.78947182  1  -0.33245  0.087233  3.315527  0.105  -0.294189  0.059536  3.615406  0.078  -0.324561  0.048851  3.63624  0.068  -0.342187  -0.275643  0.065972  3.603118  0.083
O  O68  1  0.02317051  0.44054650  0.35210003  1  -0.847165  -0.002189  2.007561  -0.003  -0.806513  -0.001314  2.291834  -0.002  -0.838035  -0.00087  2.278548  -0.001  -0.425101  -0.782174  -0.001529  2.299771  -0.002
O  O69  1  0.97683149  0.55945428  0.64789999  1  -0.847238  0.002183  2.007463  0.003  -0.806595  0.001315  2.291731  0.002  -0.838102  0.000872  2.278435  0.001  -0.425143  -0.782256  0.001529  2.299669  0.002
O  O70  1  0.12979816  0.38138784  0.53947775  1  -0.857925  -0.000507  2.036456  0.0  -0.81129  -0.000147  2.313716  0.0  -0.843978  -0.000145  2.302022  0.0  -0.421163  -0.786187  -0.000143  2.320645  0.0
O  O71  1  0.87019962  0.61861294  0.46052376  1  -0.857955  0.000505  2.036479  0.0  -0.811314  0.00015  2.313726  0.0  -0.84401  0.000144  2.302022  0.0  -0.421144  -0.786216  0.000143  2.320656  0.0
O  O72  1  0.84079643  0.20223028  0.39722882  1  -0.860932  0.001264  1.966163  0.0  -0.814686  0.000535  2.254236  0.0  -0.842501  0.000762  2.229719  0.0  -0.378464  -0.794594  0.000248  2.269935  -0.001
O  O73  1  0.15920297  0.79776926  0.60277057  1  -0.860998  -0.00125  1.966227  0.0  -0.814718  -0.00053  2.254255  0.0  -0.842534  -0.000762  2.229736  0.0  -0.378507  -0.794626  -0.000249  2.26995  0.001
O  O74  1  0.32013047  0.95136485  0.91516353  1  -0.586097  0.083338  2.134293  0.106  -0.562722  0.051434  2.431148  0.073  -0.604275  0.039357  2.421583  0.058  -0.309643  -0.534521  0.059529  2.438035  0.081
O  O75  1  0.67987364  0.04863592  0.08483668  1  -0.58607  -0.083344  2.134252  -0.106  -0.562666  -0.05144  2.43104  -0.073  -0.60425  -0.039363  2.421542  -0.058  -0.309603  -0.534488  -0.059531  2.437992  -0.081
O  O76  1  0.13732862  0.71133798  0.90081030  1  -0.646597  0.000847  2.09696  0.002  -0.616995  2.3e-05  2.354299  0.001  -0.649284  -0.000436  2.353501  0.0  -0.332966  -0.594837  0.000532  2.355589  0.001
O  O77  1  0.86267492  0.28866405  0.09918751  1  -0.646588  -0.000845  2.097009  -0.002  -0.616983  -2.6e-05  2.354361  -0.001  -0.64927  0.000434  2.353554  0.0  -0.332988  -0.594828  -0.000532  2.355673  -0.001
O  O78  1  0.87228400  0.59444011  0.20681501  1  -0.703973  -0.017785  1.256281  -0.021  -0.715477  -0.005443  1.493654  -0.006  -0.7395  -0.003773  1.489471  -0.005  -0.57856  -0.697137  -0.007914  1.497176  -0.009
O  O79  1  0.12772481  0.40556190  0.79318417  1  -0.704055  0.017818  1.256305  0.021  -0.715529  0.005447  1.493641  0.006  -0.73954  0.003764  1.489466  0.005  -0.578562  -0.697192  0.007915  1.497169  0.009
O  O80  1  0.65479117  0.34453042  0.24036860  1  -0.826499  -0.09286  1.547921  -0.114  -0.856185  -0.047369  1.873685  -0.063  -0.90162  -0.037765  1.865726  -0.053  -0.610572  -0.825339  -0.053921  1.880579  -0.068
O  O81  1  0.34521343  0.65547161  0.75962930  1  -0.826516  0.092858  1.547815  0.114  -0.85622  0.047377  1.873594  0.063  -0.901641  0.037772  1.865626  0.053  -0.610534  -0.825366  0.053931  1.880477  0.068
