# generated using pymatgen
data_CdH22C40(NO2)4
_symmetry_space_group_name_H-M   'P 1'
_cell_length_a   12.88679049
_cell_length_b   12.88677158
_cell_length_c   29.65288916
_cell_angle_alpha   90.00038931
_cell_angle_beta   89.99946060
_cell_angle_gamma   102.94126903
_symmetry_Int_Tables_number   1
_chemical_formula_structural   CdH22C40(NO2)4
_chemical_formula_sum   'Cd4 H88 C160 N16 O32'
_cell_volume   4799.34954509
_cell_formula_units_Z   4
loop_
 _symmetry_equiv_pos_site_id
 _symmetry_equiv_pos_as_xyz
  1  'x, y, z'
loop_
 _atom_site_type_symbol
 _atom_site_label
 _atom_site_symmetry_multiplicity
 _atom_site_fract_x
 _atom_site_fract_y
 _atom_site_fract_z
 _atom_site_occupancy
 _atom_site_pbe_bader_charge
 _atom_site_pbe_bader_spin_density
 _atom_site_pbe_cm5_charge
 _atom_site_pbe_ddec_charge
 _atom_site_pbe_ddec_spin_density
 _atom_site_pbe_ddec_sum_bond_order
 _atom_site_pbe_magmom
Cd  Cd0  1  0.59582256  0.59582847  0.04334013  1  1.282862  0  0.770573  0.873604  0  2.189594  0
Cd  Cd1  1  0.90418284  0.90417630  0.54334182  1  1.283055  0  0.770567  0.873594  0  2.189639  0
Cd  Cd2  1  0.09582690  0.09582812  0.45665966  1  1.282836  0  0.770576  0.873608  0  2.189591  0
Cd  Cd3  1  0.40417602  0.40417885  0.95665765  1  1.283041  0  0.770563  0.873572  0  2.189651  0
H  H4  1  0.66512846  0.80756890  0.41958896  1  0.078459  0  0.098583  0.098862  0  1.023  0
H  H5  1  0.61520447  0.75974629  0.32950907  1  0.086822  0  0.106885  0.11053  0  1.002572  0
H  H6  1  0.34339499  0.57907649  0.06077770  1  0.131201  0  0.121346  0.097275  0  0.9928  0
H  H7  1  0.21008796  0.69481767  0.06393366  1  0.149217  0  0.119423  0.145413  0  0.987001  0
H  H8  1  0.47110385  0.96492629  0.03965933  1  0.106045  0  0.117417  0.136547  0  0.987223  0
H  H9  1  0.59132903  0.83815675  0.03575944  1  0.145115  0  0.118017  0.090764  0  1.014333  0
H  H10  1  0.05715852  0.93161584  0.15436767  1  0.127917  0  0.122555  0.126298  0  0.974818  0
H  H11  1  0.22076005  0.09872759  0.94501351  1  0.164203  0  0.118336  0.126078  0  0.997412  0
H  H12  1  0.83487377  0.69243095  0.91958795  1  0.078488  0  0.098586  0.098848  0  1.023031  0
H  H13  1  0.88479548  0.74025707  0.82950800  1  0.086937  0  0.10689  0.110535  0  1.002584  0
H  H14  1  0.15661229  0.92092658  0.56077878  1  0.131128  0  0.121321  0.097305  0  0.99282  0
H  H15  1  0.28991688  0.80518102  0.56393452  1  0.14911  0  0.119405  0.145368  0  0.987093  0
H  H16  1  0.02889587  0.53507474  0.53966012  1  0.106081  0  0.11745  0.136579  0  0.987161  0
H  H17  1  0.90867652  0.66184948  0.53576108  1  0.14515  0  0.117932  0.090691  0  1.014412  0
H  H18  1  0.44284060  0.56838995  0.65436720  1  0.12788  0  0.122594  0.126368  0  0.974823  0
H  H19  1  0.27923754  0.40127024  0.44501467  1  0.164113  0  0.118331  0.126078  0  0.997444  0
H  H20  1  0.30757064  0.16512606  0.08041067  1  0.07842  0  0.098603  0.098884  0  1.023147  0
H  H21  1  0.25974532  0.11520208  0.17049095  1  0.086776  0  0.10689  0.110543  0  1.00266  0
H  H22  1  0.07907486  0.84339401  0.43922203  1  0.131179  0  0.121322  0.097246  0  0.992826  0
H  H23  1  0.19481575  0.71008597  0.43606845  1  0.149158  0  0.119394  0.145401  0  0.987029  0
H  H24  1  0.46492403  0.97110274  0.46034180  1  0.106064  0  0.117429  0.136573  0  0.987167  0
H  H25  1  0.33815379  0.09132767  0.46424055  1  0.145153  0  0.117999  0.090781  0  1.014357  0
H  H26  1  0.43161183  0.55715563  0.34563506  1  0.127984  0  0.122567  0.126316  0  0.974855  0
H  H27  1  0.59872750  0.72076089  0.55498724  1  0.164154  0  0.118356  0.126088  0  0.99738  0
H  H28  1  0.19243150  0.33487640  0.58041100  1  0.078432  0  0.098566  0.09881  0  1.023074  0
H  H29  1  0.24025830  0.38479979  0.67049056  1  0.086766  0  0.106861  0.110499  0  1.002592  0
H  H30  1  0.42092441  0.65660852  0.93922090  1  0.131175  0  0.121329  0.097288  0  0.992833  0
H  H31  1  0.30517961  0.78991252  0.93606447  1  0.149181  0  0.11941  0.145408  0  0.987049  0
H  H32  1  0.03507405  0.52889364  0.96034086  1  0.106053  0  0.117439  0.136579  0  0.987165  0
H  H33  1  0.16184741  0.40867283  0.96423987  1  0.145137  0  0.117977  0.090727  0  1.014422  0
H  H34  1  0.06838525  0.94284028  0.84563116  1  0.127871  0  0.12264  0.126404  0  0.974829  0
H  H35  1  0.90127291  0.77924061  0.05498585  1  0.164185  0  0.118365  0.126105  0  0.997407  0
H  H36  1  0.33487492  0.19243097  0.58040982  1  0.078397  0  0.098619  0.098914  0  1.023142  0
H  H37  1  0.38479810  0.24025729  0.67048971  1  0.086794  0  0.106882  0.110555  0  1.002581  0
H  H38  1  0.65660839  0.42092261  0.93922175  1  0.131216  0  0.121342  0.097246  0  0.992815  0
H  H39  1  0.78991463  0.30517970  0.93606647  1  0.14917  0  0.119402  0.145395  0  0.986983  0
H  H40  1  0.52889555  0.03507191  0.96034047  1  0.106012  0  0.117422  0.136558  0  0.987178  0
H  H41  1  0.40867275  0.16184509  0.96424001  1  0.145149  0  0.117991  0.09074  0  1.014405  0
H  H42  1  0.94284008  0.06838295  0.84563213  1  0.12792  0  0.122584  0.126334  0  0.974899  0
H  H43  1  0.77924174  0.90127193  0.05498595  1  0.164103  0  0.118348  0.12607  0  0.997438  0
H  H44  1  0.16512722  0.30756994  0.08041117  1  0.078469  0  0.098591  0.098868  0  1.023021  0
H  H45  1  0.11520391  0.25974501  0.17049146  1  0.086808  0  0.106884  0.110522  0  1.002586  0
H  H46  1  0.84339427  0.07907557  0.43922203  1  0.131186  0  0.121341  0.097285  0  0.99285  0
H  H47  1  0.71008571  0.19481635  0.43606697  1  0.149178  0  0.119396  0.14537  0  0.986986  0
H  H48  1  0.97110193  0.46492698  0.46034069  1  0.106055  0  0.117421  0.136543  0  0.987185  0
H  H49  1  0.09132606  0.33815642  0.46424007  1  0.145175  0  0.117976  0.090707  0  1.014364  0
H  H50  1  0.55715481  0.43161278  0.34563361  1  0.127956  0  0.122556  0.126302  0  0.974886  0
H  H51  1  0.72076027  0.59872993  0.55498648  1  0.164148  0  0.118341  0.126059  0  0.997429  0
H  H52  1  0.69242876  0.83487369  0.91958913  1  0.078423  0  0.098591  0.098843  0  1.023124  0
H  H53  1  0.74025408  0.88479767  0.82950918  1  0.08678  0  0.10687  0.110533  0  1.002584  0
H  H54  1  0.92092373  0.15661099  0.56077810  1  0.131179  0  0.121351  0.097295  0  0.992815  0
H  H55  1  0.80518126  0.28991712  0.56393337  1  0.149136  0  0.119399  0.145381  0  0.987039  0
H  H56  1  0.53507377  0.02889665  0.53965968  1  0.106062  0  0.117408  0.136518  0  0.987181  0
H  H57  1  0.66184800  0.90867495  0.53576127  1  0.145134  0  0.117907  0.090653  0  1.014415  0
H  H58  1  0.56838438  0.44284495  0.65436743  1  0.127925  0  0.122555  0.126318  0  0.974941  0
H  H59  1  0.40127189  0.27924041  0.44501424  1  0.164171  0  0.118341  0.126076  0  0.997429  0
H  H60  1  0.80757107  0.66512717  0.41958779  1  0.078491  0  0.098585  0.098854  0  1.023051  0
H  H61  1  0.75974667  0.61520355  0.32950789  1  0.086441  0  0.106863  0.110503  0  1.002602  0
H  H62  1  0.57907817  0.34339351  0.06077788  1  0.13124  0  0.121352  0.097262  0  0.992816  0
H  H63  1  0.69482139  0.21008682  0.06393498  1  0.149183  0  0.119405  0.145398  0  0.987052  0
H  H64  1  0.96492854  0.47110450  0.03965860  1  0.105999  0  0.117444  0.136583  0  0.987196  0
H  H65  1  0.83815597  0.59132705  0.03575891  1  0.14514  0  0.117991  0.090733  0  1.014419  0
H  H66  1  0.93161653  0.05716079  0.15436863  1  0.127881  0  0.122632  0.126417  0  0.974818  0
H  H67  1  0.09872728  0.22075932  0.94501394  1  0.164193  0  0.118365  0.126115  0  0.997405  0
H  H68  1  0.83848536  0.83848580  0.15572027  1  0.017856  0  0.093309  0.090719  0  1.034367  0
H  H69  1  0.88823323  0.88823334  0.23474424  1  0.019785  0  0.095006  0.093043  0  1.030414  0
H  H70  1  0.63280151  0.63280147  0.28042898  1  0.062002  0  0.095241  0.08928  0  1.037314  0
H  H71  1  0.58563940  0.58563804  0.20123975  1  0.048987  0  0.102872  0.109392  0  1.010448  0
H  H72  1  0.92807622  0.92807467  0.29658878  1  0.033595  0  0.096062  0.097944  0  1.037995  0
H  H73  1  0.97100001  0.97099780  0.37629802  1  0.163422  0  0.098621  0.124903  0  1.081953  0
H  H74  1  0.66151233  0.66151510  0.65571920  1  0.017828  0  0.093301  0.090701  0  1.034336  0
H  H75  1  0.61176455  0.61176727  0.73474357  1  0.01976  0  0.095  0.093021  0  1.0304  0
H  H76  1  0.86719778  0.86720020  0.78042835  1  0.062017  0  0.095229  0.089269  0  1.037313  0
H  H77  1  0.91436062  0.91436100  0.70123907  1  0.048992  0  0.102844  0.109352  0  1.010504  0
H  H78  1  0.57192675  0.57192653  0.79658883  1  0.033534  0  0.095976  0.097799  0  1.038157  0
H  H79  1  0.52900304  0.52900079  0.87629846  1  0.163432  0  0.098621  0.124907  0  1.081948  0
H  H80  1  0.33848706  0.33848620  0.34428026  1  0.017831  0  0.093304  0.090714  0  1.034326  0
H  H81  1  0.38823405  0.38823308  0.26525555  1  0.01977  0  0.095  0.093009  0  1.030424  0
H  H82  1  0.13280161  0.13280032  0.21957145  1  0.062001  0  0.095249  0.089313  0  1.037282  0
H  H83  1  0.08563958  0.08563816  0.29876106  1  0.048993  0  0.102844  0.109335  0  1.010512  0
H  H84  1  0.42807504  0.42807221  0.20340995  1  0.033535  0  0.096007  0.097822  0  1.038136  0
H  H85  1  0.47099875  0.47099795  0.12370100  1  0.163445  0  0.098645  0.124948  0  1.081902  0
H  H86  1  0.16151404  0.16151472  0.84428054  1  0.017848  0  0.093304  0.090716  0  1.034358  0
H  H87  1  0.11176696  0.11176659  0.76525555  1  0.019799  0  0.095015  0.093071  0  1.030388  0
H  H88  1  0.36719947  0.36720020  0.71957150  1  0.061984  0  0.095234  0.089306  0  1.037313  0
H  H89  1  0.41436159  0.41436130  0.79876072  1  0.048984  0  0.102868  0.10939  0  1.010444  0
H  H90  1  0.07193034  0.07192903  0.70341000  1  0.033667  0  0.096015  0.097861  0  1.038072  0
H  H91  1  0.02900496  0.02900476  0.62370076  1  0.163513  0  0.098609  0.124869  0  1.081919  0
C  C92  1  0.72086392  0.79518342  0.39377516  1  -0.119146  0  -0.091883  -0.089533  0  3.786369  0
C  C93  1  0.69418321  0.76892155  0.34407883  1  -0.115759  0  -0.091728  -0.117254  0  3.782858  0
C  C94  1  0.36758017  0.66495827  0.05600354  1  0.48435  0  0.056073  0.114193  0  3.932154  0
C  C95  1  0.29410531  0.72914144  0.05815265  1  0.038592  0  -0.073033  -0.190365  0  3.921844  0
C  C96  1  0.33082036  0.83822705  0.05135003  1  0.276494  0  0.110651  0.2352  0  3.996564  0
C  C97  1  0.43898256  0.87996847  0.04401028  1  0.029747  0  -0.076613  -0.193528  0  3.929601  0
C  C98  1  0.50633157  0.80950901  0.04185375  1  0.472774  0  0.051783  0.105708  0  3.94139  0
C  C99  1  0.19327128  0.90770976  0.09008323  1  1.329811  0  0.249977  0.44424  0  4.071084  0
C  C100  1  0.11605914  0.97691088  0.08815720  1  -0.037237  0  0.000997  -0.057339  0  3.974884  0
C  C101  1  0.05135725  0.98181716  0.12530010  1  -0.047155  0  -0.053277  -0.059454  0  3.90774  0
C  C102  1  0.11094159  0.04035476  0.04968976  1  -0.068825  0  0.008337  0.032885  0  4.005891  0
C  C103  1  0.17591897  0.03662040  0.01144647  1  -0.027517  0  -0.006225  -0.077399  0  3.99713  0
C  C104  1  0.16996830  0.10037401  0.97421583  1  -0.077459  0  -0.052148  -0.039807  0  3.881292  0
C  C105  1  0.25178607  0.96611944  0.01119915  1  1.308727  0  0.244478  0.434888  0  4.095183  0
C  C106  1  0.77913799  0.70481752  0.89377509  1  -0.119146  0  -0.09191  -0.089546  0  3.786396  0
C  C107  1  0.80581727  0.73107828  0.84407873  1  -0.115879  0  -0.091724  -0.117246  0  3.782854  0
C  C108  1  0.13242560  0.83504516  0.55600480  1  0.484865  0  0.056061  0.114084  0  3.932436  0
C  C109  1  0.20589964  0.77085796  0.55815442  1  0.038771  0  -0.072895  -0.190186  0  3.922059  0
C  C110  1  0.16918074  0.66177293  0.55135197  1  0.276503  0  0.110442  0.234961  0  3.996878  0
C  C111  1  0.06101947  0.62003238  0.54401186  1  0.029559  0  -0.076561  -0.193401  0  3.929415  0
C  C112  1  0.99367227  0.69049616  0.54185580  1  0.473047  0  0.05186  0.105695  0  3.941466  0
C  C113  1  0.30673067  0.59229179  0.59008339  1  1.329858  0  0.2501  0.444519  0  4.070988  0
C  C114  1  0.38394045  0.52309010  0.58815752  1  -0.03742  0  0.000964  -0.057463  0  3.974937  0
C  C115  1  0.44864322  0.51818616  0.62529979  1  0.089568  0  -0.053277  -0.059489  0  3.907844  0
C  C116  1  0.38905716  0.45964568  0.54968966  1  0.061926  0  0.008406  0.033012  0  4.005773  0
C  C117  1  0.32407812  0.46337906  0.51144664  1  -0.027368  0  -0.006178  -0.077206  0  3.996985  0
C  C118  1  0.33003112  0.39962624  0.47421644  1  0.057339  0  -0.052213  -0.039947  0  3.881461  0
C  C119  1  0.24820862  0.53388079  0.51119937  1  1.308639  0  0.24426  0.434376  0  4.095926  0
C  C120  1  0.29518339  0.22086054  0.10622445  1  -0.019753  0  -0.091968  -0.089672  0  3.786619  0
C  C121  1  0.26892163  0.19418043  0.15592080  1  -0.018366  0  -0.091759  -0.117303  0  3.783044  0
C  C122  1  0.16495650  0.86757950  0.44399613  1  0.48463  0  0.05609  0.114242  0  3.932364  0
C  C123  1  0.22913917  0.79410287  0.44184871  1  0.038318  0  -0.07295  -0.19035  0  3.921898  0
C  C124  1  0.33822498  0.83081829  0.44865193  1  0.27657  0  0.11062  0.235134  0  3.996706  0
C  C125  1  0.37996603  0.93898041  0.45599125  1  0.02969  0  -0.076594  -0.193436  0  3.929524  0
C  C126  1  0.30950665  0.00633004  0.45814630  1  0.472905  0  0.05173  0.105538  0  3.941529  0
C  C127  1  0.40770892  0.69326928  0.40991910  1  1.330135  0  0.250019  0.444266  0  4.071029  0
C  C128  1  0.47690941  0.61605813  0.41184513  1  -0.037224  0  0.001004  -0.057227  0  3.97474  0
C  C129  1  0.48181295  0.55135422  0.37470227  1  0.089456  0  -0.053229  -0.059451  0  3.907621  0
C  C130  1  0.54035320  0.61094184  0.45031174  1  0.061874  0  0.008322  0.03277  0  4.005881  0
C  C131  1  0.53662006  0.67591958  0.48855466  1  -0.062107  0  -0.006224  -0.077204  0  3.997065  0
C  C132  1  0.60037235  0.66996974  0.52578563  1  0.091767  0  -0.052113  -0.039933  0  3.881404  0
C  C133  1  0.46611921  0.75178540  0.48880143  1  1.308809  0  0.244463  0.434841  0  4.095296  0
C  C134  1  0.20481986  0.27914102  0.60622456  1  -0.019771  0  -0.091889  -0.089528  0  3.786497  0
C  C135  1  0.23108146  0.30582033  0.65592021  1  -0.115813  0  -0.091704  -0.117156  0  3.78294  0
C  C136  1  0.33504268  0.63242075  0.94399460  1  0.484496  0  0.056068  0.114144  0  3.932383  0
C  C137  1  0.27085766  0.70589527  0.94184497  1  0.038772  0  -0.073007  -0.19043  0  3.921892  0
C  C138  1  0.16177094  0.66917664  0.94864717  1  0.276507  0  0.110558  0.235303  0  3.996519  0
C  C139  1  0.12003214  0.56101592  0.95598804  1  0.029742  0  -0.076605  -0.193624  0  3.929538  0
C  C140  1  0.19049229  0.49366752  0.95814475  1  0.472772  0  0.051816  0.10576  0  3.941437  0
C  C141  1  0.09228853  0.80672772  0.90991571  1  1.329664  0  0.250062  0.444443  0  4.070851  0
C  C142  1  0.02309118  0.88394194  0.91184192  1  -0.037241  0  0.000925  -0.057498  0  3.974953  0
C  C143  1  0.01818437  0.94864298  0.87469927  1  0.089488  0  -0.053339  -0.059543  0  3.907878  0
C  C144  1  0.95964605  0.88905782  0.95030978  1  0.061923  0  0.008391  0.032941  0  4.00583  0
C  C145  1  0.96337926  0.82407914  0.98855250  1  -0.027531  0  -0.006105  -0.076999  0  3.99689  0
C  C146  1  0.89962703  0.83003106  0.02578372  1  0.057501  0  -0.052263  -0.040095  0  3.881514  0
C  C147  1  0.03388073  0.74820564  0.98880081  1  1.308645  0  0.244321  0.434386  0  4.095788  0
C  C148  1  0.27914104  0.20482070  0.60622396  1  -0.11912  0  -0.091962  -0.089644  0  3.786697  0
C  C149  1  0.30582017  0.23108066  0.65591961  1  -0.018378  0  -0.091764  -0.117345  0  3.783067  0
C  C150  1  0.63242161  0.33504124  0.94399592  1  0.484138  0  0.056038  0.11419  0  3.932307  0
C  C151  1  0.70589648  0.27085498  0.94184647  1  0.039033  0  -0.073029  -0.190407  0  3.921869  0
C  C152  1  0.66917905  0.16176960  0.94864876  1  0.27647  0  0.11061  0.23518  0  3.996699  0
C  C153  1  0.56101764  0.12003069  0.95598851  1  0.029728  0  -0.076613  -0.193569  0  3.929658  0
C  C154  1  0.49366942  0.19049110  0.95814503  1  0.47279  0  0.051828  0.105745  0  3.941468  0
C  C155  1  0.80672893  0.09228319  0.90991758  1  1.330046  0  0.249926  0.44426  0  4.070823  0
C  C156  1  0.88394106  0.02308672  0.91184293  1  -0.037476  0  0.001022  -0.057304  0  3.974776  0
C  C157  1  0.94864374  0.01818218  0.87469936  1  -0.047148  0  -0.05332  -0.059527  0  3.907758  0
C  C158  1  0.88905940  0.95964458  0.95031003  1  -0.068802  0  0.008312  0.032846  0  4.005879  0
C  C159  1  0.82408122  0.96337798  0.98855299  1  -0.027684  0  -0.006179  -0.077354  0  3.996968  0
C  C160  1  0.83003269  0.89962533  0.02578464  1  -0.077194  0  -0.052196  -0.039838  0  3.8813  0
C  C161  1  0.74820537  0.03387851  0.98880436  1  1.308932  0  0.244479  0.43474  0  4.095743  0
C  C162  1  0.22086141  0.29518224  0.10622505  1  -0.119162  0  -0.091925  -0.089596  0  3.786398  0
C  C163  1  0.19418292  0.26892087  0.15592106  1  -0.11576  0  -0.091731  -0.117254  0  3.78292  0
C  C164  1  0.86757937  0.16495663  0.44399601  1  0.484556  0  0.056066  0.114108  0  3.932397  0
C  C165  1  0.79410375  0.22913959  0.44184706  1  0.038687  0  -0.072988  -0.190241  0  3.921904  0
C  C166  1  0.83081787  0.33822587  0.44864817  1  0.276584  0  0.110592  0.235052  0  3.996767  0
C  C167  1  0.93898072  0.37996833  0.45598861  1  0.029557  0  -0.076584  -0.193434  0  3.929517  0
C  C168  1  0.00632871  0.30950861  0.45814535  1  0.472909  0  0.051795  0.105709  0  3.941439  0
C  C169  1  0.69326793  0.40771011  0.40991776  1  1.329767  0  0.250109  0.444508  0  4.070772  0
C  C170  1  0.61605735  0.47691084  0.41184329  1  -0.037306  0  0.001001  -0.057222  0  3.974705  0
C  C171  1  0.55135379  0.48181383  0.37470203  1  -0.047158  0  -0.05329  -0.059556  0  3.907753  0
C  C172  1  0.61094064  0.54035449  0.45031149  1  -0.068756  0  0.008327  0.032807  0  4.005797  0
C  C173  1  0.67591809  0.53662152  0.48855450  1  -0.062179  0  -0.006269  -0.077311  0  3.997285  0
C  C174  1  0.66996748  0.60037411  0.52578403  1  -0.042777  0  -0.052112  -0.039757  0  3.881416  0
C  C175  1  0.75178201  0.46612087  0.48879671  1  1.30906  0  0.244366  0.434547  0  4.09532  0
C  C176  1  0.70481521  0.77913903  0.89377535  1  -0.019763  0  -0.091955  -0.08958  0  3.786571  0
C  C177  1  0.73107697  0.80581914  0.84407900  1  -0.018356  0  -0.091725  -0.117289  0  3.782945  0
C  C178  1  0.83504288  0.13242490  0.55600400  1  0.48466  0  0.056021  0.114124  0  3.932511  0
C  C179  1  0.77085624  0.20589986  0.55815277  1  0.038569  0  -0.073011  -0.190409  0  3.921915  0
C  C180  1  0.66177123  0.16918151  0.55135023  1  0.276442  0  0.110655  0.235307  0  3.996721  0
C  C181  1  0.62003257  0.06102071  0.54401124  1  0.029657  0  -0.076619  -0.193496  0  3.929579  0
C  C182  1  0.69049434  0.99367162  0.54185586  1  0.473033  0  0.051869  0.105736  0  3.94148  0
C  C183  1  0.59228969  0.30672952  0.59008508  1  1.330343  0  0.249965  0.444159  0  4.071509  0
C  C184  1  0.52308760  0.38394263  0.58815635  1  -0.037176  0  0.000981  -0.05724  0  3.974659  0
C  C185  1  0.51818247  0.44864618  0.62530056  1  -0.047172  0  -0.053294  -0.059573  0  3.907773  0
C  C186  1  0.45964460  0.38905988  0.54968975  1  -0.068814  0  0.008324  0.032832  0  4.005918  0
C  C187  1  0.46337934  0.32408173  0.51144716  1  -0.027804  0  -0.006181  -0.0774  0  3.996938  0
C  C188  1  0.39962465  0.33003257  0.47421518  1  -0.077268  0  -0.052212  -0.03989  0  3.881373  0
C  C189  1  0.53387782  0.24820218  0.51119364  1  1.309136  0  0.244498  0.434801  0  4.095955  0
C  C190  1  0.79518511  0.72086154  0.39377388  1  -0.019764  0  -0.091947  -0.089636  0  3.786524  0
C  C191  1  0.76892271  0.69418206  0.34407823  1  -0.01803  0  -0.09172  -0.117249  0  3.782953  0
C  C192  1  0.66495911  0.36757877  0.05600317  1  0.484354  0  0.056046  0.114184  0  3.93222  0
C  C193  1  0.72914492  0.29410442  0.05815381  1  0.038776  0  -0.073031  -0.190476  0  3.921957  0
C  C194  1  0.83823006  0.33082114  0.05135195  1  0.276485  0  0.110562  0.235197  0  3.996584  0
C  C195  1  0.87996965  0.43898282  0.04401075  1  0.029738  0  -0.076619  -0.19358  0  3.929675  0
C  C196  1  0.80950950  0.50633045  0.04185370  1  0.472778  0  0.051815  0.105722  0  3.941472  0
C  C197  1  0.90770927  0.19327477  0.09008678  1  1.330049  0  0.250042  0.444288  0  4.071318  0
C  C198  1  0.97691219  0.11606104  0.08815788  1  -0.037279  0  0.000976  -0.057356  0  3.974859  0
C  C199  1  0.98181741  0.05135809  0.12530086  1  0.089493  0  -0.053358  -0.059626  0  3.907814  0
C  C200  1  0.04035494  0.11094306  0.04969069  1  0.061881  0  0.008352  0.032796  0  4.005993  0
C  C201  1  0.03662014  0.17591906  0.01144696  1  -0.027673  0  -0.006097  -0.076949  0  3.997059  0
C  C202  1  0.10037317  0.16996887  0.97421608  1  0.05754  0  -0.052261  -0.040113  0  3.881541  0
C  C203  1  0.96612028  0.25178594  0.01120101  1  1.308579  0  0.244384  0.434483  0  4.095571  0
C  C204  1  0.67801043  0.67801234  0.12599880  1  1.550822  0  0.186561  0.556497  0  4.241867  0
C  C205  1  0.70903749  0.70903787  0.17350984  1  -0.00671  0  -0.024728  -0.0337  0  3.990856  0
C  C206  1  0.79411227  0.79411079  0.18355738  1  -0.012856  0  -0.090591  -0.09146  0  4.009223  0
C  C207  1  0.82149879  0.82149746  0.22818236  1  -0.002787  0  -0.099251  -0.143919  0  3.99568  0
C  C208  1  0.67918644  0.67918625  0.25358334  1  -0.107328  0  -0.100075  -0.149923  0  4.01369  0
C  C209  1  0.65186987  0.65187126  0.20919307  1  0.054018  0  -0.085694  -0.08372  0  3.991635  0
C  C210  1  0.76471669  0.76471596  0.26425442  1  -0.034852  0  0.001581  0.081366  0  3.940615  0
C  C211  1  0.79268900  0.79268823  0.31251817  1  -0.033082  0  -0.004511  0.092051  0  3.886758  0
C  C212  1  0.88178429  0.88178385  0.32339025  1  0.000565  0  -0.10777  -0.152521  0  4.014607  0
C  C213  1  0.90565187  0.90564995  0.36678229  1  -0.081405  0  -0.115627  -0.153577  0  4.017142  0
C  C214  1  0.84119835  0.84119604  0.40155466  1  -0.04287  0  -0.017599  -0.006952  0  3.902528  0
C  C215  1  0.86615010  0.86614605  0.45049659  1  1.548374  0  0.198748  0.557934  0  4.19702  0
C  C216  1  0.82199021  0.82199110  0.62599924  1  1.550917  0  0.186552  0.556502  0  4.241772  0
C  C217  1  0.79096145  0.79096437  0.67350998  1  -0.006807  0  -0.024758  -0.033783  0  3.99071  0
C  C218  1  0.70588648  0.70589002  0.68355694  1  -0.012829  0  -0.090612  -0.091431  0  4.009091  0
C  C219  1  0.67849911  0.67850385  0.72818228  1  -0.002766  0  -0.099169  -0.14378  0  3.995621  0
C  C220  1  0.82081177  0.82081475  0.75358344  1  -0.107309  0  -0.100055  -0.149866  0  4.013618  0
C  C221  1  0.84812840  0.84812984  0.70919281  1  0.054007  0  -0.085666  -0.083672  0  3.991597  0
C  C222  1  0.73528053  0.73528498  0.76425428  1  -0.034876  0  0.001538  0.08125  0  3.940753  0
C  C223  1  0.70731048  0.70731321  0.81251874  1  -0.033033  0  -0.004489  0.092028  0  3.886766  0
C  C224  1  0.61821578  0.61821789  0.82339058  1  0.000679  0  -0.107696  -0.152329  0  4.01458  0
C  C225  1  0.59434976  0.59435050  0.86678299  1  -0.081417  0  -0.115577  -0.15355  0  4.017115  0
C  C226  1  0.65880262  0.65880402  0.90155495  1  -0.042911  0  -0.017606  -0.007  0  3.902584  0
C  C227  1  0.63385154  0.63385260  0.95049690  1  1.548366  0  0.198878  0.558081  0  4.196937  0
C  C228  1  0.17801475  0.17801147  0.37400157  1  1.550494  0  0.18657  0.556536  0  4.241899  0
C  C229  1  0.20903874  0.20903556  0.32648982  1  -0.006804  0  -0.024766  -0.033819  0  3.990734  0
C  C230  1  0.29411371  0.29411069  0.31644286  1  -0.012827  0  -0.090567  -0.091382  0  4.009007  0
C  C231  1  0.32150028  0.32149745  0.27181751  1  -0.002795  0  -0.099231  -0.143812  0  3.995577  0
C  C232  1  0.17918842  0.17918595  0.24641602  1  -0.10729  0  -0.100081  -0.149964  0  4.013642  0
C  C233  1  0.15187260  0.15186950  0.29080665  1  0.054129  0  -0.085713  -0.083653  0  3.991642  0
C  C234  1  0.26471966  0.26471728  0.23574517  1  -0.034891  0  0.00158  0.081242  0  3.940733  0
C  C235  1  0.29268891  0.29268655  0.18748106  1  -0.033048  0  -0.004499  0.092081  0  3.886801  0
C  C236  1  0.38178362  0.38178186  0.17660854  1  0.000711  0  -0.107676  -0.152279  0  4.014525  0
C  C237  1  0.40564964  0.40564771  0.13321680  1  -0.081422  0  -0.115667  -0.153717  0  4.017124  0
C  C238  1  0.34119678  0.34119495  0.09844485  1  -0.042874  0  -0.017537  -0.006781  0  3.902419  0
C  C239  1  0.36614866  0.36614811  0.04950289  1  1.548349  0  0.198739  0.557773  0  4.197138  0
C  C240  1  0.32198657  0.32198920  0.87400167  1  1.550417  0  0.186596  0.556601  0  4.241787  0
C  C241  1  0.29096270  0.29096439  0.82648996  1  -0.006798  0  -0.024744  -0.033749  0  3.990736  0
C  C242  1  0.20588712  0.20588896  0.81644242  1  -0.012826  0  -0.09062  -0.091494  0  4.009278  0
C  C243  1  0.17850220  0.17850342  0.77181778  1  -0.002852  0  -0.099243  -0.1439  0  3.995788  0
C  C244  1  0.32081375  0.32081446  0.74641612  1  -0.107299  0  -0.10012  -0.150069  0  4.013748  0
C  C245  1  0.34812873  0.34812986  0.79080672  1  0.054111  0  -0.085687  -0.08366  0  3.991684  0
C  C246  1  0.23528192  0.23528283  0.73574537  1  -0.03482  0  0.001635  0.08143  0  3.940637  0
C  C247  1  0.20731517  0.20731493  0.68748062  1  -0.033013  0  -0.004483  0.091991  0  3.886902  0
C  C248  1  0.11822067  0.11822027  0.67660820  1  0.00066  0  -0.107697  -0.152385  0  4.014465  0
C  C249  1  0.09435389  0.09435357  0.63321649  1  -0.08158  0  -0.115719  -0.153606  0  4.017069  0
C  C250  1  0.15880662  0.15880652  0.59844446  1  -0.042612  0  -0.017462  -0.006876  0  3.902431  0
C  C251  1  0.13385407  0.13385555  0.54950253  1  1.547406  0  0.198928  0.558216  0  4.196909  0
N  N252  1  0.47120937  0.70391915  0.04713815  1  -1.235107  0  -0.321128  -0.232013  0  3.498951  0
N  N253  1  0.25704182  0.90693465  0.05094324  1  -1.174574  0  -0.228568  -0.227276  0  3.554747  0
N  N254  1  0.02879737  0.79608591  0.54714005  1  -1.235434  0  -0.321157  -0.231968  0  3.499184  0
N  N255  1  0.24295928  0.59306609  0.55094467  1  -1.174451  0  -0.228536  -0.227152  0  3.554939  0
N  N256  1  0.20391603  0.97120745  0.45286144  1  -1.235111  0  -0.321076  -0.231906  0  3.499145  0
N  N257  1  0.40693216  0.75703882  0.44905872  1  -1.174794  0  -0.228619  -0.227276  0  3.55491  0
N  N258  1  0.29608377  0.52879231  0.95285943  1  -1.235104  0  -0.321123  -0.231973  0  3.499123  0
N  N259  1  0.09306375  0.74295534  0.94905413  1  -1.174374  0  -0.228579  -0.22726  0  3.554692  0
N  N260  1  0.52879322  0.29608132  0.95286097  1  -1.235034  0  -0.321106  -0.231958  0  3.499043  0
N  N261  1  0.74295839  0.09305985  0.94905656  1  -1.1746  0  -0.228526  -0.227157  0  3.554651  0
N  N262  1  0.97120839  0.20391838  0.45286076  1  -1.235069  0  -0.32109  -0.231936  0  3.499063  0
N  N263  1  0.75704012  0.40693211  0.44905546  1  -1.17449  0  -0.228497  -0.227138  0  3.555005  0
N  N264  1  0.79608495  0.02879577  0.54714004  1  -1.235361  0  -0.321097  -0.231949  0  3.499207  0
N  N265  1  0.59306246  0.24296218  0.55094242  1  -1.174516  0  -0.228622  -0.227357  0  3.554635  0
N  N266  1  0.70391881  0.47120816  0.04713766  1  -1.235038  0  -0.321099  -0.231946  0  3.498834  0
N  N267  1  0.90693804  0.25704340  0.05094533  1  -1.174476  0  -0.228578  -0.22714  0  3.554708  0
O  O268  1  0.20497277  0.85498680  0.12333351  1  -1.080355  0  -0.258922  -0.408334  0  2.064914  0
O  O269  1  0.30824445  0.95802096  0.97837763  1  -1.113232  0  -0.265485  -0.441197  0  2.141588  0
O  O270  1  0.29502775  0.64501417  0.62333556  1  -1.080442  0  -0.258951  -0.408456  0  2.064773  0
O  O271  1  0.19175407  0.54197891  0.47838145  1  -1.113242  0  -0.265343  -0.440922  0  2.142062  0
O  O272  1  0.35498822  0.70497222  0.37666850  1  -1.080574  0  -0.258899  -0.408334  0  2.064894  0
O  O273  1  0.45802240  0.80824591  0.52162228  1  -1.113267  0  -0.265501  -0.441244  0  2.141631  0
O  O274  1  0.14501066  0.79502303  0.87666284  1  -1.080362  0  -0.258918  -0.408396  0  2.06474  0
O  O275  1  0.04198005  0.69175546  0.02161805  1  -1.113237  0  -0.265326  -0.440874  0  2.142126  0
O  O276  1  0.79502506  0.14500406  0.87666493  1  -1.080357  0  -0.258933  -0.408414  0  2.064499  0
O  O277  1  0.69176052  0.04197617  0.02161947  1  -1.113382  0  -0.265437  -0.441042  0  2.142282  0
O  O278  1  0.70497006  0.35498677  0.37666457  1  -1.080329  0  -0.258978  -0.408495  0  2.064577  0
O  O279  1  0.80825010  0.45802425  0.52162138  1  -1.113502  0  -0.265543  -0.441198  0  2.141261  0
O  O280  1  0.64500481  0.29502686  0.62333231  1  -1.080859  0  -0.258848  -0.408202  0  2.065417  0
O  O281  1  0.54197221  0.19175819  0.47838089  1  -1.113504  0  -0.265408  -0.441008  0  2.142666  0
O  O282  1  0.85499511  0.20497739  0.12333459  1  -1.08061  0  -0.258803  -0.408195  0  2.065356  0
O  O283  1  0.95802094  0.30824388  0.97837904  1  -1.113094  0  -0.265453  -0.441063  0  2.141663  0
O  O284  1  0.80952544  0.80952192  0.48056182  1  -1.17027  0  -0.331401  -0.554799  0  2.211379  0
O  O285  1  0.94349701  0.94349114  0.46103751  1  -1.195812  0  -0.333141  -0.582251  0  2.340086  0
O  O286  1  0.72880702  0.72881235  0.09307045  1  -1.190411  0  -0.342228  -0.585449  0  2.164067  0
O  O287  1  0.59874780  0.59874909  0.12061792  1  -1.169774  0  -0.337647  -0.559093  0  2.263907  0
O  O288  1  0.69047642  0.69047648  0.98056139  1  -1.17018  0  -0.331426  -0.554859  0  2.211435  0
O  O289  1  0.55650602  0.55650721  0.96103791  1  -1.195485  0  -0.333256  -0.582327  0  2.34009  0
O  O290  1  0.77119265  0.77119501  0.59306960  1  -1.190401  0  -0.342166  -0.585387  0  2.164155  0
O  O291  1  0.90125454  0.90125231  0.62061894  1  -1.169854  0  -0.337668  -0.559131  0  2.263796  0
O  O292  1  0.30952536  0.30952382  0.01943840  1  -1.170267  0  -0.33143  -0.554789  0  2.211439  0
O  O293  1  0.44349257  0.44349779  0.03896189  1  -1.195829  0  -0.33312  -0.582139  0  2.340081  0
O  O294  1  0.22881391  0.22880869  0.40693054  1  -1.190049  0  -0.342269  -0.585511  0  2.164137  0
O  O295  1  0.09875043  0.09875025  0.37938254  1  -1.169795  0  -0.337584  -0.559045  0  2.263997  0
O  O296  1  0.19047714  0.19048010  0.51943798  1  -1.169495  0  -0.33147  -0.554963  0  2.211502  0
O  O297  1  0.05650876  0.05650772  0.53896263  1  -1.195419  0  -0.333255  -0.582358  0  2.340113  0
O  O298  1  0.27118918  0.27119133  0.90693036  1  -1.190089  0  -0.342247  -0.585501  0  2.164115  0
O  O299  1  0.40124920  0.40125244  0.87938221  1  -1.169757  0  -0.337623  -0.55909  0  2.263913  0
