# generated using pymatgen
data_NaH27C23SN3ClO5
_symmetry_space_group_name_H-M   'P 1'
_cell_length_a   10.04193565
_cell_length_b   10.85437940
_cell_length_c   11.38571173
_cell_angle_alpha   90.37530861
_cell_angle_beta   90.00016179
_cell_angle_gamma   89.99953466
_symmetry_Int_Tables_number   1
_chemical_formula_structural   NaH27C23SN3ClO5
_chemical_formula_sum   'Na2 H54 C46 S2 N6 Cl2 O10'
_cell_volume   1241.00433491
_cell_formula_units_Z   2
loop_
 _symmetry_equiv_pos_site_id
 _symmetry_equiv_pos_as_xyz
  1  'x, y, z'
loop_
 _atom_site_type_symbol
 _atom_site_label
 _atom_site_symmetry_multiplicity
 _atom_site_fract_x
 _atom_site_fract_y
 _atom_site_fract_z
 _atom_site_occupancy
 _atom_site_hle17_bader_spin_density
 _atom_site_hle17_ddec_charge
 _atom_site_hle17_ddec_spin_density
 _atom_site_hle17_ddec_sum_bond_order
 _atom_site_hle17_magmom
 _atom_site_hse06_10hf_bader_spin_density
 _atom_site_hse06_10hf_ddec_charge
 _atom_site_hse06_10hf_ddec_spin_density
 _atom_site_hse06_10hf_ddec_sum_bond_order
 _atom_site_hse06_10hf_magmom
 _atom_site_hse06_bader_spin_density
 _atom_site_hse06_ddec_charge
 _atom_site_hse06_ddec_spin_density
 _atom_site_hse06_ddec_sum_bond_order
 _atom_site_hse06_magmom
 _atom_site_pbe_bader_spin_density
 _atom_site_pbe_cm5_charge
 _atom_site_pbe_ddec_charge
 _atom_site_pbe_ddec_spin_density
 _atom_site_pbe_ddec_sum_bond_order
 _atom_site_pbe_magmom
Na  Na0  1  0.40924019  0.59024484  0.59993837  1  0  0.896354  0  0.409612  0  0  0.853186  0  0.564916  0  0  0.86334  0  0.543984  0  0  0.743109  0.845616  0  0.57991  0
Na  Na1  1  0.90923889  0.40974946  0.40006297  1  0  0.896348  0  0.409621  0  0  0.853195  0  0.564883  0  0  0.863341  0  0.543935  0  0  0.743156  0.845624  0  0.57987  0
H  H2  1  0.46815367  0.59854080  0.33212444  1  0  0.294391  0  0.924423  0  0  0.279539  0  0.987278  0  0  0.286637  0  0.98191  0  0  0.305705  0.274544  0  0.991016  0
H  H3  1  0.96815031  0.40145767  0.66787709  1  0  0.293958  0  0.92462  0  0  0.2793  0  0.98728  0  0  0.286401  0  0.981908  0  0  0.305584  0.274304  0  0.991013  0
H  H4  1  0.11691511  0.80631841  0.59200528  1  0  0.10147  0  0.962254  0  0  0.11161  0  1.023653  0  0  0.11486  0  1.022208  0  0  0.102661  0.109478  0  1.024514  0
H  H5  1  0.61690776  0.19367994  0.40799360  1  0  0.101512  0  0.962269  0  0  0.111661  0  1.023648  0  0  0.114908  0  1.022207  0  0  0.102702  0.109528  0  1.024505  0
H  H6  1  0.76306189  0.98300364  0.72657898  1  0  0.090823  0  0.964237  0  0  0.097629  0  1.032937  0  0  0.101391  0  1.030929  0  0  0.093767  0.094763  0  1.034632  0
H  H7  1  0.26305921  0.01699084  0.27342198  1  0  0.090806  0  0.964199  0  0  0.097594  0  1.032927  0  0  0.101356  0  1.03092  0  0  0.093748  0.094731  0  1.034625  0
H  H8  1  0.98985121  0.61213354  0.56226031  1  0  0.09759  0  0.980282  0  0  0.102924  0  1.05174  0  0  0.106138  0  1.049995  0  0  0.108892  0.100308  0  1.053281  0
H  H9  1  0.48984181  0.38786385  0.43774039  1  0  0.097617  0  0.980222  0  0  0.102924  0  1.051711  0  0  0.106139  0  1.049966  0  0  0.108914  0.100324  0  1.053234  0
H  H10  1  0.98541108  0.96653120  0.44516193  1  0  0.282046  0  0.959864  0  0  0.25984  0  1.031013  0  0  0.26794  0  1.025155  0  0  0.30605  0.254188  0  1.035116  0
H  H11  1  0.48541313  0.03347083  0.55483881  1  0  0.281999  0  0.959906  0  0  0.259862  0  1.030957  0  0  0.26794  0  1.025121  0  0  0.306095  0.254208  0  1.035058  0
H  H12  1  0.12691075  0.01662276  0.64312517  1  0  0.08451  0  0.939817  0  0  0.101481  0  0.9975  0  0  0.102258  0  0.998393  0  0  0.093838  0.100852  0  0.996948  0
H  H13  1  0.62691026  0.98337642  0.35687639  1  0  0.08449  0  0.939838  0  0  0.101453  0  0.997522  0  0  0.102229  0  0.998417  0  0  0.093821  0.10082  0  0.996968  0
H  H14  1  0.01116703  0.07750002  0.74463999  1  0  0.091554  0  0.93282  0  0  0.109838  0  0.989913  0  0  0.111075  0  0.989775  0  0  0.099863  0.108872  0  0.990159  0
H  H15  1  0.51116575  0.92249636  0.25535948  1  0  0.091594  0  0.932775  0  0  0.109864  0  0.989873  0  0  0.111103  0  0.989732  0  0  0.099852  0.108895  0  0.990118  0
H  H16  1  0.68110627  0.61751216  0.15203378  1  0  0.039755  0  0.922101  0  0  0.054189  0  0.984571  0  0  0.054084  0  0.985106  0  0  0.106136  0.054158  0  0.984482  0
H  H17  1  0.18110919  0.38248478  0.84796701  1  0  0.039783  0  0.922133  0  0  0.054231  0  0.984548  0  0  0.054128  0  0.985084  0  0  0.106183  0.054203  0  0.984463  0
H  H18  1  0.63819734  0.78729609  0.70202956  1  0  0.098405  0  0.955438  0  0  0.108029  0  1.018468  0  0  0.110938  0  1.016875  0  0  0.108532  0.106278  0  1.019077  0
H  H19  1  0.13819302  0.21270027  0.29796848  1  0  0.098376  0  0.95549  0  0  0.108063  0  1.01846  0  0  0.110971  0  1.016868  0  0  0.108547  0.106312  0  1.019067  0
H  H20  1  0.76006813  0.17122089  0.17584704  1  0  0.118423  0  0.948805  0  0  0.126097  0  1.0134  0  0  0.130173  0  1.009857  0  0  0.112028  0.122998  0  1.016341  0
H  H21  1  0.26007404  0.82878377  0.82414966  1  0  0.118312  0  0.948765  0  0  0.126007  0  1.013371  0  0  0.130083  0  1.009824  0  0  0.111997  0.122906  0  1.016312  0
H  H22  1  0.90293745  0.73578396  0.13504465  1  0  0.116176  0  0.971599  0  0  0.12759  0  1.033112  0  0  0.130564  0  1.032064  0  0  0.112318  0.125407  0  1.034101  0
H  H23  1  0.40293649  0.26421870  0.86495326  1  0  0.116241  0  0.971502  0  0  0.127629  0  1.033038  0  0  0.1306  0  1.032  0  0  0.112359  0.125446  0  1.034026  0
H  H24  1  0.12184747  0.71869241  0.37861425  1  0  0.101634  0  0.946243  0  0  0.117259  0  1.013499  0  0  0.11838  0  1.012209  0  0  0.106389  0.116286  0  1.014655  0
H  H25  1  0.62184700  0.28130686  0.62138027  1  0  0.101603  0  0.94625  0  0  0.117292  0  1.01343  0  0  0.118413  0  1.012139  0  0  0.106398  0.116318  0  1.014584  0
H  H26  1  0.10629740  0.72559125  0.22249518  1  0  0.085415  0  0.945326  0  0  0.101263  0  1.015496  0  0  0.101727  0  1.014981  0  0  0.096561  0.100874  0  1.015965  0
H  H27  1  0.60629949  0.27441088  0.77750198  1  0  0.085428  0  0.945362  0  0  0.101257  0  1.015555  0  0  0.101721  0  1.015038  0  0  0.096544  0.100866  0  1.016025  0
H  H28  1  0.97102651  0.66610266  0.30995002  1  0  0.106829  0  0.979215  0  0  0.120293  0  1.049889  0  0  0.121689  0  1.048665  0  0  0.105641  0.119174  0  1.05085  0
H  H29  1  0.47102238  0.33389859  0.69004541  1  0  0.106933  0  0.979132  0  0  0.120395  0  1.049795  0  0  0.121791  0  1.048571  0  0  0.105641  0.119276  0  1.050754  0
H  H30  1  0.76609027  0.83030200  0.97919928  1  0  0.110237  0  0.933632  0  0  0.122122  0  0.990203  0  0  0.125201  0  0.988307  0  0  0.109024  0.11986  0  0.991667  0
H  H31  1  0.26609241  0.16970353  0.02079919  1  0  0.110222  0  0.933599  0  0  0.122103  0  0.990177  0  0  0.125183  0  0.988277  0  0  0.109012  0.119842  0  0.991639  0
H  H32  1  0.35744346  0.48852115  0.97844742  1  0  0.051403  0  0.950648  0  0  0.072208  0  1.011777  0  0  0.072627  0  1.012254  0  0  0.082918  0.070929  0  1.013392  0
H  H33  1  0.85744105  0.51148184  0.02155213  1  0  0.051379  0  0.950636  0  0  0.072168  0  1.011788  0  0  0.072587  0  1.012266  0  0  0.082876  0.070888  0  1.013404  0
H  H34  1  0.45756334  0.50123341  0.85118880  1  0  0.073492  0  0.959835  0  0  0.091051  0  1.023449  0  0  0.092458  0  1.02299  0  0  0.092613  0.090112  0  1.023611  0
H  H35  1  0.95756344  0.49876975  0.14881189  1  0  0.073472  0  0.959828  0  0  0.09102  0  1.023464  0  0  0.092425  0  1.023006  0  0  0.092606  0.090081  0  1.023623  0
H  H36  1  0.66089802  0.45886151  0.96983568  1  0  0.057877  0  0.946904  0  0  0.07868  0  1.006067  0  0  0.079392  0  1.006405  0  0  0.084981  0.077267  0  1.007642  0
H  H37  1  0.16089793  0.54113741  0.03016596  1  0  0.057852  0  0.946856  0  0  0.078651  0  1.006051  0  0  0.079362  0  1.00639  0  0  0.084968  0.077235  0  1.007631  0
H  H38  1  0.54723523  0.33666934  0.98522717  1  0  0.04642  0  0.975703  0  0  0.060792  0  1.047122  0  0  0.0615  0  1.047371  0  0  0.076518  0.060482  0  1.046671  0
H  H39  1  0.04723303  0.66333322  0.01477159  1  0  0.046474  0  0.975697  0  0  0.060832  0  1.047145  0  0  0.061541  0  1.04739  0  0  0.076505  0.060521  0  1.046694  0
H  H40  1  0.46400160  0.42163031  0.17352677  1  0  0.067086  0  0.940134  0  0  0.085486  0  1.000003  0  0  0.085711  0  1.001647  0  0  0.086179  0.085375  0  0.998895  0
H  H41  1  0.96400218  0.57836544  0.82647209  1  0  0.067078  0  0.940177  0  0  0.085455  0  1.000084  0  0  0.085681  0  1.001733  0  0  0.086165  0.085345  0  0.998975  0
H  H42  1  0.63788951  0.39825441  0.18183874  1  0  0.071599  0  0.931827  0  0  0.09025  0  0.989878  0  0  0.091311  0  0.99001  0  0  0.092152  0.089485  0  0.98995  0
H  H43  1  0.13788643  0.60174377  0.81816195  1  0  0.07157  0  0.931887  0  0  0.090258  0  0.989907  0  0  0.091322  0  0.990041  0  0  0.092153  0.089492  0  0.989981  0
H  H44  1  0.40608643  0.71010391  0.93466487  1  0  0.05898  0  0.952101  0  0  0.077786  0  1.013513  0  0  0.078125  0  1.014331  0  0  0.085428  0.0775  0  1.013139  0
H  H45  1  0.90608809  0.28989873  0.06533305  1  0  0.059  0  0.952112  0  0  0.077804  0  1.013525  0  0  0.078145  0  1.014339  0  0  0.085434  0.077519  0  1.01315  0
H  H46  1  0.57818985  0.67891535  0.93958139  1  0  0.055299  0  0.934103  0  0  0.075668  0  0.994559  0  0  0.076219  0  0.994874  0  0  0.085002  0.075274  0  0.994454  0
H  H47  1  0.07818880  0.32108604  0.06042007  1  0  0.05525  0  0.934121  0  0  0.07565  0  0.994552  0  0  0.076201  0  0.994867  0  0  0.084994  0.075257  0  0.994448  0
H  H48  1  0.50344161  0.77015291  0.13001749  1  0  0.061923  0  0.953434  0  0  0.076842  0  1.019803  0  0  0.077986  0  1.019642  0  0  0.083623  0.076149  0  1.019734  0
H  H49  1  0.00344594  0.22984628  0.86998376  1  0  0.061912  0  0.953417  0  0  0.076847  0  1.01977  0  0  0.077993  0  1.019606  0  0  0.083633  0.076153  0  1.019698  0
H  H50  1  0.37899501  0.65556552  0.14340011  1  0  0.068106  0  0.927563  0  0  0.087011  0  0.987434  0  0  0.088123  0  0.987284  0  0  0.088782  0.086021  0  0.987989  0
H  H51  1  0.87899773  0.34443457  0.85659682  1  0  0.068128  0  0.92755  0  0  0.087019  0  0.987427  0  0  0.088132  0  0.987278  0  0  0.0888  0.086027  0  0.98798  0
H  H52  1  0.86414942  0.15137213  0.59039734  1  0  0.061364  0  0.908536  0  0  0.081199  0  0.965837  0  0  0.08134  0  0.965605  0  0  0.107872  0.08085  0  0.966287  0
H  H53  1  0.36414984  0.84862801  0.40960747  1  0  0.061403  0  0.908553  0  0  0.081244  0  0.965838  0  0  0.081386  0  0.965606  0  0  0.10787  0.080893  0  0.966295  0
H  H54  1  0.02764707  0.20134934  0.55874482  1  0  0.068654  0  0.95122  0  0  0.081037  0  1.021543  0  0  0.081534  0  1.021496  0  0  0.107856  0.080518  0  1.021664  0
H  H55  1  0.52765245  0.79864967  0.44125649  1  0  0.068646  0  0.951222  0  0  0.081014  0  1.021563  0  0  0.081517  0  1.021505  0  0  0.107841  0.080495  0  1.021687  0
C  C56  1  0.66245698  0.58405980  0.37797178  1  0  0.76419  0  3.912089  0  0  0.706771  0  4.210253  0  0  0.742042  0  4.203027  0  0  0.315596  0.682762  0  4.214336  0
C  C57  1  0.16245391  0.41593820  0.62202897  1  0  0.764099  0  3.912037  0  0  0.706707  0  4.2102  0  0  0.741982  0  4.202976  0  0  0.315589  0.682697  0  4.214281  0
C  C58  1  0.80620411  0.68943395  0.62783737  1  0  -0.122975  0  3.750605  0  0  -0.096016  0  3.994864  0  0  -0.103721  0  4.017331  0  0  -0.02079  -0.091559  0  3.980416  0
C  C59  1  0.30620315  0.31056483  0.37216200  1  0  -0.122968  0  3.750697  0  0  -0.096028  0  3.995018  0  0  -0.103734  0  4.017494  0  0  -0.020757  -0.091572  0  3.980573  0
C  C60  1  0.01107601  0.80336820  0.61402274  1  0  -0.125748  0  3.710153  0  0  -0.142817  0  3.956515  0  0  -0.147176  0  3.976525  0  0  -0.089703  -0.139917  0  3.942865  0
C  C61  1  0.51107254  0.19663184  0.38597941  1  0  -0.125806  0  3.710204  0  0  -0.142923  0  3.956539  0  0  -0.147282  0  3.97655  0  0  -0.089755  -0.14002  0  3.942889  0
C  C62  1  0.87227336  0.02540708  0.25337669  1  0  -0.161858  0  3.742305  0  0  -0.147289  0  3.991831  0  0  -0.157824  0  4.013119  0  0  -0.02582  -0.140612  0  3.977436  0
C  C63  1  0.37227376  0.97459672  0.74662292  1  0  -0.16199  0  3.742749  0  0  -0.147428  0  3.992244  0  0  -0.157964  0  4.013534  0  0  -0.025795  -0.140751  0  3.977848  0
C  C64  1  0.89539222  0.10588182  0.35866021  1  0  0.557474  0  3.867221  0  0  0.506845  0  4.161202  0  0  0.537081  0  4.159039  0  0  0.236774  0.486965  0  4.160771  0
C  C65  1  0.39539698  0.89412641  0.64134039  1  0  0.557431  0  3.86722  0  0  0.506865  0  4.161121  0  0  0.537103  0  4.158955  0  0  0.236738  0.486982  0  4.160693  0
C  C66  1  0.81340308  0.90208583  0.69032980  1  0  -0.122365  0  3.730167  0  0  -0.139699  0  3.977108  0  0  -0.144388  0  3.998132  0  0  -0.094117  -0.136939  0  3.963544  0
C  C67  1  0.31339980  0.09791289  0.30967047  1  0  -0.122181  0  3.730067  0  0  -0.139526  0  3.976976  0  0  -0.144214  0  3.998001  0  0  -0.093974  -0.136772  0  3.96342  0
C  C68  1  0.94060343  0.69363308  0.59795043  1  0  -0.047499  0  3.746216  0  0  -0.073628  0  3.998766  0  0  -0.071525  0  4.017878  0  0  -0.079708  -0.074617  0  3.985988  0
C  C69  1  0.44059663  0.30636286  0.40204661  1  0  -0.04748  0  3.746388  0  0  -0.073596  0  3.998971  0  0  -0.071487  0  4.018073  0  0  -0.07971  -0.074599  0  3.986186  0
C  C70  1  0.94816984  0.90939625  0.65753068  1  0  0.104537  0  3.737696  0  0  0.124595  0  3.971868  0  0  0.126975  0  3.995758  0  0  -0.008275  0.123003  0  3.955762  0
C  C71  1  0.44816773  0.09060331  0.34246819  1  0  0.104429  0  3.737761  0  0  0.124604  0  3.971748  0  0  0.126984  0  3.995636  0  0  -0.008331  0.123007  0  3.955641  0
C  C72  1  0.02011756  0.03142218  0.65870871  1  0  -0.180766  0  3.68779  0  0  -0.223413  0  3.937938  0  0  -0.225402  0  3.949955  0  0  -0.155395  -0.222111  0  3.929818  0
C  C73  1  0.52011615  0.96857781  0.34129171  1  0  -0.180863  0  3.687823  0  0  -0.223505  0  3.937893  0  0  -0.225497  0  3.949914  0  0  -0.155413  -0.222185  0  3.92975  0
C  C74  1  0.57864211  0.58965515  0.17358221  1  0  0.190081  0  3.613429  0  0  0.168519  0  3.861353  0  0  0.173402  0  3.876944  0  0  0.008888  0.165248  0  3.85052  0
C  C75  1  0.07864372  0.41034531  0.82641924  1  0  0.190017  0  3.613518  0  0  0.168485  0  3.861432  0  0  0.173369  0  3.877028  0  0  0.008856  0.165201  0  3.850603  0
C  C76  1  0.74252378  0.79291337  0.67622294  1  0  -0.059858  0  3.756948  0  0  -0.083583  0  4.004656  0  0  -0.08226  0  4.024872  0  0  -0.084445  -0.084462  0  3.991265  0
C  C77  1  0.24251660  0.20708302  0.32379029  1  0  -0.059899  0  3.756945  0  0  -0.083696  0  4.004677  0  0  -0.082374  0  4.024896  0  0  -0.084549  -0.084572  0  3.991284  0
C  C78  1  0.91623413  0.90191838  0.23996497  1  0  0.266743  0  3.758559  0  0  0.246489  0  4.017213  0  0  0.261015  0  4.03143  0  0  0.089974  0.236678  0  4.007503  0
C  C79  1  0.41623229  0.09808510  0.76003387  1  0  0.266752  0  3.758777  0  0  0.246494  0  4.017409  0  0  0.261019  0  4.03163  0  0  0.089973  0.236683  0  4.007697  0
C  C80  1  0.79386082  0.07658934  0.16439013  1  0  -0.114212  0  3.754761  0  0  -0.150331  0  4.009269  0  0  -0.148223  0  4.027679  0  0  -0.085853  -0.151666  0  3.997448  0
C  C81  1  0.29386394  0.92341691  0.83560843  1  0  -0.113891  0  3.754705  0  0  -0.150029  0  4.009187  0  0  -0.147916  0  4.027595  0  0  -0.085762  -0.15136  0  3.997365  0
C  C82  1  0.75809196  0.00774735  0.06607386  1  0  0.107376  0  3.836541  0  0  0.119904  0  4.106606  0  0  0.119929  0  4.128386  0  0  0.000805  0.119554  0  4.091891  0
C  C83  1  0.25809679  0.99226009  0.93392374  1  0  0.10718  0  3.836656  0  0  0.119708  0  4.106727  0  0  0.119732  0  4.128509  0  0  0.000719  0.11935  0  4.092023  0
C  C84  1  0.87393168  0.83191480  0.14302156  1  0  -0.18095  0  3.752742  0  0  -0.20265  0  4.01213  0  0  -0.208935  0  4.030769  0  0  -0.1043  -0.198536  0  3.999674  0
C  C85  1  0.37393452  0.16809085  0.85697544  1  0  -0.180929  0  3.752806  0  0  -0.2026  0  4.01217  0  0  -0.208888  0  4.030811  0  0  -0.10433  -0.198486  0  3.999714  0
C  C86  1  0.05238758  0.73313985  0.30619411  1  0  -0.082783  0  3.595725  0  0  -0.187011  0  3.866522  0  0  -0.179498  0  3.868723  0  0  -0.143536  -0.192015  0  3.865149  0
C  C87  1  0.55238548  0.26685993  0.69380199  1  0  -0.082915  0  3.595742  0  0  -0.187174  0  3.866519  0  0  -0.179659  0  3.868716  0  0  -0.143534  -0.192177  0  3.865146  0
C  C88  1  0.79596726  0.88450990  0.05564196  1  0  -0.085263  0  3.758005  0  0  -0.113259  0  4.013898  0  0  -0.110673  0  4.03093  0  0  -0.086734  -0.114598  0  4.002048  0
C  C89  1  0.29596984  0.11549819  0.94435400  1  0  -0.08528  0  3.758083  0  0  -0.113281  0  4.01396  0  0  -0.110694  0  4.030993  0  0  -0.086742  -0.114618  0  4.002113  0
C  C90  1  0.45702967  0.51534113  0.94662437  1  0  -0.115071  0  3.684673  0  0  -0.155021  0  3.946106  0  0  -0.156187  0  3.96056  0  0  -0.170698  -0.153589  0  3.936112  0
C  C91  1  0.95702859  0.48465744  0.05337451  1  0  -0.114994  0  3.684753  0  0  -0.154932  0  3.94623  0  0  -0.156099  0  3.960686  0  0  -0.170634  -0.153499  0  3.936234  0
C  C92  1  0.56224528  0.43486673  0.00554477  1  0  -0.102585  0  3.707306  0  0  -0.141101  0  3.966486  0  0  -0.142174  0  3.981725  0  0  -0.171039  -0.139589  0  3.955681  0
C  C93  1  0.06224409  0.56513389  0.99445137  1  0  -0.102632  0  3.707343  0  0  -0.141163  0  3.966581  0  0  -0.14223  0  3.981819  0  0  -0.171044  -0.139652  0  3.955774  0
C  C94  1  0.56038024  0.45360144  0.13867096  1  0  -0.164458  0  3.661472  0  0  -0.203764  0  3.915436  0  0  -0.206258  0  3.930614  0  0  -0.166428  -0.202001  0  3.904758  0
C  C95  1  0.06037977  0.54639734  0.86132779  1  0  -0.164474  0  3.661689  0  0  -0.203804  0  3.915672  0  0  -0.206312  0  3.930872  0  0  -0.16643  -0.202033  0  3.904984  0
C  C96  1  0.48115097  0.65114581  0.97646017  1  0  -0.092618  0  3.689417  0  0  -0.131025  0  3.94928  0  0  -0.131879  0  3.964811  0  0  -0.164945  -0.130236  0  3.938224  0
C  C97  1  0.98114899  0.34885532  0.02354143  1  0  -0.09256  0  3.689618  0  0  -0.130988  0  3.949492  0  0  -0.131842  0  3.965028  0  0  -0.164946  -0.1302  0  3.938431  0
C  C98  1  0.48010486  0.67332474  0.10927758  1  0  -0.162076  0  3.676389  0  0  -0.204361  0  3.938374  0  0  -0.206187  0  3.951918  0  0  -0.165202  -0.202913  0  3.9287  0
C  C99  1  0.98010685  0.32667639  0.89072578  1  0  -0.162087  0  3.676397  0  0  -0.204374  0  3.938373  0  0  -0.206202  0  3.951918  0  0  -0.165204  -0.202917  0  3.928686  0
C  C100  1  0.96439314  0.11905105  0.56549015  1  0  0.074736  0  3.633356  0  0  0.012689  0  3.901585  0  0  0.018809  0  3.911535  0  0  -0.054764  0.008735  0  3.89484  0
C  C101  1  0.46439535  0.88094834  0.43451490  1  0  0.074742  0  3.633284  0  0  0.012716  0  3.90151  0  0  0.018839  0  3.911459  0  0  -0.054671  0.008754  0  3.894763  0
S  S102  1  0.70974815  0.55484986  0.60113424  1  0  1.240491  0  5.538416  0  0  1.154518  0  6.045819  0  0  1.199231  0  6.027679  0  0  0.527711  1.123858  0  6.05727  0
S  S103  1  0.20973813  0.44514873  0.39886313  1  0  1.240551  0  5.538029  0  0  1.154571  0  6.045436  0  0  1.199286  0  6.02729  0  0  0.52766  1.123912  0  6.056891  0
N  N104  1  0.61578391  0.58036529  0.49213606  1  0  -0.832802  0  3.033144  0  0  -0.788455  0  3.348384  0  0  -0.814063  0  3.344168  0  0  -0.494355  -0.770453  0  3.350654  0
N  N105  1  0.11577944  0.41963121  0.50786543  1  0  -0.83285  0  3.033054  0  0  -0.788524  0  3.348294  0  0  -0.814119  0  3.344043  0  0  -0.49438  -0.77052  0  3.350561  0
N  N106  1  0.56274491  0.60691275  0.29984125  1  0  -0.506421  0  3.236747  0  0  -0.451436  0  3.486345  0  0  -0.473109  0  3.492838  0  0  -0.433601  -0.436109  0  3.480957  0
N  N107  1  0.06275025  0.39308415  0.70016011  1  0  -0.505894  0  3.236679  0  0  -0.451077  0  3.486109  0  0  -0.472751  0  3.492606  0  0  -0.433441  -0.435758  0  3.48074  0
N  N108  1  0.95619362  0.05636786  0.45229682  1  0  -0.431374  0  3.337445  0  0  -0.368413  0  3.587062  0  0  -0.390978  0  3.596826  0  0  -0.420926  -0.353168  0  3.57997  0
N  N109  1  0.45619664  0.94363069  0.54770557  1  0  -0.431202  0  3.337587  0  0  -0.368347  0  3.587198  0  0  -0.39089  0  3.596991  0  0  -0.420942  -0.353094  0  3.580094  0
Cl  Cl110  1  0.66144739  0.07453410  0.95756954  1  0  -0.102906  0  1.365101  0  0  -0.084524  0  1.587627  0  0  -0.088802  0  1.584407  0  0  0.004449  -0.081469  0  1.590075  0
Cl  Cl111  1  0.16145393  0.92546852  0.04243127  1  0  -0.102868  0  1.365002  0  0  -0.084487  0  1.587519  0  0  -0.088765  0  1.584299  0  0  0.004463  -0.08143  0  1.589969  0
O  O112  1  0.80281330  0.45163646  0.58405524  1  0  -0.688053  0  1.979082  0  0  -0.637545  0  2.233965  0  0  -0.656332  0  2.218587  0  0  -0.378837  -0.624358  0  2.244023  0
O  O113  1  0.30281239  0.54836049  0.41594498  1  0  -0.688144  0  1.978942  0  0  -0.637581  0  2.233787  0  0  -0.656373  0  2.218412  0  0  -0.378819  -0.624398  0  2.24385  0
O  O114  1  0.78140717  0.56989426  0.34540011  1  0  -0.708349  0  1.909983  0  0  -0.663036  0  2.146465  0  0  -0.683554  0  2.134825  0  0  -0.417013  -0.648594  0  2.154111  0
O  O115  1  0.28141403  0.43009914  0.65460352  1  0  -0.708342  0  1.909752  0  0  -0.663056  0  2.146237  0  0  -0.68358  0  2.134606  0  0  -0.417061  -0.64861  0  2.153886  0
O  O116  1  0.61980654  0.54335070  0.70149070  1  0  -0.661097  0  1.938937  0  0  -0.614638  0  2.190434  0  0  -0.634726  0  2.177541  0  0  -0.368194  -0.600499  0  2.198743  0
O  O117  1  0.11979610  0.45665037  0.29851174  1  0  -0.66108  0  1.938946  0  0  -0.6146  0  2.190449  0  0  -0.634686  0  2.177548  0  0  -0.368154  -0.600461  0  2.198756  0
O  O118  1  0.00126146  0.85641818  0.32219498  1  0  -0.263338  0  2.400115  0  0  -0.181455  0  2.63706  0  0  -0.201343  0  2.640651  0  0  -0.182728  -0.167409  0  2.633978  0
O  O119  1  0.50126138  0.14358195  0.67780539  1  0  -0.263275  0  2.40018  0  0  -0.181412  0  2.637138  0  0  -0.201296  0  2.640726  0  0  -0.182725  -0.167367  0  2.634052  0
O  O120  1  0.85334010  0.21490689  0.36017967  1  0  -0.647965  0  1.928079  0  0  -0.606743  0  2.169203  0  0  -0.62598  0  2.157013  0  0  -0.401254  -0.592994  0  2.175971  0
O  O121  1  0.35334978  0.78508873  0.63982505  1  0  -0.648035  0  1.927794  0  0  -0.606826  0  2.168885  0  0  -0.626071  0  2.156704  0  0  -0.401264  -0.593057  0  2.175621  0
