# generated using pymatgen
data_K2H20C12S2N4O7
_symmetry_space_group_name_H-M   'P 1'
_cell_length_a   7.44154167
_cell_length_b   10.83862886
_cell_length_c   13.03670405
_cell_angle_alpha   114.56934963
_cell_angle_beta   89.99999620
_cell_angle_gamma   89.99999043
_symmetry_Int_Tables_number   1
_chemical_formula_structural   K2H20C12S2N4O7
_chemical_formula_sum   'K4 H40 C24 S4 N8 O14'
_cell_volume   956.28652521
_cell_formula_units_Z   2
loop_
 _symmetry_equiv_pos_site_id
 _symmetry_equiv_pos_as_xyz
  1  'x, y, z'
loop_
 _atom_site_type_symbol
 _atom_site_label
 _atom_site_symmetry_multiplicity
 _atom_site_fract_x
 _atom_site_fract_y
 _atom_site_fract_z
 _atom_site_occupancy
 _atom_site_hle17_bader_spin_density
 _atom_site_hle17_ddec_charge
 _atom_site_hle17_ddec_spin_density
 _atom_site_hle17_ddec_sum_bond_order
 _atom_site_hle17_magmom
 _atom_site_hse06_10hf_bader_spin_density
 _atom_site_hse06_10hf_ddec_charge
 _atom_site_hse06_10hf_ddec_spin_density
 _atom_site_hse06_10hf_ddec_sum_bond_order
 _atom_site_hse06_10hf_magmom
 _atom_site_hse06_bader_spin_density
 _atom_site_hse06_ddec_charge
 _atom_site_hse06_ddec_spin_density
 _atom_site_hse06_ddec_sum_bond_order
 _atom_site_hse06_magmom
 _atom_site_pbe_bader_spin_density
 _atom_site_pbe_cm5_charge
 _atom_site_pbe_ddec_charge
 _atom_site_pbe_ddec_spin_density
 _atom_site_pbe_ddec_sum_bond_order
 _atom_site_pbe_magmom
K  K0  1  0.39451098  0.11767218  0.00005637  1  0  0.940338  0  0.416572  0  0  0.898481  0  0.577202  0  0  0.912458  0  0.555871  0  0  0.772371  0.887674  0  0.592883  0
K  K1  1  0.89450937  0.88232547  0.99994314  1  0  0.940328  0  0.416577  0  0  0.898475  0  0.577204  0  0  0.912453  0  0.555869  0  0  0.772369  0.887672  0  0.592883  0
K  K2  1  0.74532932  0.45265581  0.99995087  1  0  0.923391  0  0.438287  0  0  0.874394  0  0.617948  0  0  0.888915  0  0.593903  0  0  0.731571  0.863497  0  0.635089  0
K  K3  1  0.24533082  0.54734593  0.00004929  1  0  0.923387  0  0.438292  0  0  0.874395  0  0.61795  0  0  0.888912  0  0.593908  0  0  0.731566  0.863492  0  0.63509  0
H  H4  1  0.02493835  0.19459466  0.18677548  1  0  0.326606  0  0.9491  0  0  0.312371  0  1.016615  0  0  0.319761  0  1.010421  0  0  0.280791  0.307099  0  1.021037  0
H  H5  1  0.52493812  0.80540610  0.81322512  1  0  0.326612  0  0.949089  0  0  0.31238  0  1.0166  0  0  0.319769  0  1.010406  0  0  0.280799  0.307107  0  1.021024  0
H  H6  1  0.52502011  0.99218908  0.18678509  1  0  0.326713  0  0.949245  0  0  0.312051  0  1.017255  0  0  0.319437  0  1.011056  0  0  0.280672  0.306812  0  1.02161  0
H  H7  1  0.02501896  0.00781067  0.81321516  1  0  0.326782  0  0.949185  0  0  0.312136  0  1.017166  0  0  0.319523  0  1.01096  0  0  0.28071  0.306893  0  1.021523  0
H  H8  1  0.55747712  0.55825336  0.72312153  1  0  0.305876  0  0.946026  0  0  0.290067  0  1.007604  0  0  0.297176  0  1.002694  0  0  0.282107  0.284957  0  1.01118  0
H  H9  1  0.05747861  0.44174638  0.27687871  1  0  0.305913  0  0.945985  0  0  0.290104  0  1.007557  0  0  0.297213  0  1.002648  0  0  0.282122  0.284997  0  1.011128  0
H  H10  1  0.05751893  0.16487580  0.72309131  1  0  0.306363  0  0.945081  0  0  0.290474  0  1.007116  0  0  0.297619  0  1.002129  0  0  0.282341  0.285368  0  1.010682  0
H  H11  1  0.55751877  0.83512292  0.27690858  1  0  0.306381  0  0.945054  0  0  0.290499  0  1.007076  0  0  0.297643  0  1.002089  0  0  0.282358  0.285393  0  1.010645  0
H  H12  1  0.72665713  0.45687895  0.73101703  1  0  0.305515  0  0.952759  0  0  0.294019  0  1.008407  0  0  0.301481  0  1.002127  0  0  0.286918  0.28863  0  1.012918  0
H  H13  1  0.22665860  0.54312178  0.26898355  1  0  0.305509  0  0.95277  0  0  0.294013  0  1.008416  0  0  0.301475  0  1.002136  0  0  0.286917  0.288623  0  1.012933  0
H  H14  1  0.22667473  0.27418974  0.73105740  1  0  0.305  0  0.95303  0  0  0.293688  0  1.008577  0  0  0.301165  0  1.002275  0  0  0.286707  0.288302  0  1.013113  0
H  H15  1  0.72667593  0.72580997  0.26894207  1  0  0.304996  0  0.953024  0  0  0.293687  0  1.00857  0  0  0.301163  0  1.002269  0  0  0.286709  0.288303  0  1.013105  0
H  H16  1  0.83978159  0.14444125  0.35633918  1  0  0.096266  0  0.956767  0  0  0.105766  0  1.0197  0  0  0.108231  0  1.018866  0  0  0.103032  0.103932  0  1.02036  0
H  H17  1  0.33978160  0.85556047  0.64366097  1  0  0.096291  0  0.95684  0  0  0.105795  0  1.019762  0  0  0.108258  0  1.018928  0  0  0.103045  0.103959  0  1.020423  0
H  H18  1  0.33979245  0.21190720  0.35632366  1  0  0.096286  0  0.957077  0  0  0.106173  0  1.019611  0  0  0.10865  0  1.018799  0  0  0.103108  0.10428  0  1.020355  0
H  H19  1  0.83979494  0.78809148  0.64367621  1  0  0.09624  0  0.9571  0  0  0.106131  0  1.019634  0  0  0.108607  0  1.018824  0  0  0.103103  0.104241  0  1.020374  0
H  H20  1  0.78966561  0.23495665  0.56111054  1  0  0.102772  0  0.968593  0  0  0.112991  0  1.030083  0  0  0.115677  0  1.030316  0  0  0.100959  0.110992  0  1.030254  0
H  H21  1  0.28966701  0.76504508  0.43888962  1  0  0.1028  0  0.968533  0  0  0.113005  0  1.030051  0  0  0.115692  0  1.030282  0  0  0.10097  0.111006  0  1.030229  0
H  H22  1  0.28976381  0.32624953  0.56111541  1  0  0.102895  0  0.968633  0  0  0.113234  0  1.030063  0  0  0.11595  0  1.030222  0  0  0.101046  0.111237  0  1.030257  0
H  H23  1  0.78976501  0.67374815  0.43888334  1  0  0.102829  0  0.96867  0  0  0.113198  0  1.030053  0  0  0.115911  0  1.030221  0  0  0.101041  0.111202  0  1.03025  0
H  H24  1  0.48572586  0.56744525  0.54926525  1  0  0.099186  0  0.993287  0  0  0.108211  0  1.057778  0  0  0.110074  0  1.059748  0  0  0.097335  0.106852  0  1.056536  0
H  H25  1  0.98572981  0.43255442  0.45073495  1  0  0.099176  0  0.993292  0  0  0.108204  0  1.057773  0  0  0.110067  0  1.059743  0  0  0.09733  0.106844  0  1.056527  0
H  H26  1  0.98579692  0.98191966  0.54930219  1  0  0.09902  0  0.992651  0  0  0.107601  0  1.057549  0  0  0.109531  0  1.059441  0  0  0.097259  0.106215  0  1.056325  0
H  H27  1  0.48579716  0.01807899  0.45069843  1  0  0.099036  0  0.992713  0  0  0.107599  0  1.057605  0  0  0.109529  0  1.059496  0  0  0.097266  0.106209  0  1.056395  0
H  H28  1  0.53224985  0.47598649  0.34407891  1  0  0.089519  0  0.975907  0  0  0.100386  0  1.038767  0  0  0.10357  0  1.036271  0  0  0.10304  0.097973  0  1.040756  0
H  H29  1  0.03225262  0.52401223  0.65592022  1  0  0.089539  0  0.975902  0  0  0.100402  0  1.038759  0  0  0.103592  0  1.036262  0  0  0.103037  0.097986  0  1.040742  0
H  H30  1  0.03233457  0.86810767  0.34412193  1  0  0.089595  0  0.97609  0  0  0.100641  0  1.038652  0  0  0.10392  0  1.036069  0  0  0.103182  0.098196  0  1.040637  0
H  H31  1  0.53233453  0.13189106  0.65587797  1  0  0.089611  0  0.976086  0  0  0.100656  0  1.038649  0  0  0.103935  0  1.036064  0  0  0.103193  0.098209  0  1.040637  0
H  H32  1  0.98744449  0.37157998  0.76276689  1  0  0.38905  0  0.929244  0  0  0.354968  0  0.999911  0  0  0.364893  0  0.985923  0  0  0.281494  0.348005  0  1.009712  0
H  H33  1  0.48744326  0.62841969  0.23723255  1  0  0.389051  0  0.929239  0  0  0.354977  0  0.999892  0  0  0.364902  0  0.985905  0  0  0.281502  0.34801  0  1.009703  0
H  H34  1  0.48740832  0.39119913  0.76279794  1  0  0.388608  0  0.929469  0  0  0.354525  0  1.000157  0  0  0.364437  0  0.986177  0  0  0.281286  0.347586  0  1.009926  0
H  H35  1  0.98740821  0.60880155  0.23720261  1  0  0.388617  0  0.929476  0  0  0.354535  0  1.000162  0  0  0.364447  0  0.986181  0  0  0.2813  0.347595  0  1.009932  0
H  H36  1  0.99839113  0.53278805  0.81905806  1  0  0.414428  0  0.894878  0  0  0.38746  0  0.953501  0  0  0.397089  0  0.939211  0  0  0.290906  0.380635  0  0.963618  0
H  H37  1  0.49839263  0.46721264  0.18094173  1  0  0.414473  0  0.894812  0  0  0.38748  0  0.953466  0  0  0.397108  0  0.939178  0  0  0.290915  0.380659  0  0.963577  0
H  H38  1  0.49836439  0.28629273  0.81907536  1  0  0.413764  0  0.8958  0  0  0.387191  0  0.953933  0  0  0.396807  0  0.939648  0  0  0.290983  0.380387  0  0.964018  0
H  H39  1  0.99836561  0.71370694  0.18092408  1  0  0.413761  0  0.895802  0  0  0.387185  0  0.953941  0  0  0.396801  0  0.939655  0  0  0.290979  0.380384  0  0.964019  0
H  H40  1  0.04380809  0.29822268  0.06607892  1  0  0.39933  0  0.918054  0  0  0.368394  0  0.983994  0  0  0.378561  0  0.969359  0  0  0.273347  0.361252  0  0.994243  0
H  H41  1  0.54380788  0.70177808  0.93392091  1  0  0.399324  0  0.918058  0  0  0.368392  0  0.983992  0  0  0.378558  0  0.969358  0  0  0.27335  0.361252  0  0.99424  0
H  H42  1  0.54387242  0.76781166  0.06603472  1  0  0.399401  0  0.917886  0  0  0.368489  0  0.983722  0  0  0.378645  0  0.969109  0  0  0.273272  0.361365  0  0.993951  0
H  H43  1  0.04387255  0.23218909  0.93396588  1  0  0.399422  0  0.917859  0  0  0.368509  0  0.983697  0  0  0.378664  0  0.969085  0  0  0.273273  0.361382  0  0.993931  0
C  C44  1  0.69010694  0.30470947  0.33610530  1  0  -0.170007  0  3.789309  0  0  -0.147781  0  4.047603  0  0  -0.155638  0  4.068233  0  0  -0.040648  -0.142901  0  4.033655  0
C  C45  1  0.19010833  0.69529227  0.66389641  1  0  -0.169882  0  3.789116  0  0  -0.147725  0  4.047498  0  0  -0.155577  0  4.068121  0  0  -0.040644  -0.142845  0  4.033546  0
C  C46  1  0.19019578  0.03139930  0.33613499  1  0  -0.16904  0  3.787624  0  0  -0.146937  0  4.045995  0  0  -0.154669  0  4.066436  0  0  -0.040784  -0.142068  0  4.032045  0
C  C47  1  0.69019554  0.96859940  0.66386413  1  0  -0.169015  0  3.787506  0  0  -0.147048  0  4.046073  0  0  -0.154785  0  4.066522  0  0  -0.040805  -0.142167  0  4.0321  0
C  C48  1  0.76122125  0.23688478  0.39813269  1  0  -0.05267  0  3.778356  0  0  -0.076129  0  4.030659  0  0  -0.072905  0  4.049051  0  0  -0.088748  -0.077549  0  4.017755  0
C  C49  1  0.26122263  0.76311695  0.60186747  1  0  -0.052733  0  3.778379  0  0  -0.076168  0  4.030686  0  0  -0.072942  0  4.049073  0  0  -0.088749  -0.077584  0  4.01778  0
C  C50  1  0.26129124  0.16126618  0.39814247  1  0  -0.053019  0  3.778656  0  0  -0.076689  0  4.030956  0  0  -0.073546  0  4.049397  0  0  -0.088706  -0.078091  0  4.018093  0
C  C51  1  0.76129104  0.83873251  0.60185740  1  0  -0.052983  0  3.778544  0  0  -0.076625  0  4.030891  0  0  -0.073476  0  4.04933  0  0  -0.088729  -0.078031  0  4.018022  0
C  C52  1  0.73444721  0.28857293  0.51383602  1  0  -0.175314  0  3.707801  0  0  -0.189719  0  3.957951  0  0  -0.196768  0  3.978771  0  0  -0.098324  -0.185304  0  3.944159  0
C  C53  1  0.23444996  0.71142779  0.48616380  1  0  -0.175374  0  3.707768  0  0  -0.189757  0  3.95793  0  0  -0.196808  0  3.97875  0  0  -0.09836  -0.18535  0  3.944152  0
C  C54  1  0.23454140  0.22533009  0.51385312  1  0  -0.175202  0  3.707259  0  0  -0.190053  0  3.957632  0  0  -0.197101  0  3.978534  0  0  -0.09894  -0.185646  0  3.943836  0
C  C55  1  0.73454122  0.77466861  0.48614676  1  0  -0.175119  0  3.707126  0  0  -0.189955  0  3.957505  0  0  -0.197004  0  3.978405  0  0  -0.098896  -0.185553  0  3.943715  0
C  C56  1  0.63718509  0.40961947  0.57069494  1  0  0.305546  0  3.823668  0  0  0.299385  0  4.071363  0  0  0.310027  0  4.09074  0  0  0.094951  0.291908  0  4.05835  0
C  C57  1  0.13718922  0.59038026  0.42930530  1  0  0.305615  0  3.823665  0  0  0.299394  0  4.071441  0  0  0.310037  0  4.090817  0  0  0.094934  0.291919  0  4.058428  0
C  C58  1  0.13725377  0.16115930  0.57070436  1  0  0.30406  0  3.824054  0  0  0.298612  0  4.070989  0  0  0.309196  0  4.090488  0  0  0.095633  0.291211  0  4.057895  0
C  C59  1  0.63725223  0.83883941  0.42929552  1  0  0.304119  0  3.82396  0  0  0.29859  0  4.071004  0  0  0.309175  0  4.090504  0  0  0.095639  0.291194  0  4.057908  0
C  C60  1  0.56222078  0.47424609  0.50707807  1  0  -0.178884  0  3.716465  0  0  -0.193021  0  3.964788  0  0  -0.20019  0  3.986568  0  0  -0.100898  -0.188503  0  3.950258  0
C  C61  1  0.06222357  0.52575263  0.49292106  1  0  -0.178854  0  3.716491  0  0  -0.192971  0  3.964817  0  0  -0.20014  0  3.986599  0  0  -0.100876  -0.188455  0  3.950281  0
C  C62  1  0.06228276  0.03290503  0.50709234  1  0  -0.178006  0  3.715373  0  0  -0.191814  0  3.963376  0  0  -0.19901  0  3.985167  0  0  -0.100893  -0.187318  0  3.948833  0
C  C63  1  0.56228254  0.96709471  0.49290714  1  0  -0.17802  0  3.715461  0  0  -0.191768  0  3.96346  0  0  -0.198963  0  3.985251  0  0  -0.100866  -0.187277  0  3.948931  0
C  C64  1  0.58895181  0.42263339  0.39109558  1  0  -0.055999  0  3.796428  0  0  -0.07988  0  4.047128  0  0  -0.076436  0  4.064831  0  0  -0.0914  -0.08152  0  4.034906  0
C  C65  1  0.08895458  0.57736634  0.60890313  1  0  -0.056106  0  3.796402  0  0  -0.079956  0  4.04711  0  0  -0.076523  0  4.064821  0  0  -0.091415  -0.08159  0  4.034873  0
C  C66  1  0.08902308  0.96849055  0.39111705  1  0  -0.056662  0  3.796267  0  0  -0.080637  0  4.046919  0  0  -0.077339  0  4.06459  0  0  -0.09156  -0.082162  0  4.034653  0
C  C67  1  0.58902307  0.03150919  0.60888243  1  0  -0.056705  0  3.796222  0  0  -0.080648  0  4.046894  0  0  -0.077346  0  4.064564  0  0  -0.091582  -0.082172  0  4.034625  0
S  S68  1  0.74673770  0.24475939  0.19092682  1  0  1.290163  0  5.566815  0  0  1.198068  0  6.082138  0  0  1.241059  0  6.066858  0  0  0.517766  1.16836  0  6.091734  0
S  S69  1  0.24673771  0.75524133  0.80907299  1  0  1.290117  0  5.566932  0  0  1.198036  0  6.082276  0  0  1.241027  0  6.066994  0  0  0.517757  1.168327  0  6.091873  0
S  S70  1  0.24682238  0.94611032  0.19095112  1  0  1.290251  0  5.564977  0  0  1.198387  0  6.080056  0  0  1.241357  0  6.064725  0  0  0.517913  1.16868  0  6.089687  0
S  S71  1  0.74682369  0.05388939  0.80904835  1  0  1.290228  0  5.564949  0  0  1.198408  0  6.08004  0  0  1.241378  0  6.064712  0  0  0.517901  1.168707  0  6.089658  0
N  N72  1  0.94927100  0.26991218  0.17895546  1  0  -0.904081  0  2.806385  0  0  -0.848623  0  3.06035  0  0  -0.8732  0  3.052121  0  0  -0.572052  -0.831316  0  3.065676  0
N  N73  1  0.44927102  0.73008850  0.82104510  1  0  -0.904077  0  2.806394  0  0  -0.848612  0  3.060343  0  0  -0.873188  0  3.052113  0  0  -0.572067  -0.831307  0  3.065674  0
N  N74  1  0.44937719  0.90905035  0.17900081  1  0  -0.904554  0  2.806156  0  0  -0.848708  0  3.060811  0  0  -0.873366  0  3.052711  0  0  -0.57207  -0.831375  0  3.066022  0
N  N75  1  0.94937849  0.09094932  0.82099864  1  0  -0.904628  0  2.806135  0  0  -0.848796  0  3.060744  0  0  -0.873452  0  3.05264  0  0  -0.572116  -0.831468  0  3.065953  0
N  N76  1  0.61307851  0.46204640  0.68727933  1  0  -0.67879  0  3.128499  0  0  -0.626835  0  3.339749  0  0  -0.646978  0  3.337738  0  0  -0.596826  -0.612398  0  3.341012  0
N  N77  1  0.11307998  0.53795434  0.31272049  1  0  -0.678823  0  3.128447  0  0  -0.626845  0  3.339707  0  0  -0.646987  0  3.337696  0  0  -0.596803  -0.612409  0  3.340973  0
N  N78  1  0.11310150  0.22530027  0.68729929  1  0  -0.678245  0  3.127849  0  0  -0.626788  0  3.338436  0  0  -0.646894  0  3.336388  0  0  -0.597116  -0.612444  0  3.33972  0
N  N79  1  0.61310134  0.77469946  0.31270019  1  0  -0.678288  0  3.127798  0  0  -0.62682  0  3.338422  0  0  -0.646926  0  3.336376  0  0  -0.597147  -0.612483  0  3.339715  0
O  O80  1  0.69460336  0.09955313  0.14064636  1  0  -0.748446  0  1.986337  0  0  -0.696544  0  2.245936  0  0  -0.717073  0  2.232121  0  0  -0.440043  -0.681808  0  2.25497  0
O  O81  1  0.19460333  0.90044761  0.85935423  1  0  -0.748475  0  1.986381  0  0  -0.696568  0  2.245975  0  0  -0.717102  0  2.232168  0  0  -0.440051  -0.681829  0  2.255008  0
O  O82  1  0.19457526  0.04096266  0.14062195  1  0  -0.748824  0  1.985511  0  0  -0.697129  0  2.245287  0  0  -0.717632  0  2.231412  0  0  -0.440427  -0.682454  0  2.254428  0
O  O83  1  0.69457500  0.95903705  0.85937828  1  0  -0.748836  0  1.985493  0  0  -0.697142  0  2.24526  0  0  -0.717644  0  2.231382  0  0  -0.440436  -0.682475  0  2.254402  0
O  O84  1  0.63910274  0.32626045  0.14596346  1  0  -0.750152  0  2.009544  0  0  -0.693816  0  2.264293  0  0  -0.714397  0  2.249368  0  0  -0.421569  -0.679136  0  2.27417  0
O  O85  1  0.13910277  0.67374029  0.85403636  1  0  -0.75012  0  2.009592  0  0  -0.693796  0  2.264352  0  0  -0.714376  0  2.249428  0  0  -0.421554  -0.679115  0  2.27423  0
O  O86  1  0.13928017  0.81958196  0.14601896  1  0  -0.749487  0  2.00868  0  0  -0.693263  0  2.263296  0  0  -0.713842  0  2.248387  0  0  -0.421024  -0.678576  0  2.273133  0
O  O87  1  0.63928010  0.18041776  0.85398128  1  0  -0.749505  0  2.008687  0  0  -0.693282  0  2.263291  0  0  -0.713861  0  2.248381  0  0  -0.421027  -0.678601  0  2.273126  0
O  O88  1  0.92506225  0.45599017  0.81733463  1  0  -0.874331  0  1.823027  0  0  -0.822782  0  1.983737  0  0  -0.841675  0  1.954966  0  0  -0.659706  -0.809297  0  2.003812  0
O  O89  1  0.42506373  0.54401052  0.18266517  1  0  -0.874358  0  1.822976  0  0  -0.822792  0  1.983724  0  0  -0.841683  0  1.954953  0  0  -0.659717  -0.809303  0  2.003797  0
O  O90  1  0.42506102  0.36139481  0.81738093  1  0  -0.87308  0  1.82477  0  0  -0.821918  0  1.984623  0  0  -0.840836  0  1.956071  0  0  -0.659617  -0.808409  0  2.004445  0
O  O91  1  0.92506092  0.63860487  0.18262005  1  0  -0.873092  0  1.824784  0  0  -0.821936  0  1.984642  0  0  -0.840852  0  1.956086  0  0  -0.659624  -0.808427  0  2.004461  0
O  O92  1  0.10282677  0.30666806  0.00003820  1  0  -0.935165  0  1.74598  0  0  -0.886974  0  1.906748  0  0  -0.906202  0  1.877145  0  0  -0.708625  -0.873132  0  1.92726  0
O  O93  1  0.60282656  0.69333269  0.99996163  1  0  -0.935151  0  1.746009  0  0  -0.886964  0  1.906769  0  0  -0.906191  0  1.877168  0  0  -0.708634  -0.873119  0  1.927274  0
