# generated using pymatgen
data_CuH18C30(NO2)4
_symmetry_space_group_name_H-M   'P 1'
_cell_length_a   14.78491413
_cell_length_b   16.68753693
_cell_length_c   17.79022373
_cell_angle_alpha   117.96251857
_cell_angle_beta   114.54368631
_cell_angle_gamma   89.99964033
_symmetry_Int_Tables_number   1
_chemical_formula_structural   CuH18C30(NO2)4
_chemical_formula_sum   'Cu4 H72 C120 N16 O32'
_cell_volume   3421.36523577
_cell_formula_units_Z   4
loop_
 _symmetry_equiv_pos_site_id
 _symmetry_equiv_pos_as_xyz
  1  'x, y, z'
loop_
 _atom_site_type_symbol
 _atom_site_label
 _atom_site_symmetry_multiplicity
 _atom_site_fract_x
 _atom_site_fract_y
 _atom_site_fract_z
 _atom_site_occupancy
 _atom_site_pbe_bader_charge
 _atom_site_pbe_bader_spin_density
 _atom_site_pbe_cm5_charge
 _atom_site_pbe_ddec_charge
 _atom_site_pbe_ddec_spin_density
 _atom_site_pbe_ddec_sum_bond_order
 _atom_site_pbe_magmom
Cu  Cu0  1  0.00000052  0.00000065  0.50000076  1  1.03628  0.54477  0.742007  0.742248  0.710907  2.169187  0.546
Cu  Cu1  1  0.49999970  0.99999992  0.50000048  1  1.037625  0.5448  0.74274  0.743262  0.711066  2.172442  0.546
Cu  Cu2  1  0.49999965  0.49999987  0.50000034  1  1.038093  0.54479  0.742164  0.740981  0.71096  2.172797  0.546
Cu  Cu3  1  0.99999920  0.50000005  0.49999957  1  1.038817  0.544828  0.742292  0.742594  0.711095  2.170776  0.546
H  H4  1  0.03845218  0.81140532  0.42233600  1  0.143863  0.002206  0.118403  0.096689  0.000998  1.044214  0.002
H  H5  1  0.94350827  0.64852951  0.34904255  1  0.128317  0.001156  0.11646  0.135731  0.000598  0.987245  0.001
H  H6  1  0.69785067  0.76246964  0.39906311  1  0.089335  0.001217  0.115446  0.133939  0.000644  0.980594  0.001
H  H7  1  0.80058336  0.92006147  0.46760774  1  0.14252  0.002235  0.119752  0.101452  0.000996  1.037034  0.002
H  H8  1  0.71363620  0.59224083  0.36388807  1  0.133465  -6e-05  0.116574  0.112309  -5.9e-05  1.009918  0.0
H  H9  1  0.80346432  0.54625904  0.32265397  1  0.133552  0.000209  0.116328  0.117032  0.000293  1.01179  0.0
H  H10  1  0.62966520  0.44205289  0.93966748  1  0.161259  2e-06  0.120218  0.136728  -1e-06  1.002641  0.0
H  H11  1  0.93614658  0.81948053  0.20042784  1  0.078592  0.000469  0.10821  0.116242  0.000273  0.979913  0.0
H  H12  1  0.93966594  0.75599303  0.04398436  1  0.049968  4.5e-05  0.102741  0.101265  0.0  0.98861  0.0
H  H13  1  0.38432203  0.11112337  0.42271986  1  0.156324  0.0022  0.118497  0.096937  0.001001  1.0437  0.002
H  H14  1  0.40598337  0.20064198  0.34934362  1  0.127857  0.001162  0.116572  0.135935  0.000598  0.987779  0.001
H  H15  1  0.70157063  0.13652274  0.39922896  1  0.101683  0.001208  0.115382  0.134405  0.000644  0.980561  0.001
H  H16  1  0.66728103  0.04746439  0.46775682  1  0.157972  0.002218  0.119775  0.101812  0.000996  1.037571  0.002
H  H17  1  0.65030890  0.27165135  0.36376442  1  0.133346  -5.9e-05  0.116148  0.111853  -5.8e-05  1.009533  0.0
H  H18  1  0.51926016  0.27637824  0.32284429  1  0.131044  0.00021  0.116208  0.117136  0.000291  1.011257  0.0
H  H19  1  0.30996588  0.99739504  0.93952077  1  0.164422  2e-06  0.120219  0.137103  -1e-06  1.001733  0.0
H  H20  1  0.26463862  0.88118984  0.20027347  1  0.084588  0.000469  0.108095  0.115926  0.000274  0.980311  0.0
H  H21  1  0.10467064  0.78808789  0.04388721  1  0.076362  4e-05  0.102466  0.100667  -0.0  0.988513  0.0
H  H22  1  0.96155045  0.18859693  0.57766579  1  0.143907  0.002207  0.118422  0.096713  0.000998  1.044183  0.002
H  H23  1  0.05649492  0.35147276  0.65095856  1  0.128347  0.001156  0.11648  0.135736  0.000598  0.987252  0.001
H  H24  1  0.30215068  0.23753008  0.60093685  1  0.089293  0.001217  0.115443  0.133954  0.000644  0.980574  0.001
H  H25  1  0.19941723  0.07993911  0.53239309  1  0.142532  0.002235  0.119757  0.101465  0.000996  1.037008  0.002
H  H26  1  0.28636533  0.40775956  0.63611047  1  0.133407  -6e-05  0.116573  0.112294  -5.9e-05  1.009921  0.0
H  H27  1  0.19653740  0.45374103  0.67734494  1  0.133562  0.000209  0.116325  0.117021  0.000293  1.011836  0.0
H  H28  1  0.37033409  0.55794841  0.06033196  1  0.161248  2e-06  0.120218  0.136748  -1e-06  1.002624  0.0
H  H29  1  0.06385383  0.18051981  0.79957205  1  0.078597  0.000469  0.108213  0.116248  0.000273  0.97988  0.0
H  H30  1  0.06033522  0.24400757  0.95601579  1  0.049956  4.5e-05  0.102732  0.101248  0.0  0.988599  0.0
H  H31  1  0.61567857  0.88887722  0.57728096  1  0.156316  0.0022  0.118509  0.096955  0.001001  1.043684  0.002
H  H32  1  0.59401741  0.79935771  0.65065702  1  0.127798  0.001162  0.11656  0.135914  0.000598  0.987793  0.001
H  H33  1  0.29842867  0.86347644  0.60077116  1  0.101658  0.001208  0.115372  0.134384  0.000644  0.980561  0.001
H  H34  1  0.33271827  0.95253478  0.53224330  1  0.157988  0.002219  0.119755  0.101795  0.000996  1.037595  0.002
H  H35  1  0.34969299  0.72834964  0.63623891  1  0.133372  -5.9e-05  0.116167  0.111901  -5.8e-05  1.009517  0.0
H  H36  1  0.48074062  0.72362202  0.67715691  1  0.130998  0.00021  0.116208  0.117172  0.000291  1.011217  0.0
H  H37  1  0.69003750  0.00260746  0.06048128  1  0.164415  2e-06  0.120254  0.137092  -1e-06  1.001832  0.0
H  H38  1  0.73536198  0.11881074  0.79972735  1  0.08459  0.000469  0.108075  0.115873  0.000274  0.980331  0.0
H  H39  1  0.89533088  0.21191263  0.95611425  1  0.076339  4e-05  0.102466  0.100669  -0.0  0.988509  0.0
H  H40  1  0.46147059  0.38890758  0.57729168  1  0.159711  0.0022  0.11843  0.097205  0.001  1.043981  0.002
H  H41  1  0.55652021  0.29949423  0.65080613  1  0.119044  0.001162  0.11669  0.135611  0.000598  0.98813  0.001
H  H42  1  0.80228275  0.36361297  0.60097663  1  0.089225  0.001219  0.115328  0.1342  0.000644  0.980218  0.001
H  H43  1  0.69944575  0.45255954  0.53229742  1  0.156762  0.002216  0.11984  0.102011  0.000995  1.037384  0.002
H  H44  1  0.78635315  0.22838831  0.63610794  1  0.120388  -6.1e-05  0.116517  0.112616  -5.9e-05  1.01005  0.0
H  H45  1  0.69648360  0.22374371  0.67733111  1  0.136476  0.000211  0.11629  0.117219  0.000291  1.011439  0.0
H  H46  1  0.87036088  0.50231069  0.06034979  1  0.168407  2e-06  0.120076  0.136717  -1e-06  1.002715  0.0
H  H47  1  0.56408272  0.61892188  0.79963140  1  0.081484  0.000472  0.108121  0.116303  0.000274  0.980503  0.0
H  H48  1  0.56048813  0.71196736  0.95602673  1  0.044056  4.4e-05  0.102624  0.101114  -0.0  0.988555  0.0
H  H49  1  0.11601870  0.68857118  0.57755264  1  0.155497  0.002202  0.118684  0.097376  0.000999  1.04347  0.002
H  H50  1  0.09425934  0.85143648  0.65077594  1  0.102347  0.00118  0.116591  0.135868  0.000598  0.987492  0.001
H  H51  1  0.79867535  0.73743232  0.60085256  1  0.106322  0.001205  0.115375  0.134205  0.000644  0.980533  0.001
H  H52  1  0.83295554  0.57986429  0.53233116  1  0.176753  0.002203  0.119547  0.101297  0.000997  1.03805  0.002
H  H53  1  0.84969941  0.90778309  0.63620306  1  0.138706  -6e-05  0.116481  0.112063  -5.8e-05  1.010177  0.0
H  H54  1  0.98069144  0.95363426  0.67714740  1  0.134857  0.000205  0.116252  0.117528  0.000293  1.01238  0.0
H  H55  1  0.19002318  0.05796261  0.06052058  1  0.170122  2e-06  0.120037  0.136349  -1e-06  1.001812  0.0
H  H56  1  0.23548787  0.68070759  0.79958298  1  0.082854  0.000468  0.108215  0.11632  0.000273  0.980408  0.0
H  H57  1  0.39544591  0.74414563  0.95600682  1  0.045306  4.5e-05  0.10253  0.100837  -0.0  0.988813  0.0
H  H58  1  0.53853019  0.61109268  0.42270952  1  0.159699  0.0022  0.118416  0.097191  0.001  1.043973  0.002
H  H59  1  0.44348058  0.70050603  0.34919507  1  0.118792  0.001162  0.116715  0.135682  0.000598  0.988098  0.001
H  H60  1  0.19771712  0.63638454  0.39902113  1  0.089132  0.001219  0.115332  0.134215  0.000644  0.980245  0.001
H  H61  1  0.30055411  0.54743966  0.46770203  1  0.156754  0.002216  0.119809  0.10199  0.000995  1.03747  0.002
H  H62  1  0.21364598  0.77160895  0.36388957  1  0.120484  -6.1e-05  0.116538  0.112663  -5.9e-05  1.01005  0.0
H  H63  1  0.30351626  0.77625549  0.32266834  1  0.13635  0.000211  0.116294  0.117213  0.000291  1.011476  0.0
H  H64  1  0.12963861  0.49768804  0.93964779  1  0.168395  2e-06  0.120101  0.136787  -1e-06  1.002692  0.0
H  H65  1  0.43591527  0.38107913  0.20036846  1  0.081517  0.000472  0.108136  0.116311  0.000274  0.980581  0.0
H  H66  1  0.43951079  0.28803359  0.04397377  1  0.044008  4.4e-05  0.102626  0.101096  -0.0  0.988597  0.0
H  H67  1  0.88398135  0.31142769  0.42244718  1  0.155493  0.002202  0.118677  0.097357  0.000999  1.043492  0.002
H  H68  1  0.90573978  0.14856246  0.34922325  1  0.102338  0.00118  0.116587  0.135869  0.000598  0.98752  0.001
H  H69  1  0.20132487  0.26256735  0.39914875  1  0.10629  0.001205  0.115404  0.134241  0.000644  0.980537  0.001
H  H70  1  0.16704468  0.42013539  0.46767016  1  0.176768  0.002203  0.119559  0.101322  0.000997  1.038028  0.002
H  H71  1  0.15030101  0.09221613  0.36379572  1  0.138714  -6e-05  0.116465  0.112013  -5.8e-05  1.010192  0.0
H  H72  1  0.01930804  0.04636459  0.32285309  1  0.134842  0.000205  0.116244  0.117518  0.000293  1.012359  0.0
H  H73  1  0.80997351  0.94203644  0.93947802  1  0.170068  2e-06  0.120027  0.136309  -1e-06  1.00184  0.0
H  H74  1  0.76450994  0.31929164  0.20041719  1  0.082855  0.000468  0.108244  0.116369  0.000273  0.980386  0.0
H  H75  1  0.60455283  0.25585353  0.04399398  1  0.045332  4.5e-05  0.102516  0.100794  -0.0  0.988786  0.0
C  C76  1  0.96249416  0.79711266  0.41504779  1  0.458904  -0.001095  0.045411  0.095735  -0.001514  3.923076  -0.001
C  C77  1  0.90953308  0.70675696  0.37553319  1  0.014631  0.00561  -0.07812  -0.167518  0.003842  3.925571  0.004
C  C78  1  0.81285983  0.69203823  0.36879741  1  -0.026492  -0.003592  0.011688  0.138866  -0.004061  3.945936  -0.002
C  C79  1  0.77272209  0.76988806  0.40207415  1  0.003525  0.005601  -0.080923  -0.169076  0.003889  3.916911  0.004
C  C80  1  0.82949941  0.85826616  0.44017353  1  0.430218  -0.000957  0.045411  0.09402  -0.001457  3.919895  -0.001
C  C81  1  0.75291135  0.59435945  0.32401752  1  0.257605  0.00059  -0.05623  -0.110918  0.000333  3.890453  0.001
C  C82  1  0.57513634  0.57284746  0.20046989  1  1.357199  1.1e-05  0.253133  0.436614  8e-06  4.111825  0.0
C  C83  1  0.69452672  0.52115074  0.14599457  1  1.35466  -4e-06  0.251751  0.436435  -1.4e-05  4.107208  0.0
C  C84  1  0.59665738  0.50483127  0.06174744  1  0.031011  6e-06  0.001388  -0.04805  0.0  3.988423  0.0
C  C85  1  0.57443698  0.46736727  0.96584690  1  -0.053862  -3e-06  -0.052877  -0.070542  -8e-06  3.872093  0.0
C  C86  1  0.47523007  0.46383406  0.90535047  1  -0.013347  3e-05  -0.001075  -0.047625  1.6e-05  3.984453  0.0
C  C87  1  0.09210564  0.91769065  0.37960507  1  1.586179  -0.000446  0.204944  0.561214  -0.000562  4.224199  -0.002
C  C88  1  0.09723102  0.88493923  0.28716602  1  -0.069142  0.011104  -0.009495  -0.041155  0.007699  3.918525  0.008
C  C89  1  0.00762206  0.83243271  0.19919667  1  0.048259  0.002004  -0.086542  -0.097812  0.001383  3.97325  0.001
C  C90  1  0.00993932  0.79714023  0.11187696  1  -0.108029  0.001585  -0.096453  -0.094273  0.000976  4.047371  0.001
C  C91  1  0.45295345  0.11806027  0.41536118  1  0.451622  -0.001087  0.045738  0.096443  -0.00153  3.922662  -0.001
C  C92  1  0.46641421  0.16886750  0.37582335  1  -0.037426  0.00563  -0.078796  -0.16975  0.003835  3.928869  0.004
C  C93  1  0.55629635  0.17677803  0.36899439  1  -0.033986  -0.003589  0.011992  0.141577  -0.004057  3.945128  -0.002
C  C94  1  0.62970861  0.13218728  0.40224857  1  0.024711  0.005627  -0.081329  -0.172237  0.003896  3.917015  0.004
C  C95  1  0.61100178  0.08189011  0.44036573  1  0.426795  -0.000962  0.045804  0.094972  -0.001458  3.919555  -0.001
C  C96  1  0.57120751  0.22965071  0.32406944  1  0.265703  0.000586  -0.055597  -0.111709  0.000331  3.88885  0.001
C  C97  1  0.62519983  0.12762016  0.20041015  1  1.376256  1.2e-05  0.252351  0.434626  8e-06  4.114961  0.0
C  C98  1  0.45134476  0.12479918  0.14599590  1  1.364862  -4e-06  0.251832  0.435225  -1.4e-05  4.108232  0.0
C  C99  1  0.46500428  0.05685100  0.06174618  1  -0.068156  5e-06  0.000301  -0.048299  -0.0  3.989765  0.0
C  C100  1  0.39140743  0.99839821  0.96584100  1  0.048284  -3e-06  -0.052882  -0.071785  -8e-06  3.872472  0.0
C  C101  1  0.43021641  0.94154231  0.90536297  1  -0.030699  3e-05  -2.3e-05  -0.045667  1.6e-05  3.987401  0.0
C  C102  1  0.28788540  0.96205015  0.37950234  1  1.582319  -0.000428  0.205742  0.564059  -0.000598  4.222199  -0.002
C  C103  1  0.19031409  0.90255634  0.28709657  1  -0.04547  0.010973  -0.00946  -0.0413  0.00767  3.917042  0.008
C  C104  1  0.19194096  0.86705568  0.19909545  1  -0.027034  0.002031  -0.086371  -0.0971  0.001382  3.971298  0.001
C  C105  1  0.10230454  0.81497370  0.11181503  1  -0.042813  0.001564  -0.096033  -0.094041  0.000982  4.046724  0.001
C  C106  1  0.03750699  0.20288851  0.58495292  1  0.458892  -0.001095  0.045377  0.095691  -0.001514  3.923146  -0.001
C  C107  1  0.09046882  0.29324390  0.62446722  1  0.01461  0.00561  -0.078121  -0.16752  0.003843  3.925624  0.004
C  C108  1  0.18714133  0.30796182  0.63120218  1  -0.026456  -0.003592  0.011691  0.138946  -0.004061  3.945911  -0.002
C  C109  1  0.22727907  0.23011198  0.59792544  1  0.00344  0.005601  -0.080927  -0.169143  0.003889  3.916933  0.004
C  C110  1  0.17050119  0.14173443  0.55982729  1  0.430206  -0.000957  0.045393  0.094013  -0.001457  3.919987  -0.001
C  C111  1  0.24709092  0.40564232  0.67598239  1  0.257687  0.00059  -0.056246  -0.110954  0.000333  3.890464  0.001
C  C112  1  0.42486296  0.42715215  0.79952788  1  1.357229  1.1e-05  0.25315  0.436664  8e-06  4.111759  0.0
C  C113  1  0.30547295  0.47884991  0.85400563  1  1.354672  -4e-06  0.251777  0.43651  -1.4e-05  4.107195  0.0
C  C114  1  0.40334229  0.49516882  0.93825220  1  0.031026  6e-06  0.001358  -0.048037  0.0  3.988403  0.0
C  C115  1  0.42556269  0.53263281  0.03415273  1  -0.053856  -4e-06  -0.052902  -0.070631  -8e-06  3.872075  0.0
C  C116  1  0.52476961  0.53616491  0.09464805  1  -0.013402  3e-05  -0.001048  -0.047582  1.6e-05  3.984513  0.0
C  C117  1  0.90789403  0.08231000  0.62039512  1  1.586172  -0.000446  0.204921  0.561183  -0.000562  4.224269  -0.002
C  C118  1  0.90276790  0.11506060  0.71283335  1  -0.06914  0.011104  -0.009508  -0.041156  0.007699  3.91854  0.008
C  C119  1  0.99237817  0.16756852  0.80080340  1  0.048257  0.002004  -0.086556  -0.097836  0.001383  3.973249  0.001
C  C120  1  0.99006109  0.20286012  0.88812293  1  -0.10802  0.001585  -0.096434  -0.094234  0.000976  4.047346  0.001
C  C121  1  0.54704584  0.88194003  0.58464006  1  0.451638  -0.001088  0.045693  0.096422  -0.00153  3.922596  -0.001
C  C122  1  0.53358490  0.83113256  0.62417696  1  -0.037376  0.005629  -0.078755  -0.169727  0.003835  3.928855  0.004
C  C123  1  0.44370368  0.82322253  0.63100711  1  -0.034092  -0.00359  0.011997  0.141641  -0.004057  3.945043  -0.002
C  C124  1  0.37029051  0.86781166  0.59775062  1  0.024901  0.005626  -0.081325  -0.172241  0.003896  3.917008  0.004
C  C125  1  0.38899770  0.91810930  0.55963533  1  0.426682  -0.000961  0.045811  0.094984  -0.001458  3.919587  -0.001
C  C126  1  0.42879420  0.77035005  0.67593296  1  0.265826  0.000586  -0.055628  -0.11181  0.000331  3.888831  0.001
C  C127  1  0.37480466  0.87238308  0.79959402  1  1.37629  1.2e-05  0.252257  0.434442  8e-06  4.11494  0.0
C  C128  1  0.54865751  0.87520104  0.85400526  1  1.364001  -4e-06  0.251813  0.435266  -1.4e-05  4.108383  0.0
C  C129  1  0.53499947  0.94315242  0.93825538  1  -0.068292  5e-06  0.000261  -0.048409  -0.0  3.989986  0.0
C  C130  1  0.60859669  0.00160512  0.03416186  1  0.048008  -3e-06  -0.052941  -0.071766  -8e-06  3.872552  0.0
C  C131  1  0.56978771  0.05846102  0.09463990  1  -0.03061  3e-05  -6.5e-05  -0.045789  1.6e-05  3.987341  0.0
C  C132  1  0.71211520  0.03795043  0.62049849  1  1.582371  -0.000428  0.205736  0.563989  -0.000598  4.222305  -0.002
C  C133  1  0.80968558  0.09744374  0.71290306  1  -0.045478  0.010973  -0.009446  -0.041261  0.00767  3.917002  0.008
C  C134  1  0.80805889  0.13294464  0.80090512  1  -0.027121  0.002032  -0.086389  -0.097102  0.001382  3.971256  0.001
C  C135  1  0.89769606  0.18502688  0.88818579  1  -0.042701  0.001564  -0.096021  -0.094027  0.000982  4.046673  0.001
C  C136  1  0.53749433  0.38199546  0.58471749  1  0.446569  -0.001091  0.045816  0.095748  -0.001528  3.922462  -0.001
C  C137  1  0.59051595  0.33123521  0.62432537  1  -0.035884  0.005637  -0.078303  -0.167413  0.003837  3.927456  0.004
C  C138  1  0.68724448  0.32336617  0.63119063  1  0.000527  -0.003588  0.011228  0.138839  -0.004057  3.947435  -0.002
C  C139  1  0.72738551  0.36794544  0.59791801  1  -0.008311  0.005655  -0.080959  -0.170128  0.003892  3.915765  0.004
C  C140  1  0.67055472  0.41817757  0.55972862  1  0.438064  -0.000991  0.045492  0.093716  -0.001463  3.918727  -0.001
C  C141  1  0.74711364  0.27042456  0.67598178  1  0.26803  0.000586  -0.055828  -0.111872  0.000329  3.890361  0.001
C  C142  1  0.92491846  0.37232427  0.79955723  1  1.360058  1.1e-05  0.254213  0.438553  8e-06  4.110437  0.0
C  C143  1  0.80550205  0.37513367  0.85402470  1  1.356404  -5e-06  0.252247  0.436524  -1.4e-05  4.108263  0.0
C  C144  1  0.90338287  0.44302756  0.93826719  1  -0.070239  5e-06  0.000722  -0.04732  0.0  3.988259  0.0
C  C145  1  0.92556160  0.50147865  0.03414511  1  0.029385  -3e-06  -0.052585  -0.070487  -8e-06  3.871696  0.0
C  C146  1  0.02473616  0.55849914  0.09463139  1  -0.011266  3e-05  -0.000878  -0.049354  1.6e-05  3.98675  0.0
C  C147  1  0.40811891  0.53792451  0.62043383  1  1.565615  -0.000366  0.205093  0.562445  -0.000572  4.22533  -0.002
C  C148  1  0.40295468  0.59753314  0.71283547  1  -0.023593  0.010914  -0.00948  -0.041445  0.007685  3.918594  0.008
C  C149  1  0.49258078  0.63305977  0.80082655  1  -0.054887  0.002043  -0.085975  -0.09716  0.001381  3.971884  0.001
C  C150  1  0.49021855  0.68514053  0.88811378  1  0.011657  0.001541  -0.096356  -0.094591  0.000975  4.0468  0.001
C  C151  1  0.04734345  0.70284271  0.58482504  1  0.459038  -0.001114  0.045116  0.094731  -0.001514  3.922691  -0.001
C  C152  1  0.03384759  0.79319045  0.62432102  1  -0.028798  0.005642  -0.078169  -0.167825  0.003843  3.925594  0.004
C  C153  1  0.94392616  0.80789301  0.63109129  1  -0.020925  -0.003587  0.011974  0.140233  -0.004057  3.946615  -0.002
C  C154  1  0.87054265  0.73004945  0.59783896  1  0.013031  0.005614  -0.080858  -0.170419  0.003892  3.917236  0.004
C  C155  1  0.88926034  0.64167087  0.55974446  1  0.392692  -0.000925  0.045602  0.094433  -0.001461  3.921153  -0.001
C  C156  1  0.92885306  0.90561137  0.67593317  1  0.264811  0.000596  -0.056151  -0.116827  0.000337  3.889388  0.001
C  C157  1  0.87481473  0.92717096  0.79956200  1  1.365154  1.2e-05  0.252761  0.432307  8e-06  4.111672  0.0
C  C158  1  0.04867856  0.97880708  0.85400697  1  1.358962  -4e-06  0.251654  0.431618  -1.4e-05  4.104972  0.0
C  C159  1  0.03500289  0.99513947  0.93826899  1  -0.019956  6e-06  0.000619  -0.048093  0.0  3.991117  0.0
C  C160  1  0.10859292  0.03262141  0.03419900  1  0.032043  -3e-06  -0.052951  -0.069528  -8e-06  3.872729  0.0
C  C161  1  0.06977932  0.03615805  0.09463864  1  -0.055975  3e-05  -0.000353  -0.0496  1.6e-05  3.992268  0.0
C  C162  1  0.21229012  0.58233068  0.62039343  1  1.572552  -0.000414  0.205211  0.561805  -0.00058  4.223863  -0.002
C  C163  1  0.30984942  0.61519190  0.71282857  1  -0.027767  0.011053  -0.010023  -0.040865  0.007689  3.91804  0.008
C  C164  1  0.30819062  0.66773342  0.80080588  1  -0.002545  0.002024  -0.086292  -0.097624  0.001382  3.971645  0.001
C  C165  1  0.39783316  0.70301634  0.88811013  1  -0.088069  0.001584  -0.096308  -0.094166  0.000978  4.046903  0.001
C  C166  1  0.46250720  0.61800505  0.41528397  1  0.446588  -0.001091  0.045827  0.095777  -0.001528  3.922463  -0.001
C  C167  1  0.40948391  0.66876399  0.37567408  1  -0.035647  0.005637  -0.078342  -0.167528  0.003837  3.927456  0.004
C  C168  1  0.31275613  0.67663273  0.36880852  1  0.000813  -0.003588  0.011202  0.138821  -0.004056  3.947456  -0.002
C  C169  1  0.27261343  0.63205327  0.40208025  1  -0.008525  0.005656  -0.080927  -0.170107  0.003892  3.915719  0.004
C  C170  1  0.32944533  0.58182074  0.44027064  1  0.438038  -0.00099  0.045523  0.093756  -0.001463  3.918753  -0.001
C  C171  1  0.25288623  0.72957295  0.32401599  1  0.268159  0.000587  -0.055881  -0.111957  0.000329  3.890386  0.001
C  C172  1  0.07508272  0.62767353  0.20044012  1  1.359735  1.1e-05  0.254131  0.438449  8e-06  4.1105  0.0
C  C173  1  0.19449762  0.62486585  0.14597437  1  1.35622  -5e-06  0.252156  0.436283  -1.4e-05  4.108445  0.0
C  C174  1  0.09661755  0.55697110  0.06173102  1  -0.069886  5e-06  0.000777  -0.047179  0.0  3.988069  0.0
C  C175  1  0.07443864  0.49851977  0.96585216  1  0.029161  -3e-06  -0.052636  -0.070597  -8e-06  3.871639  0.0
C  C176  1  0.97526446  0.44149807  0.90536607  1  -0.011273  3e-05  -0.000854  -0.049359  1.6e-05  3.986713  0.0
C  C177  1  0.59187890  0.46207471  0.37956634  1  1.56564  -0.000366  0.205083  0.562397  -0.000572  4.225266  -0.002
C  C178  1  0.59704239  0.40246582  0.28716444  1  -0.033882  0.010917  -0.009446  -0.041377  0.007685  3.918365  0.008
C  C179  1  0.50741740  0.36694036  0.19917313  1  -0.044615  0.00204  -0.086  -0.09718  0.001381  3.971839  0.001
C  C180  1  0.50977982  0.31485871  0.11188571  1  0.011757  0.001541  -0.096369  -0.094598  0.000976  4.046783  0.001
C  C181  1  0.95265492  0.29715653  0.41517445  1  0.45902  -0.001115  0.045093  0.094715  -0.001514  3.922727  -0.001
C  C182  1  0.96615283  0.20680934  0.37567831  1  -0.028801  0.005641  -0.078192  -0.167903  0.003843  3.925645  0.004
C  C183  1  0.05607295  0.19210649  0.36890846  1  -0.020835  -0.003587  0.012061  0.140412  -0.004057  3.946466  -0.002
C  C184  1  0.12945813  0.26995025  0.40216168  1  0.013072  0.005615  -0.080909  -0.170554  0.003892  3.917148  0.004
C  C185  1  0.11073896  0.35832886  0.44025622  1  0.392709  -0.000925  0.045576  0.0944  -0.001461  3.921091  -0.001
C  C186  1  0.07114587  0.09438733  0.32406509  1  0.264727  0.000596  -0.056113  -0.116761  0.000337  3.889379  0.001
C  C187  1  0.12518346  0.07282649  0.20043779  1  1.365404  1.2e-05  0.252726  0.432227  8e-06  4.111601  0.0
C  C188  1  0.95131962  0.02119093  0.14599339  1  1.358796  -4e-06  0.251625  0.431584  -1.4e-05  4.104963  0.0
C  C189  1  0.96499363  0.00485878  0.06172812  1  -0.019859  6e-06  0.000729  -0.047963  0.0  3.990966  0.0
C  C190  1  0.89140433  0.96737767  0.96579892  1  0.031875  -3e-06  -0.052945  -0.069443  -8e-06  3.872739  0.0
C  C191  1  0.93021831  0.96384037  0.90536003  1  -0.055678  3e-05  -0.000334  -0.049608  1.6e-05  3.992261  0.0
C  C192  1  0.78770769  0.41766798  0.37960617  1  1.572398  -0.000414  0.205219  0.561877  -0.00058  4.223816  -0.002
C  C193  1  0.69014839  0.38480732  0.28717159  1  -0.027893  0.011053  -0.009995  -0.040814  0.007688  3.917942  0.008
C  C194  1  0.69180681  0.33226545  0.19919533  1  -0.002433  0.002024  -0.086324  -0.097726  0.001382  3.971537  0.001
C  C195  1  0.60216521  0.29698346  0.11188992  1  -0.088183  0.001584  -0.096293  -0.094079  0.000978  4.04677  0.001
N  N196  1  0.92310478  0.87157987  0.44670925  1  -1.224353  0.086782  -0.350397  -0.231539  0.058498  3.620442  0.075
N  N197  1  0.67505556  0.56037657  0.22522421  1  -1.168727  -0.000126  -0.248793  -0.182616  -0.000192  3.623208  0.0
N  N198  1  0.52394708  0.07519317  0.44694433  1  -1.223547  0.086727  -0.350954  -0.23146  0.058349  3.621016  0.075
N  N199  1  0.55004701  0.16481099  0.22519839  1  -1.166524  -0.000128  -0.248748  -0.18016  -0.000193  3.621625  0.0
N  N200  1  0.07689618  0.12842219  0.55329164  1  -1.224365  0.086784  -0.350385  -0.231531  0.058499  3.620604  0.075
N  N201  1  0.32494392  0.43962440  0.77477561  1  -1.168739  -0.000126  -0.248776  -0.182582  -0.000192  3.623103  0.0
N  N202  1  0.47605129  0.92480607  0.55305516  1  -1.22363  0.086728  -0.350911  -0.231443  0.05835  3.620941  0.075
N  N203  1  0.44995600  0.83519061  0.77480414  1  -1.16643  -0.000128  -0.248745  -0.18016  -0.000193  3.621785  0.0
N  N204  1  0.57689492  0.42482687  0.55309054  1  -1.208207  0.086684  -0.350825  -0.230905  0.058376  3.621515  0.075
N  N205  1  0.82497309  0.33516159  0.77479032  1  -1.177001  -0.000127  -0.249338  -0.182077  -0.000193  3.621569  0.0
N  N206  1  0.97633150  0.62838285  0.55320655  1  -1.210787  0.086758  -0.350755  -0.231433  0.058452  3.621231  0.075
N  N207  1  0.94997541  0.93962104  0.77479228  1  -1.164303  -0.000125  -0.24848  -0.166427  -0.000191  3.604168  0.0
N  N208  1  0.42310568  0.57517371  0.44691029  1  -1.208278  0.086685  -0.350813  -0.230899  0.058377  3.621529  0.075
N  N209  1  0.17502827  0.66483644  0.22520797  1  -1.177035  -0.000127  -0.249277  -0.181934  -0.000193  3.621592  0.0
N  N210  1  0.02366855  0.37161602  0.44679327  1  -1.210767  0.086759  -0.350757  -0.231392  0.058452  3.62119  0.075
N  N211  1  0.05002203  0.06037883  0.22520714  1  -1.164251  -0.000125  -0.248486  -0.166405  -0.000191  3.604272  0.0
O  O212  1  0.01528088  0.95425161  0.38225166  1  -1.108548  0.112036  -0.328034  -0.546728  0.07245  2.346562  0.102
O  O213  1  0.15633950  0.90644480  0.44466746  1  -1.179544  0.000782  -0.317543  -0.555551  -0.000573  2.172298  0.001
O  O214  1  0.54035007  0.60839974  0.25701753  1  -1.090924  0.000175  -0.253811  -0.410904  0.000112  2.118847  0.0
O  O215  1  0.77659812  0.50604189  0.14884592  1  -1.096873  7e-05  -0.258489  -0.411173  4.4e-05  2.089649  0.0
O  O216  1  0.36725204  0.92802239  0.38199804  1  -1.107056  0.112114  -0.328884  -0.54865  0.072485  2.345084  0.102
O  O217  1  0.28883615  0.03828096  0.44475287  1  -1.184829  0.000779  -0.317775  -0.556785  -0.00058  2.17341  0.001
O  O218  1  0.71653776  0.14869854  0.25693258  1  -1.112148  0.000175  -0.25332  -0.410591  0.000112  2.118364  0.0
O  O219  1  0.37214241  0.14280847  0.14885862  1  -1.094148  7e-05  -0.258317  -0.410805  4.4e-05  2.091466  0.0
O  O220  1  0.98471934  0.04575018  0.61774898  1  -1.108525  0.112038  -0.328035  -0.546726  0.072451  2.346539  0.102
O  O221  1  0.84366091  0.09355611  0.55533299  1  -1.179523  0.000782  -0.317503  -0.555505  -0.000573  2.172382  0.001
O  O222  1  0.45965221  0.39159992  0.74298307  1  -1.090986  0.000175  -0.253803  -0.41093  0.000112  2.118854  0.0
O  O223  1  0.22340043  0.49395959  0.85115091  1  -1.096899  7e-05  -0.258505  -0.411226  4.4e-05  2.089628  0.0
O  O224  1  0.63274837  0.07197695  0.61800364  1  -1.107054  0.112113  -0.328907  -0.548646  0.072483  2.345145  0.102
O  O225  1  0.71116426  0.96172051  0.55524814  1  -1.184891  0.000779  -0.317755  -0.55674  -0.00058  2.17345  0.001
O  O226  1  0.28346618  0.85130355  0.74307115  1  -1.112266  0.000175  -0.253243  -0.410484  0.000112  2.118289  0.0
O  O227  1  0.62786097  0.85719348  0.85114286  1  -1.093331  7e-05  -0.25832  -0.410835  4.4e-05  2.091534  0.0
O  O228  1  0.48496669  0.57190124  0.61787190  1  -1.105604  0.112127  -0.328119  -0.546844  0.072445  2.346825  0.102
O  O229  1  0.34388591  0.46164357  0.55530492  1  -1.183652  0.00077  -0.317574  -0.556352  -0.00058  2.173982  0.001
O  O230  1  0.95975185  0.35126624  0.74303907  1  -1.079216  0.000174  -0.254724  -0.412124  0.000112  2.119038  0.0
O  O231  1  0.72344741  0.35716012  0.85118739  1  -1.095396  7e-05  -0.258464  -0.411052  4.4e-05  2.091039  0.0
O  O232  1  0.13286590  0.54586896  0.61786110  1  -1.110513  0.112017  -0.328477  -0.547192  0.072424  2.346404  0.102
O  O233  1  0.21142042  0.59343460  0.55522143  1  -1.172358  0.00079  -0.317428  -0.555875  -0.000569  2.171899  0.001
O  O234  1  0.78349042  0.89166205  0.74304285  1  -1.109581  0.000175  -0.253838  -0.41129  0.000112  2.118555  0.0
O  O235  1  0.12788789  0.99386489  0.85111984  1  -1.096816  7.1e-05  -0.258207  -0.411164  4.4e-05  2.090731  0.0
O  O236  1  0.51503186  0.42809880  0.38212909  1  -1.105662  0.112127  -0.328145  -0.546858  0.072444  2.346869  0.102
O  O237  1  0.65611246  0.53835567  0.44469457  1  -1.1836  0.00077  -0.317564  -0.556319  -0.00058  2.173906  0.001
O  O238  1  0.04024896  0.64873065  0.25695877  1  -1.079121  0.000174  -0.254655  -0.412079  0.000112  2.119003  0.0
O  O239  1  0.27655171  0.64283926  0.14880944  1  -1.095414  7e-05  -0.258411  -0.410934  4.4e-05  2.091057  0.0
O  O240  1  0.86713172  0.45413058  0.38213869  1  -1.110362  0.112016  -0.328461  -0.547211  0.072421  2.346386  0.102
O  O241  1  0.78857758  0.40656373  0.44477855  1  -1.172254  0.00079  -0.317454  -0.555938  -0.000569  2.171858  0.001
O  O242  1  0.21650852  0.10833397  0.25695552  1  -1.109524  0.000175  -0.253794  -0.411229  0.000112  2.118497  0.0
O  O243  1  0.87210974  0.00613353  0.14887883  1  -1.096834  7.1e-05  -0.258201  -0.411156  4.4e-05  2.090744  0.0
