# generated using pymatgen
data_VH10C10N3Cl2
_symmetry_space_group_name_H-M   'P 1'
_cell_length_a   8.46147776
_cell_length_b   8.96851926
_cell_length_c   15.22900000
_cell_angle_alpha   90.00000000
_cell_angle_beta   90.00000000
_cell_angle_gamma   90.00000000
_symmetry_Int_Tables_number   1
_chemical_formula_structural   VH10C10N3Cl2
_chemical_formula_sum   'V4 H40 C40 N12 Cl8'
_cell_volume   1155.68200119
_cell_formula_units_Z   4
loop_
 _symmetry_equiv_pos_site_id
 _symmetry_equiv_pos_as_xyz
  1  'x, y, z'
loop_
 _atom_site_type_symbol
 _atom_site_label
 _atom_site_symmetry_multiplicity
 _atom_site_fract_x
 _atom_site_fract_y
 _atom_site_fract_z
 _atom_site_occupancy
 _atom_site_pbe_bader_charge
 _atom_site_pbe_bader_spin_density
 _atom_site_pbe_cm5_charge
 _atom_site_pbe_ddec_charge
 _atom_site_pbe_ddec_spin_density
 _atom_site_pbe_ddec_sum_bond_order
 _atom_site_pbe_magmom
V  V0  1  0.50022822  0.25000448  0.75000328  1  1.804001  0  1.335251  1.477933  0  3.408033  0
V  V1  1  0.99974499  0.74999895  0.25000460  1  1.803044  0  1.334985  1.477392  0  3.408319  0
V  V2  1  0.49977795  0.75000118  0.24999803  1  1.804104  0  1.335383  1.477973  0  3.408213  0
V  V3  1  0.00025291  0.24999891  0.74999803  1  1.80321  0  1.334986  1.477462  0  3.40834  0
H  H4  1  0.72391728  0.34749884  0.60167247  1  0.14226  0  0.110234  0.089047  0  1.040298  0
H  H5  1  0.72391965  0.15249786  0.89833016  1  0.14215  0  0.110237  0.089052  0  1.040292  0
H  H6  1  0.77607248  0.65251797  0.10166984  1  0.141987  0  0.110233  0.089016  0  1.040144  0
H  H7  1  0.77607129  0.84748327  0.39833213  1  0.14227  0  0.110247  0.089036  0  1.040174  0
H  H8  1  0.27607825  0.65250682  0.39833738  1  0.142088  0  0.11024  0.089052  0  1.040229  0
H  H9  1  0.27608298  0.84749442  0.10166065  1  0.142129  0  0.110244  0.089028  0  1.040237  0
H  H10  1  0.22393606  0.34749103  0.89833476  1  0.142233  0  0.110237  0.08905  0  1.040263  0
H  H11  1  0.22392779  0.15251124  0.60166327  1  0.142091  0  0.110244  0.089046  0  1.040243  0
H  H12  1  0.76512640  0.56814172  0.50301924  1  0.1268  0  0.096438  0.115354  0  1.033398  0
H  H13  1  0.76512167  0.93184948  0.99697945  1  0.126799  0  0.096435  0.115317  0  1.033509  0
H  H14  1  0.73484682  0.43185724  0.00302515  1  0.127155  0  0.096445  0.115259  0  1.033486  0
H  H15  1  0.73484445  0.06814280  0.49697485  1  0.127132  0  0.096438  0.115236  0  1.033488  0
H  H16  1  0.23487741  0.43186728  0.49699455  1  0.126624  0  0.096382  0.11528  0  1.033441  0
H  H17  1  0.23488096  0.06813276  0.00300348  1  0.126597  0  0.096371  0.115258  0  1.033442  0
H  H18  1  0.26515699  0.56814618  0.99697748  1  0.127065  0  0.096437  0.115241  0  1.033517  0
H  H19  1  0.26514754  0.93185394  0.50301990  1  0.127088  0  0.096438  0.115237  0  1.033518  0
H  H20  1  0.58640348  0.79137478  0.52153983  1  0.113023  0  0.101386  0.107421  0  1.012478  0
H  H21  1  0.58639757  0.70862088  0.97845755  1  0.113011  0  0.101343  0.107397  0  1.012492  0
H  H22  1  0.91357564  0.20861861  0.02154180  1  0.112995  0  0.101351  0.107368  0  1.012592  0
H  H23  1  0.91357683  0.29137586  0.47846280  1  0.11298  0  0.101344  0.10745  0  1.012491  0
H  H24  1  0.41359088  0.20862864  0.47846674  1  0.112834  0  0.101354  0.107368  0  1.012506  0
H  H25  1  0.41359324  0.29137697  0.02153326  1  0.11278  0  0.101345  0.107365  0  1.012478  0
H  H26  1  0.08641989  0.79138147  0.97846543  1  0.11292  0  0.101317  0.107421  0  1.012492  0
H  H27  1  0.08641398  0.70862088  0.52153523  1  0.112958  0  0.101349  0.10741  0  1.0125  0
H  H28  1  0.37457405  0.78052238  0.63581128  1  0.091428  0  0.101074  0.107086  0  1.042179  0
H  H29  1  0.37457878  0.71947997  0.86418281  1  0.091166  0  0.101075  0.107069  0  1.042221  0
H  H30  1  0.12540126  0.21948997  0.13579749  1  0.091291  0  0.101077  0.107081  0  1.042437  0
H  H31  1  0.12540244  0.28051007  0.36420579  1  0.091307  0  0.101083  0.107085  0  1.042445  0
H  H32  1  0.62540967  0.21947993  0.36418938  1  0.091493  0  0.101112  0.107135  0  1.04224  0
H  H33  1  0.62540967  0.28052457  0.13581325  1  0.091511  0  0.101091  0.107108  0  1.042293  0
H  H34  1  0.87459427  0.78050900  0.86420054  1  0.091294  0  0.101095  0.107149  0  1.042334  0
H  H35  1  0.87458718  0.71948778  0.63580143  1  0.091495  0  0.101072  0.107061  0  1.042366  0
H  H36  1  0.33937098  0.54479227  0.72228314  1  0.108759  0  0.116113  0.093348  0  1.005523  0
H  H37  1  0.33936862  0.95521119  0.77771620  1  0.108775  0  0.116098  0.093365  0  1.005516  0
H  H38  1  0.16063152  0.45521450  0.22226213  1  0.108455  0  0.116094  0.093265  0  1.005638  0
H  H39  1  0.16063033  0.04478554  0.27773984  1  0.108452  0  0.116092  0.093233  0  1.005724  0
H  H40  1  0.66061747  0.45520781  0.27771948  1  0.108337  0  0.116045  0.093261  0  1.005633  0
H  H41  1  0.66061510  0.04479669  0.22228183  1  0.108365  0  0.1161  0.093342  0  1.005563  0
H  H42  1  0.83937820  0.54478670  0.77773656  1  0.108885  0  0.11606  0.093265  0  1.005734  0
H  H43  1  0.83937820  0.95521677  0.72226738  1  0.108949  0  0.116055  0.09325  0  1.005655  0
C  C44  1  0.64770719  0.44494413  0.60512969  1  0.414377  0  0.046024  0.101377  0  3.931593  0
C  C45  1  0.64771074  0.05504922  0.89487294  1  0.414584  0  0.046057  0.101376  0  3.931383  0
C  C46  1  0.85227902  0.55505038  0.10512903  1  0.414238  0  0.045948  0.101341  0  3.930877  0
C  C47  1  0.85227075  0.94495309  0.39486900  1  0.413968  0  0.045993  0.101351  0  3.93097  0
C  C48  1  0.35229544  0.55506376  0.39487951  1  0.414403  0  0.046036  0.101389  0  3.931464  0
C  C49  1  0.35229898  0.94493748  0.10511984  1  0.414587  0  0.045946  0.10128  0  3.931523  0
C  C50  1  0.14772951  0.44495305  0.89486966  1  0.413968  0  0.045964  0.101232  0  3.931016  0
C  C51  1  0.14772715  0.05504922  0.60512575  1  0.414476  0  0.045921  0.10125  0  3.931239  0
C  C52  1  0.67071736  0.56894230  0.55173222  1  -0.010075  0  -0.08629  -0.128303  0  3.95832  0
C  C53  1  0.67071499  0.93104556  0.94826844  1  -0.010014  0  -0.086368  -0.128388  0  3.958373  0
C  C54  1  0.82927122  0.43105109  0.05172828  1  -0.010571  0  -0.086257  -0.128156  0  3.958111  0
C  C55  1  0.82927004  0.06895341  0.44827106  1  -0.010576  0  -0.086258  -0.128165  0  3.958276  0
C  C56  1  0.32929118  0.43106781  0.44828091  1  -0.009552  0  -0.086262  -0.128321  0  3.958338  0
C  C57  1  0.32928645  0.06893557  0.05171909  1  -0.009583  0  -0.086191  -0.128164  0  3.958143  0
C  C58  1  0.17073259  0.56895568  0.94827369  1  -0.010188  0  -0.086264  -0.128148  0  3.958104  0
C  C59  1  0.17073141  0.93105225  0.55172566  1  -0.010282  0  -0.086247  -0.128091  0  3.958235  0
C  C60  1  0.57221565  0.69221349  0.56215838  1  -0.059474  0  -0.063758  -0.015079  0  3.934563  0
C  C61  1  0.57221329  0.80777883  0.93783702  1  -0.059766  0  -0.063739  -0.015105  0  3.934746  0
C  C62  1  0.92777647  0.30777990  0.06216758  1  -0.059615  0  -0.063765  -0.015124  0  3.934735  0
C  C63  1  0.92776820  0.19222125  0.43783242  1  -0.059622  0  -0.063749  -0.015161  0  3.934652  0
C  C64  1  0.42778461  0.30778771  0.43784884  1  -0.059487  0  -0.06369  -0.014906  0  3.934342  0
C  C65  1  0.42778461  0.19221010  0.06214985  1  -0.059372  0  -0.063697  -0.01495  0  3.934176  0
C  C66  1  0.07222734  0.69222241  0.93783636  1  -0.059937  0  -0.063726  -0.015153  0  3.934527  0
C  C67  1  0.07222615  0.80778329  0.56216232  1  -0.059776  0  -0.063744  -0.015141  0  3.934505  0
C  C68  1  0.45287479  0.68615786  0.62524132  1  -0.003054  0  -0.087702  -0.127901  0  3.964028  0
C  C69  1  0.45287952  0.81383446  0.87475277  1  -0.002621  0  -0.087638  -0.127756  0  3.964182  0
C  C70  1  0.04712652  0.31383553  0.12524000  1  -0.002612  0  -0.087746  -0.127874  0  3.96452  0
C  C71  1  0.04712416  0.18616117  0.37476065  1  -0.002416  0  -0.087733  -0.127933  0  3.964271  0
C  C72  1  0.54712192  0.31384334  0.37476394  1  -0.003142  0  -0.087748  -0.128066  0  3.964132  0
C  C73  1  0.54712429  0.18616117  0.12523935  1  -0.003405  0  -0.087729  -0.128018  0  3.964027  0
C  C74  1  0.95287729  0.68616121  0.87475934  1  -0.002531  0  -0.087756  -0.12798  0  3.964315  0
C  C75  1  0.95287729  0.81384003  0.62523738  1  -0.002964  0  -0.087699  -0.127848  0  3.964038  0
C  C76  1  0.43360393  0.55698827  0.67426095  1  0.473399  0  0.04748  0.105618  0  3.929641  0
C  C77  1  0.43360275  0.94300628  0.82573708  1  0.47307  0  0.04747  0.105498  0  3.929579  0
C  C78  1  0.06639620  0.44298952  0.17425373  1  0.473168  0  0.047505  0.105684  0  3.929516  0
C  C79  1  0.06639266  0.05700384  0.32574299  1  0.473269  0  0.04753  0.105826  0  3.929642  0
C  C80  1  0.56638924  0.44301070  0.32574562  1  0.473805  0  0.047517  0.105748  0  3.929566  0
C  C81  1  0.56639161  0.05699492  0.17425373  1  0.473778  0  0.047413  0.105584  0  3.929367  0
C  C82  1  0.93361115  0.55700722  0.82574365  1  0.472801  0  0.047531  0.105722  0  3.9297  0
C  C83  1  0.93361233  0.94300294  0.67425570  1  0.473182  0  0.047542  0.10578  0  3.929409  0
N  N84  1  0.31299497  0.25000114  0.75000131  1  -0.810617  0  -0.810399  -0.858573  0  2.362033  0
N  N85  1  0.18697798  0.75000006  0.25000394  1  -0.81003  0  -0.810108  -0.857935  0  2.361302  0
N  N86  1  0.68700293  0.74999895  0.25000000  1  -0.810696  0  -0.810509  -0.858626  0  2.362226  0
N  N87  1  0.81301520  0.24999891  0.75000000  1  -0.810127  0  -0.810096  -0.858035  0  2.361488  0
N  N88  1  0.53045817  0.43836891  0.66493729  1  -1.290195  0  -0.381686  -0.292734  0  3.58503  0
N  N89  1  0.53045935  0.06162556  0.83506599  1  -1.289954  0  -0.381681  -0.292647  0  3.584927  0
N  N90  1  0.96955286  0.56162783  0.16493663  1  -1.289226  0  -0.381572  -0.292608  0  3.584211  0
N  N91  1  0.96954814  0.93837898  0.33506862  1  -1.289227  0  -0.381682  -0.292723  0  3.584666  0
N  N92  1  0.46954446  0.56163786  0.33506731  1  -1.290146  0  -0.381671  -0.292724  0  3.584687  0
N  N93  1  0.46954091  0.93835891  0.16493138  1  -1.290264  0  -0.381582  -0.292589  0  3.584593  0
N  N94  1  0.03046040  0.43837225  0.83506534  1  -1.289239  0  -0.381608  -0.292596  0  3.584442  0
N  N95  1  0.03045804  0.06163448  0.66493335  1  -1.289724  0  -0.381645  -0.292735  0  3.584562  0
Cl  Cl96  1  0.54931539  0.40873079  0.86652899  1  -0.603913  0  -0.261739  -0.464938  0  1.188726  0
Cl  Cl97  1  0.54931539  0.09127036  0.63347364  1  -0.60396  0  -0.261715  -0.464913  0  1.18865  0
Cl  Cl98  1  0.95067673  0.59124476  0.36652768  1  -0.603837  0  -0.261752  -0.464934  0  1.188699  0
Cl  Cl99  1  0.95068146  0.90875202  0.13347495  1  -0.603891  0  -0.261752  -0.464908  0  1.18858  0
Cl  Cl100  1  0.45068369  0.59126483  0.13347495  1  -0.603854  0  -0.261734  -0.464917  0  1.188679  0
Cl  Cl101  1  0.45068605  0.90873641  0.36652505  1  -0.603949  0  -0.261731  -0.464929  0  1.188653  0
Cl  Cl102  1  0.04932235  0.40874863  0.63346970  1  -0.603953  0  -0.26175  -0.464931  0  1.188663  0
Cl  Cl103  1  0.04932826  0.09125364  0.86652768  1  -0.60392  0  -0.261739  -0.464902  0  1.188683  0
