# generated using pymatgen
data_Al6H44C90S5O49
_symmetry_space_group_name_H-M   'P 1'
_cell_length_a   11.97792468
_cell_length_b   12.08478229
_cell_length_c   27.78108955
_cell_angle_alpha   92.82206506
_cell_angle_beta   89.16755091
_cell_angle_gamma   117.00607669
_symmetry_Int_Tables_number   1
_chemical_formula_structural   Al6H44C90S5O49
_chemical_formula_sum   'Al6 H44 C90 S5 O49'
_cell_volume   3578.35382188
_cell_formula_units_Z   1
loop_
 _symmetry_equiv_pos_site_id
 _symmetry_equiv_pos_as_xyz
  1  'x, y, z'
loop_
 _atom_site_type_symbol
 _atom_site_label
 _atom_site_symmetry_multiplicity
 _atom_site_fract_x
 _atom_site_fract_y
 _atom_site_fract_z
 _atom_site_occupancy
 _atom_site_pbe_bader_charge
 _atom_site_pbe_bader_spin_density
 _atom_site_pbe_cm5_charge
 _atom_site_pbe_ddec_charge
 _atom_site_pbe_ddec_spin_density
 _atom_site_pbe_ddec_sum_bond_order
 _atom_site_pbe_magmom
Al  Al0  1  0.20513696  0.60636463  0.50671200  1  2.490315  0  0.399989  1.685948  0  2.554869  0
Al  Al1  1  0.94238358  0.35900244  0.50105489  1  2.477153  0  0.506787  1.662493  0  2.506422  0
Al  Al2  1  0.93566105  0.60458135  0.50071944  1  2.481644  0  0.512257  1.664192  0  2.500397  0
Al  Al3  1  0.16335595  0.08990705  0.02114994  1  2.501202  0  0.415906  1.670216  0  2.568462  0
Al  Al4  1  0.41193246  0.06134679  0.01474355  1  2.486738  0  0.524942  1.679125  0  2.460947  0
Al  Al5  1  0.42767415  0.31806261  0.01473486  1  2.482462  0  0.51692  1.673036  0  2.496598  0
H  H6  1  0.62325711  0.12159850  0.76195022  1  0.155021  0  0.113714  0.12827  0  0.987544  0
H  H7  1  0.09972543  0.59640692  0.79296184  1  0.119274  0  0.114625  0.11586  0  0.997246  0
H  H8  1  0.26119850  0.52823740  0.79850314  1  0.109539  0  0.102924  0.103543  0  1.006448  0
H  H9  1  0.37551715  0.44537652  0.72504126  1  0.096724  0  0.110084  0.115412  0  0.97684  0
H  H10  1  0.03335602  0.41597137  0.74484089  1  0.084508  0  0.103579  0.096376  0  1.01857  0
H  H11  1  0.07613347  0.11029814  0.72039762  1  0.093669  0  0.10986  0.1102  0  0.987127  0
H  H12  1  0.30313788  0.22050742  0.77486875  1  0.064136  0  0.093058  0.074836  0  1.054148  0
H  H13  1  0.65524860  0.49561748  0.38283469  1  0.123798  0  0.12142  0.128676  0  0.978188  0
H  H14  1  0.70329159  0.47850119  0.12466513  1  0.110904  0  0.120384  0.124532  0  0.98369  0
H  H15  1  0.60453024  0.12982472  0.23148101  1  0.074089  0  0.110238  0.113975  0  0.988574  0
H  H16  1  0.55833608  0.08642682  0.14390285  1  0.167278  0  0.111822  0.128823  0  1.035574  0
H  H17  1  0.79203519  0.22760200  0.28231824  1  0.098067  0  0.107572  0.110276  0  1.001033  0
H  H18  1  0.82947906  0.25179965  0.37004716  1  0.120199  0  0.110881  0.114074  0  1.027091  0
H  H19  1  0.94900096  0.74288465  0.37597723  1  0.132791  0  0.114881  0.12152  0  0.9839  0
H  H20  1  0.31219087  0.76748366  0.21734836  1  0.098022  0  0.106929  0.111596  0  1.040516  0
H  H21  1  0.84845906  0.30546724  0.72705296  1  0.074678  0  0.107371  0.105119  0  1.001743  0
H  H22  1  0.96339844  0.77362886  0.28899060  1  0.126257  0  0.10925  0.119721  0  1.032338  0
H  H23  1  0.99727588  0.84682114  0.22624855  1  0.150028  0  0.117595  0.130538  0  1.019481  0
H  H24  1  0.34600644  0.82722967  0.29132579  1  0.051931  0  0.10212  0.101514  0  1.005322  0
H  H25  1  0.32650812  0.78863249  0.37855898  1  0.135183  0  0.118041  0.125318  0  0.976612  0
H  H26  1  0.30614716  0.55805229  0.38652017  1  0.14063  0  0.124744  0.134653  0  0.975748  0
H  H27  1  0.00488119  0.27674963  0.21416995  1  0.090956  0  0.10653  0.103773  0  1.010709  0
H  H28  1  0.33807601  0.56142761  0.29801592  1  0.085835  0  0.107727  0.108481  0  1.004416  0
H  H29  1  0.40452272  0.48484662  0.23472576  1  0.111471  0  0.104207  0.103676  0  1.037522  0
H  H30  1  0.85804687  0.46935690  0.80619554  1  0.093483  0  0.105395  0.102949  0  0.988125  0
H  H31  1  0.43315954  0.46156970  0.14631318  1  0.110344  0  0.109326  0.111266  0  0.999282  0
H  H32  1  0.03626203  0.18788844  0.28266021  1  0.088293  0  0.111385  0.118401  0  0.997723  0
H  H33  1  0.72164817  0.56091064  0.74906576  1  0.065802  0  0.108984  0.107227  0  0.983907  0
H  H34  1  0.49700659  0.37645776  0.78341601  1  0.094999  0  0.111434  0.113487  0  0.996032  0
H  H35  1  0.14716105  0.99674099  0.74262288  1  0.120352  0  0.113916  0.117671  0  1.023037  0
H  H36  1  0.92534221  0.63296668  0.73525030  1  0.100397  0  0.112321  0.114892  0  1.003391  0
H  H37  1  0.44066071  0.83642966  0.79229343  1  0.664834  0  0.310893  0.365557  0  0.958173  0
H  H38  1  0.35106712  0.07372670  0.81877234  1  0.075142  0  0.116804  0.055161  0  0.956043  0
H  H39  1  0.82529409  0.98125317  0.76840477  1  0.667791  0  0.314585  0.377296  0  0.95286  0
H  H40  1  0.55697407  0.19293138  0.62867633  1  0.642777  0  0.338278  0.382858  0  0.878381  0
H  H41  1  0.80584646  0.62409004  0.17994961  1  0.115758  0  0.104556  0.057326  0  1.016637  0
H  H42  1  0.54612407  0.43681862  0.25420110  1  0.033448  0  0.092529  0.015437  0  1.025239  0
H  H43  1  0.49287978  0.75569252  0.16513126  1  0.63417  0  0.358003  0.40954  0  0.82756  0
H  H44  1  0.95511307  0.93995065  0.05262013  1  0.671583  0  0.31193  0.414651  0  0.920815  0
H  H45  1  0.91203874  0.19546918  0.13963628  1  0.069779  0  0.099987  0.037482  0  0.968466  0
H  H46  1  0.00491761  0.12461788  0.40988813  1  0.069761  0  0.108752  0.050977  0  0.959452  0
H  H47  1  0.92921665  0.88641326  0.83778064  1  0.135606  0  0.122737  0.078222  0  0.960158  0
H  H48  1  0.40630071  0.71443898  0.54089251  1  0.586363  0  0.297033  0.391301  0  0.910644  0
H  H49  1  0.93533447  0.98856166  0.99906949  1  0.64463  0  0.367295  0.440867  0  0.818038  0
C  C50  1  0.11456680  0.39230694  0.57295244  1  1.679426  0  0.277816  0.712409  0  4.160072  0
C  C51  1  0.74061594  0.40045576  0.61539727  1  0.159894  0  -0.029713  -0.187518  0  3.926413  0
C  C52  1  0.57614543  0.36137147  0.77116018  1  -0.017244  0  -0.059489  -0.075998  0  3.603669  0
C  C53  1  0.64899812  0.30958730  0.80323806  1  0.121228  0  0.015336  0.120073  0  3.760492  0
C  C54  1  0.70206209  0.46394853  0.75232802  1  -0.009319  0  -0.068301  -0.081888  0  3.616685  0
C  C55  1  0.69965766  0.37409144  0.70844605  1  0.120788  0  0.010868  0.107876  0  3.800374  0
C  C56  1  0.77652979  0.41386112  0.78321154  1  -0.024634  0  -0.066512  -0.076113  0  3.616446  0
C  C57  1  0.77155910  0.32227078  0.74072337  1  0.016986  0  -0.067462  -0.069093  0  3.626388  0
C  C58  1  0.62208179  0.28183400  0.85239835  1  -0.480948  0  -0.008046  0.0065  0  4.014304  0
C  C59  1  0.72197427  0.39480649  0.65874736  1  -0.453313  0  -0.018466  -0.037396  0  4.067478  0
C  C60  1  0.13758982  0.90763993  0.75344399  1  0.014679  0  -0.046413  -0.078659  0  3.549466  0
C  C61  1  0.79107056  0.41787382  0.56724830  1  1.653345  0  0.283387  0.714741  0  4.167641  0
C  C62  1  0.02649175  0.81563745  0.78527676  1  -0.004895  0  -0.001683  -0.006905  0  3.669371  0
C  C63  1  0.17026489  0.84225130  0.90956684  1  0.266158  0  -0.01904  -0.151594  0  3.914573  0
C  C64  1  0.11238552  0.78539180  0.62293362  1  0.219512  0  -0.016879  -0.14874  0  3.905962  0
C  C65  1  0.23601739  0.88957845  0.78323910  1  -0.004277  0  0.006872  -0.001349  0  3.671139  0
C  C66  1  0.12413091  0.79649043  0.81689780  1  0.087598  0  0.028704  0.107586  0  3.754469  0
C  C67  1  0.21960915  0.77581886  0.74969302  1  -0.097987  0  0.004212  -0.134903  0  3.640008  0
C  C68  1  0.12260368  0.79692915  0.71753613  1  0.153551  0  0.026711  0.142091  0  3.780915  0
C  C69  1  0.10981538  0.68524826  0.78111826  1  -0.021575  0  -0.058556  -0.080684  0  3.622559  0
C  C70  1  0.01372825  0.70524077  0.74989147  1  -0.00012  0  -0.054442  -0.08127  0  3.578995  0
C  C71  1  0.14055981  0.81093578  0.86748694  1  -0.488114  0  -0.028411  -0.053122  0  4.066983  0
C  C72  1  0.10066082  0.74423211  0.57281546  1  1.696959  0  0.282964  0.707728  0  4.167452  0
C  C73  1  0.11883383  0.79506773  0.66671104  1  -0.465714  0  -0.023091  -0.036437  0  4.043294  0
C  C74  1  0.28473230  0.38929929  0.74109710  1  0.003962  0  -0.067667  -0.071805  0  3.604565  0
C  C75  1  0.22008245  0.43567538  0.78073175  1  -0.015643  0  -0.071443  -0.076548  0  3.631467  0
C  C76  1  0.20857702  0.29714768  0.90095740  1  0.177288  0  -0.034957  -0.188123  0  3.953411  0
C  C77  1  0.13156685  0.35466362  0.61942460  1  0.086508  0  -0.032856  -0.182828  0  3.93975  0
C  C78  1  0.24472289  0.26553580  0.76741494  1  -0.034041  0  -0.073721  -0.084891  0  3.646329  0
C  C79  1  0.18155123  0.31316370  0.80841746  1  0.092164  0  0.010197  0.114923  0  3.807075  0
C  C80  1  0.11895491  0.20273423  0.73838085  1  -0.024604  0  -0.066277  -0.086036  0  3.619703  0
C  C81  1  0.15817287  0.32631934  0.71105111  1  0.117672  0  0.018196  0.137858  0  3.773562  0
C  C82  1  0.05443666  0.24919395  0.77816402  1  -0.134719  0  -0.003705  -0.121455  0  3.652549  0
C  C83  1  0.12686737  0.38839751  0.43558689  1  1.545504  0  0.273398  0.632339  0  4.106989  0
C  C84  1  0.09399244  0.37325622  0.75196421  1  -0.031904  0  -0.062881  -0.079966  0  3.618749  0
C  C85  1  0.19579668  0.30560748  0.85816637  1  -0.395585  0  -0.021578  -0.019148  0  4.076806  0
C  C86  1  0.14339582  0.33734365  0.66141744  1  -0.316484  0  -0.018404  -0.013852  0  4.03592  0
C  C87  1  0.74920294  0.37842645  0.38235350  1  0.019266  0  -0.008717  -0.048807  0  3.976187  0
C  C88  1  0.68486987  0.43573517  0.36136144  1  -0.012306  0  -0.05479  -0.078841  0  3.884398  0
C  C89  1  0.65642342  0.41653487  0.31211740  1  -0.02154  0  -0.011481  -0.018851  0  3.974381  0
C  C90  1  0.69859112  0.34482594  0.28212069  1  -0.014612  0  0.014898  0.05609  0  3.930428  0
C  C91  1  0.75929739  0.28450771  0.30414483  1  -0.005959  0  -0.080345  -0.127306  0  3.953927  0
C  C92  1  0.78226915  0.29911313  0.35363357  1  -0.039263  0  -0.064015  -0.054056  0  3.917951  0
C  C93  1  0.71115455  0.42770375  0.19718613  1  -0.028671  0  -0.018244  -0.045985  0  3.986505  0
C  C94  1  0.79446849  0.40820416  0.43313857  1  1.552345  0  0.282435  0.651186  0  4.070819  0
C  C95  1  0.68107019  0.40141589  0.14809995  1  -0.033755  0  -0.057713  -0.094986  0  3.926303  0
C  C96  1  0.60054520  0.18185078  0.15893454  1  0.000504  0  -0.059951  -0.049228  0  3.895878  0
C  C97  1  0.62787394  0.20708097  0.20808618  1  -0.035495  0  -0.079753  -0.130848  0  3.95652  0
C  C98  1  0.67923748  0.32853758  0.22890363  1  -0.0588  0  0.01863  0.066608  0  3.916323  0
C  C99  1  0.62273343  0.27928605  0.12877245  1  -0.035817  0  -0.008895  -0.046102  0  3.975175  0
C  C100  1  0.13643231  0.76287408  0.38259810  1  -0.017737  0  -0.014725  -0.052292  0  3.990226  0
C  C101  1  0.03597455  0.76239191  0.35719595  1  -0.074346  0  -0.073169  -0.07365  0  3.955957  0
C  C102  1  0.04532932  0.78136938  0.30813510  1  -0.006782  0  -0.081053  -0.11658  0  3.938334  0
C  C103  1  0.15557555  0.80208924  0.28302426  1  -0.032527  0  -0.000878  0.070667  0  3.974697  0
C  C104  1  0.25776991  0.80705354  0.30933593  1  -0.024669  0  -0.088087  -0.133476  0  3.980073  0
C  C105  1  0.11931284  0.72560055  0.43332981  1  1.526263  0  0.272421  0.635129  0  4.096134  0
C  C106  1  0.24831278  0.78697541  0.35839233  1  -0.051918  0  -0.075422  -0.083058  0  3.973173  0
C  C107  1  0.25351074  0.80382352  0.20192125  1  0.028272  0  -0.086221  -0.149547  0  3.96815  0
C  C108  1  0.26645773  0.83083907  0.15348716  1  -0.187855  0  -0.003981  -0.080739  0  3.896641  0
C  C109  1  0.08644443  0.87221641  0.15827484  1  -0.121289  0  0.005025  -0.048445  0  3.798174  0
C  C110  1  0.07616762  0.84541010  0.20685126  1  0.005963  0  -0.073515  -0.131703  0  3.923715  0
C  C111  1  0.16287061  0.81873669  0.23054034  1  -0.034  0  0.009653  0.105484  0  3.964011  0
C  C112  1  0.19006594  0.87670656  0.13133420  1  0.041969  0  -0.003548  -0.066498  0  3.889364  0
C  C113  1  0.15483122  0.37291487  0.38417822  1  -0.017736  0  -0.007533  -0.08316  0  3.95201  0
C  C114  1  0.24884049  0.47726049  0.36319102  1  -0.061519  0  -0.064645  -0.062994  0  3.9369  0
C  C115  1  0.26493456  0.47912724  0.31359572  1  0.040551  0  -0.072726  -0.101617  0  3.948041  0
C  C116  1  0.57269966  0.27005661  0.72870159  1  -0.11649  0  -0.000813  -0.122414  0  3.694697  0
C  C117  1  0.18667360  0.37673041  0.28359212  1  0.015355  0  0.002056  0.075556  0  3.997835  0
C  C118  1  0.09466423  0.27105466  0.30480037  1  -0.048348  0  -0.073934  -0.146496  0  3.911709  0
C  C119  1  0.07850429  0.26711760  0.35468844  1  -0.029587  0  -0.012501  0.006812  0  3.987729  0
C  C120  1  0.09965296  0.31853741  0.19959135  1  -0.050418  0  -0.070564  -0.146554  0  3.913826  0
C  C121  1  0.11398218  0.31257255  0.14986444  1  -0.006871  0  0.005091  0.047598  0  3.925327  0
C  C122  1  0.33952802  0.42505454  0.16157814  1  -0.04259  0  -0.073757  -0.06915  0  3.975815  0
C  C123  1  0.32336055  0.43604929  0.21098674  1  -0.045801  0  -0.083255  -0.125069  0  3.953713  0
C  C124  1  0.20320445  0.37807516  0.23094005  1  -0.029517  0  0.003462  0.085161  0  3.993748  0
C  C125  1  0.23632998  0.36084905  0.13076330  1  0.020862  0  0.001633  -0.060389  0  3.900029  0
C  C126  1  0.21442177  0.91108621  0.95496356  1  1.661186  0  0.285871  0.714414  0  4.153382  0
C  C127  1  0.64612108  0.21926755  0.75941995  1  -0.024953  0  -0.061844  -0.075826  0  3.588176  0
C  C128  1  0.55191435  0.24337020  0.94354342  1  1.626557  0  0.286294  0.727641  0  4.132718  0
C  C129  1  0.23073071  0.27142650  0.94860844  1  1.655807  0  0.285938  0.728634  0  4.139658  0
C  C130  1  0.22678434  0.94398578  0.08593393  1  1.561797  0  0.273612  0.648312  0  4.080236  0
C  C131  1  0.57186299  0.25186860  0.07888441  1  1.549783  0  0.287827  0.659404  0  4.05572  0
C  C132  1  0.26062729  0.32342933  0.08177803  1  1.546669  0  0.287524  0.661829  0  4.055607  0
C  C133  1  0.59703105  0.26199412  0.89484617  1  0.266184  0  -0.035066  -0.199682  0  3.921162  0
C  C134  1  0.35243529  0.98591688  0.80572550  1  0.949763  0  0.126043  0.30587  0  3.904152  0
C  C135  1  0.77954702  0.56213297  0.21087393  1  0.929863  0  0.098647  0.260905  0  3.940022  0
C  C136  1  0.57834659  0.46924762  0.29203859  1  0.948425  0  0.09685  0.279481  0  3.994051  0
C  C137  1  0.99600042  0.26380351  0.12069788  1  0.995854  0  0.106476  0.294699  0  3.951004  0
C  C138  1  0.98436052  0.14759133  0.37392935  1  0.961727  0  0.103045  0.277907  0  3.959354  0
C  C139  1  0.92970459  0.85346953  0.79985384  1  0.889369  0  0.121165  0.291005  0  3.882619  0
S  S140  1  0.34506121  0.74999741  0.72682037  1  3.132036  0  0.536658  1.139722  0  6.066209  0
S  S141  1  0.91285273  0.15700168  0.80799453  1  3.082222  0  0.537593  1.147959  0  6.021275  0
S  S142  1  0.44454224  0.18403051  0.69001273  1  3.096244  0  0.544228  1.138782  0  6.046856  0
S  S143  1  0.37588672  0.79351256  0.11914801  1  3.040337  0  0.547123  1.156971  0  5.934271  0
S  S144  1  0.95341950  0.89828242  0.13836235  1  3.200374  0  0.502952  1.15266  0  6.209781  0
O  O145  1  0.18731053  0.72275019  0.55594606  1  -1.212368  0  -0.200451  -0.547185  0  2.2916  0
O  O146  1  0.81805946  0.32922695  0.45418680  1  -1.272586  0  -0.23323  -0.597349  0  2.307489  0
O  O147  1  0.81525673  0.51495054  0.45197026  1  -1.261651  0  -0.229738  -0.590481  0  2.273218  0
O  O148  1  0.01920711  0.71740489  0.45476788  1  -1.284193  0  -0.25114  -0.626069  0  2.293885  0
O  O149  1  0.02488037  0.52247345  0.50356902  1  -1.612228  0  -0.39126  -1.269535  0  2.286403  0
O  O150  1  0.15015494  0.16959307  0.96522703  1  -1.233079  0  -0.220311  -0.577475  0  2.263532  0
O  O151  1  0.14245525  0.94821199  0.97601910  1  -1.211492  0  -0.214901  -0.572808  0  2.290792  0
O  O152  1  0.32600772  0.93529008  0.96794845  1  -1.23177  0  -0.22457  -0.571549  0  2.215142  0
O  O153  1  0.52498742  0.13998307  0.96235884  1  -1.238938  0  -0.224222  -0.584468  0  2.222507  0
O  O154  1  0.53705400  0.33378899  0.96376330  1  -1.2391  0  -0.229564  -0.594557  0  2.236922  0
O  O155  1  0.33260146  0.35043142  0.96937926  1  -1.244085  0  -0.229596  -0.593755  0  2.24844  0
O  O156  1  0.18944582  0.50118652  0.56191213  1  -1.210186  0  -0.205626  -0.552049  0  2.287613  0
O  O157  1  0.17719482  0.22375197  0.06230934  1  -1.259962  0  -0.211621  -0.580129  0  2.409955  0
O  O158  1  0.16545245  0.00097802  0.07450857  1  -1.251241  0  -0.218459  -0.581977  0  2.464866  0
O  O159  1  0.32272683  0.94987259  0.06268539  1  -1.266383  0  -0.232387  -0.606562  0  2.368941  0
O  O160  1  0.53868737  0.14220513  0.05997557  1  -1.263195  0  -0.226361  -0.588018  0  2.288315  0
O  O161  1  0.55560892  0.33654839  0.05878571  1  -1.25834  0  -0.229485  -0.597619  0  2.293993  0
O  O162  1  0.37064912  0.38706204  0.06373748  1  -1.275087  0  -0.241412  -0.609882  0  2.262251  0
O  O163  1  0.33516527  0.15556254  0.01510357  1  -1.610855  0  -0.391505  -1.28585  0  2.342025  0
O  O164  1  0.02072915  0.31259279  0.54718434  1  -1.260947  0  -0.246322  -0.615733  0  2.234371  0
O  O165  1  0.81888898  0.33378484  0.54979942  1  -1.228687  0  -0.225362  -0.579779  0  2.238036  0
O  O166  1  0.80962308  0.51760384  0.54757774  1  -1.22866  0  -0.218317  -0.56846  0  2.251529  0
O  O167  1  0.99911348  0.72576070  0.55088637  1  -1.248368  0  -0.23788  -0.594619  0  2.222505  0
O  O168  1  0.19906031  0.69847140  0.45176018  1  -1.235242  0  -0.211195  -0.555485  0  2.345135  0
O  O169  1  0.20513237  0.48102948  0.46010972  1  -1.24293  0  -0.208987  -0.550652  0  2.359693  0
O  O170  1  0.01793420  0.31026278  0.45100443  1  -1.273044  0  -0.242271  -0.614831  0  2.315232  0
O  O171  1  0.29379398  0.62539324  0.70601675  1  -1.284627  0  -0.287025  -0.493926  0  2.172033  0
O  O172  1  0.42520611  0.85508371  0.69992633  1  -1.277225  0  -0.301076  -0.504131  0  2.137169  0
O  O173  1  0.41150773  0.75021317  0.77627240  1  -1.251538  0  -0.364025  -0.53507  0  2.184209  0
O  O174  1  0.44604876  0.97141315  0.81285504  1  -1.073935  0  -0.218546  -0.324663  0  2.210071  0
O  O175  1  0.93981492  0.08526158  0.84189805  1  -1.296618  0  -0.312244  -0.55061  0  2.17391  0
O  O176  1  0.85830401  0.23658126  0.82400723  1  -1.292017  0  -0.294978  -0.510069  0  2.181939  0
O  O177  1  0.82402099  0.06405284  0.76658376  1  -1.242145  0  -0.356248  -0.52979  0  2.185764  0
O  O178  1  0.35475291  0.07902442  0.71499193  1  -1.317215  0  -0.292361  -0.522924  0  2.268906  0
O  O179  1  0.40717968  0.26853519  0.66880830  1  -1.281689  0  -0.296971  -0.51427  0  2.136158  0
O  O180  1  0.50367812  0.12708108  0.65028075  1  -1.19426  0  -0.332137  -0.474208  0  2.166845  0
O  O181  1  0.80699227  0.60749336  0.25210234  1  -1.080073  0  -0.235007  -0.329053  0  2.214193  0
O  O182  1  0.54499837  0.53919972  0.31420000  1  -1.074104  0  -0.25739  -0.35181  0  2.130462  0
O  O183  1  0.30874099  0.71075766  0.07946295  1  -1.266385  0  -0.298438  -0.492273  0  2.101347  0
O  O184  1  0.49541355  0.90097935  0.11331862  1  -1.296091  0  -0.308403  -0.545115  0  2.180424  0
O  O185  1  0.40339628  0.71005710  0.15701348  1  -1.180141  0  -0.356143  -0.537013  0  2.181478  0
O  O186  1  0.85329773  0.82222743  0.17047909  1  -1.320468  0  -0.353914  -0.592691  0  2.165984  0
O  O187  1  0.99599759  0.03160863  0.14446878  1  -1.291484  0  -0.339097  -0.581157  0  2.199654  0
O  O188  1  0.92220315  0.84775318  0.08753076  1  -1.315264  0  -0.359712  -0.605463  0  2.192937  0
O  O189  1  0.98748651  0.29997860  0.08130834  1  -1.078498  0  -0.267893  -0.353245  0  2.101264  0
O  O190  1  0.89073960  0.07534203  0.35092072  1  -1.084002  0  -0.269683  -0.361432  0  2.090387  0
O  O191  1  0.85735767  0.85757398  0.76949528  1  -1.099433  0  -0.247482  -0.360756  0  2.179753  0
O  O192  1  0.36874635  0.68383102  0.50938018  1  -1.368681  0  -0.577114  -0.99842  0  1.786917  0
O  O193  1  0.98901635  0.01157591  0.02732478  1  -1.325779  0  -0.481114  -0.793317  0  2.117007  0
