# generated using pymatgen
data_CoCuH14C14(NO6)2
_symmetry_space_group_name_H-M   'P 1'
_cell_length_a   7.70698391
_cell_length_b   7.75994107
_cell_length_c   7.68846919
_cell_angle_alpha   114.08215332
_cell_angle_beta   96.12878152
_cell_angle_gamma   92.63383328
_symmetry_Int_Tables_number   1
_chemical_formula_structural   CoCuH14C14(NO6)2
_chemical_formula_sum   'Co1 Cu1 H14 C14 N2 O12'
_cell_volume   415.35906123
_cell_formula_units_Z   1
loop_
 _symmetry_equiv_pos_site_id
 _symmetry_equiv_pos_as_xyz
  1  'x, y, z'
loop_
 _atom_site_type_symbol
 _atom_site_label
 _atom_site_symmetry_multiplicity
 _atom_site_fract_x
 _atom_site_fract_y
 _atom_site_fract_z
 _atom_site_occupancy
 _atom_site_hle17_ddec_charge
 _atom_site_hle17_ddec_spin_density
 _atom_site_hle17_ddec_sum_bond_order
 _atom_site_hle17_magmom
 _atom_site_hse06_10hf_ddec_charge
 _atom_site_hse06_10hf_ddec_spin_density
 _atom_site_hse06_10hf_ddec_sum_bond_order
 _atom_site_hse06_10hf_magmom
 _atom_site_hse06_ddec_charge
 _atom_site_hse06_ddec_spin_density
 _atom_site_hse06_ddec_sum_bond_order
 _atom_site_hse06_magmom
 _atom_site_pbe_cm5_charge
 _atom_site_pbe_ddec_charge
 _atom_site_pbe_ddec_spin_density
 _atom_site_pbe_ddec_sum_bond_order
 _atom_site_pbe_magmom
Co  Co0  1  0.49999961  0.50000108  0.99999884  1  1.236609  -3.119871  1.800924  -2.698  1.179659  -3.022359  2.194167  -2.695  1.2416  -3.032048  2.12455  -2.751  0.668881  1.150445  -3.03848  2.237649  -2.674
Cu  Cu1  1  0.99999914  0.49999798  0.49999720  1  0.809764  -0.495169  1.843096  -0.476  0.795754  -0.637374  2.236676  -0.616  0.885495  -0.710842  2.167148  -0.7  0.74148  0.726131  -0.563154  2.294719  -0.54
H  H2  1  0.00555250  0.83945476  0.08605556  1  0.137478  -0.000601  0.929078  -0.001  0.1422  -0.000594  0.994828  -0.001  0.146335  -0.000399  0.992589  -0.001  0.118557  0.138886  -0.000709  0.996804  -0.001
H  H3  1  0.99444537  0.16055285  0.91394833  1  0.137493  -0.000601  0.929093  -0.001  0.142234  -0.000594  0.994818  -0.001  0.146369  -0.000399  0.992578  -0.001  0.118574  0.13892  -0.000709  0.996792  -0.001
H  H4  1  0.39824880  0.46148345  0.30452428  1  0.428361  9.8e-05  0.868525  0.0  0.397582  -0.000176  0.933291  -0.001  0.408774  1.7e-05  0.917123  0.0  0.292359  0.390358  -0.000373  0.943648  -0.001
H  H5  1  0.60175015  0.53852128  0.69547468  1  0.428382  9.9e-05  0.868522  0.0  0.397593  -0.000176  0.933283  -0.001  0.408787  1.8e-05  0.91711  0.0  0.292351  0.390366  -0.000372  0.943645  -0.001
H  H6  1  0.57187615  0.60339036  0.38986965  1  0.424782  -0.000118  0.874907  -0.001  0.394869  -0.000628  0.93861  -0.001  0.404656  -0.000473  0.924603  -0.001  0.293318  0.389203  -0.000772  0.946534  -0.002
H  H7  1  0.42812126  0.39661150  0.61012670  1  0.424759  -0.000119  0.874933  -0.001  0.394835  -0.000628  0.938658  -0.001  0.404621  -0.000473  0.924652  -0.001  0.293304  0.38917  -0.000772  0.946582  -0.002
H  H8  1  0.37975522  0.10318378  0.60714975  1  0.123412  -9.3e-05  0.966794  0.0  0.133735  -0.000106  1.0283  0.0  0.137354  -3.2e-05  1.026932  0.0  0.113489  0.129901  -0.000134  1.030655  -0.001
H  H9  1  0.62024539  0.89680970  0.39284882  1  0.123441  -8.7e-05  0.966773  0.0  0.133773  -0.000106  1.028269  0.0  0.137394  -3.2e-05  1.026897  0.0  0.113494  0.129938  -0.000134  1.030624  -0.001
H  H10  1  0.59121065  0.83100126  0.00153809  1  0.427569  0.000223  0.878339  0.0  0.393748  1e-05  0.946632  0.0  0.405349  0.00018  0.929994  0.0  0.291658  0.386279  -0.000222  0.957253  -0.001
H  H11  1  0.40879351  0.16900356  0.99846410  1  0.427649  0.000224  0.878232  0.0  0.393841  1e-05  0.946502  0.0  0.405442  0.00018  0.929865  0.0  0.29171  0.386371  -0.000222  0.957124  -0.001
H  H12  1  0.28207890  0.84158854  0.69550433  1  0.102374  -0.000671  0.920666  -0.002  0.11274  -0.00078  0.977491  -0.002  0.116074  -0.000576  0.973993  -0.001  0.127086  0.109297  -0.000866  0.980988  -0.002
H  H13  1  0.71792280  0.15840203  0.30448801  1  0.102364  -0.000672  0.92069  -0.002  0.112731  -0.00078  0.977501  -0.002  0.116067  -0.000576  0.974006  -0.001  0.127082  0.109289  -0.000866  0.980996  -0.002
H  H14  1  0.39070898  0.83862469  0.03778432  1  0.424955  6.6e-05  0.858376  0.0  0.394445  -0.000649  0.933324  -0.001  0.404645  -0.000495  0.918444  -0.001  0.299003  0.388255  -0.000751  0.942308  -0.002
H  H15  1  0.60929542  0.16138299  0.96222033  1  0.424995  6.7e-05  0.858312  0.0  0.394484  -0.000649  0.933263  -0.001  0.404685  -0.000495  0.918381  -0.001  0.299018  0.388292  -0.000751  0.94225  -0.002
C  C16  1  0.02102373  0.71078487  0.28619317  1  0.09658  0.002189  3.746107  0.0  0.101275  0.000577  3.990964  -0.001  0.103225  0.002112  4.010693  0.001  0.109537  0.099464  -0.000136  3.978349  -0.002
C  C17  1  0.97897344  0.28921422  0.71380595  1  0.096531  0.00219  3.745959  0.0  0.101194  0.000576  3.990914  -0.001  0.103144  0.002112  4.010645  0.001  0.109481  0.099393  -0.000136  3.97828  -0.002
C  C18  1  0.07070432  0.84607429  0.22178384  1  -0.093985  -0.002712  3.640507  -0.003  -0.124375  -0.001589  3.882617  -0.002  -0.126151  -0.00181  3.898636  -0.002  -0.061673  -0.124086  -0.001406  3.874113  -0.002
C  C19  1  0.92929297  0.15392618  0.77821324  1  -0.094058  -0.002712  3.640695  -0.003  -0.124454  -0.001589  3.882829  -0.002  -0.12623  -0.00181  3.898848  -0.002  -0.061699  -0.124167  -0.001406  3.874322  -0.002
C  C20  1  0.20290646  0.98995026  0.33579511  1  -0.001768  0.008943  3.692264  0.005  0.019147  0.00447  3.926793  0.002  0.018345  0.005009  3.944266  0.003  0.010193  0.018157  0.004376  3.916926  0.002
C  C21  1  0.79709343  0.01005029  0.66420620  1  -0.001732  0.008946  3.692394  0.005  0.019169  0.004469  3.926931  0.002  0.018366  0.005009  3.944406  0.003  0.010164  0.018174  0.004375  3.917074  0.002
C  C22  1  0.27902958  0.99260736  0.51056662  1  -0.109043  -0.004989  3.64999  -0.007  -0.133626  -0.002909  3.895688  -0.004  -0.13761  -0.003016  3.912396  -0.004  -0.070766  -0.132216  -0.002349  3.888051  -0.004
C  C23  1  0.72097257  0.00738896  0.48943326  1  -0.109094  -0.005003  3.65007  -0.007  -0.133684  -0.00291  3.895727  -0.004  -0.137669  -0.003016  3.912438  -0.004  -0.070762  -0.132268  -0.002349  3.888091  -0.004
C  C24  1  0.22596840  0.84798830  0.56233310  1  0.160513  0.008266  3.633094  0.005  0.132606  0.002324  3.890747  0.001  0.142826  0.004075  3.904532  0.002  0.060888  0.125064  0.001133  3.883758  0.0
C  C25  1  0.77403103  0.15200654  0.43766328  1  0.160505  0.008273  3.633087  0.005  0.132616  0.002324  3.890689  0.001  0.142831  0.004074  3.904478  0.002  0.060909  0.125072  0.001133  3.883707  0.0
C  C26  1  0.87366729  0.55725532  0.18396424  1  0.611629  0.011325  3.903285  0.009  0.563469  -0.000266  4.206278  -0.001  0.601608  -0.000642  4.198543  -0.001  0.212743  0.538011  0.000541  4.211189  0.0
C  C27  1  0.12633390  0.44274524  0.81603722  1  0.611676  0.011323  3.903328  0.009  0.56346  -0.000266  4.206438  -0.001  0.601599  -0.000642  4.198703  -0.001  0.21271  0.538004  0.00054  4.211343  0.0
C  C28  1  0.26393298  0.13207374  0.26219255  1  0.658239  -9e-06  3.885241  0.0  0.601497  -0.000122  4.18873  0.0  0.634404  -7e-06  4.180756  0.0  0.22044  0.580084  -0.000227  4.192625  -0.001
C  C29  1  0.73606679  0.86792542  0.73780949  1  0.658154  -5e-06  3.885281  0.0  0.601395  -0.000122  4.188782  0.0  0.634308  -7e-06  4.180804  0.0  0.220437  0.579981  -0.000227  4.192674  -0.001
N  N30  1  0.09934242  0.71093440  0.45194312  1  -0.310511  -0.045806  3.364516  -0.076  -0.267673  -0.04043  3.659229  -0.066  -0.295812  -0.034645  3.679416  -0.06  -0.353368  -0.250973  -0.039292  3.648846  -0.062
N  N31  1  0.90065583  0.28906182  0.54805238  1  -0.310394  -0.045807  3.364243  -0.076  -0.267538  -0.04043  3.658937  -0.066  -0.295679  -0.034646  3.679129  -0.06  -0.353314  -0.250844  -0.039295  3.64855  -0.062
O  O32  1  0.85685842  0.42824627  0.24689298  1  -0.576907  -0.055912  2.058602  -0.101  -0.546728  -0.049417  2.340257  -0.09  -0.58615  -0.038817  2.328602  -0.075  -0.317259  -0.524099  -0.051213  2.352337  -0.09
O  O33  1  0.14314375  0.57174996  0.75310167  1  -0.576968  -0.055915  2.058533  -0.101  -0.546774  -0.049419  2.340221  -0.09  -0.586194  -0.038818  2.328555  -0.075  -0.317272  -0.524142  -0.051215  2.352295  -0.09
O  O34  1  0.77306614  0.56589576  0.04812538  1  -0.581324  -0.039726  2.068206  -0.074  -0.538776  -0.025319  2.324421  -0.043  -0.571066  -0.01771  2.31303  -0.03  -0.290842  -0.517536  -0.034641  2.331123  -0.058
O  O35  1  0.22692973  0.43410327  0.95187097  1  -0.581304  -0.039716  2.068396  -0.074  -0.538713  -0.025316  2.324608  -0.043  -0.571001  -0.017709  2.313217  -0.03  -0.290798  -0.517486  -0.034637  2.331323  -0.058
O  O36  1  0.27652196  0.06333934  0.08360500  1  -0.616651  -0.00091  1.975143  -0.001  -0.550742  -0.000526  2.188235  -0.001  -0.574986  -0.000177  2.177548  0.0  -0.301113  -0.534548  -0.001083  2.194874  -0.001
O  O37  1  0.72348338  0.93666414  0.91640070  1  -0.616626  -0.000913  1.975121  -0.001  -0.550677  -0.000526  2.18818  -0.001  -0.574924  -0.000177  2.177494  0.0  -0.301081  -0.534477  -0.001083  2.194813  -0.001
O  O38  1  0.29858421  0.30534526  0.37986490  1  -0.646624  0.000404  2.013398  -0.001  -0.594313  0.000644  2.250054  -0.001  -0.621005  0.001053  2.237411  0.0  -0.304616  -0.575403  7.4e-05  2.257783  -0.001
O  O39  1  0.70141604  0.69465954  0.62013815  1  -0.646563  0.000401  2.013491  -0.001  -0.594245  0.000644  2.250142  -0.001  -0.620939  0.001053  2.237498  0.0  -0.304621  -0.575339  7.4e-05  2.257873  -0.001
O  O40  1  0.47227087  0.55931723  0.28422144  1  -0.838264  -0.035529  1.949906  -0.059  -0.805573  -0.026977  2.162149  -0.04  -0.8328  -0.020872  2.129128  -0.031  -0.579048  -0.78302  -0.034948  2.181707  -0.052
O  O41  1  0.52772523  0.44068466  0.71577737  1  -0.838244  -0.035534  1.949895  -0.059  -0.805564  -0.026979  2.162187  -0.04  -0.832792  -0.020873  2.129168  -0.031  -0.579017  -0.783014  -0.034951  2.181742  -0.052
O  O42  1  0.49896919  0.78292139  0.05919965  1  -0.84402  -0.036917  1.975075  -0.06  -0.813233  -0.027668  2.205998  -0.041  -0.841588  -0.021328  2.171987  -0.032  -0.575779  -0.789382  -0.036182  2.225562  -0.053
O  O43  1  0.50103225  0.21708199  0.94080166  1  -0.844132  -0.036919  1.974988  -0.06  -0.813359  -0.027669  2.20592  -0.041  -0.841708  -0.021329  2.171898  -0.032  -0.57584  -0.789505  -0.036183  2.225486  -0.053
