# generated using pymatgen
data_CuH5C7NCl
_symmetry_space_group_name_H-M   'P 1'
_cell_length_a   3.75924955
_cell_length_b   10.84330143
_cell_length_c   16.93174620
_cell_angle_alpha   89.99645634
_cell_angle_beta   89.99909605
_cell_angle_gamma   98.59643936
_symmetry_Int_Tables_number   1
_chemical_formula_structural   CuH5C7NCl
_chemical_formula_sum   'Cu4 H20 C28 N4 Cl4'
_cell_volume   682.42953802
_cell_formula_units_Z   4
loop_
 _symmetry_equiv_pos_site_id
 _symmetry_equiv_pos_as_xyz
  1  'x, y, z'
loop_
 _atom_site_type_symbol
 _atom_site_label
 _atom_site_symmetry_multiplicity
 _atom_site_fract_x
 _atom_site_fract_y
 _atom_site_fract_z
 _atom_site_occupancy
 _atom_site_hle17_bader_spin_density
 _atom_site_hle17_ddec_charge
 _atom_site_hle17_ddec_spin_density
 _atom_site_hle17_ddec_sum_bond_order
 _atom_site_hle17_magmom
 _atom_site_hse06_10hf_bader_spin_density
 _atom_site_hse06_10hf_ddec_charge
 _atom_site_hse06_10hf_ddec_spin_density
 _atom_site_hse06_10hf_ddec_sum_bond_order
 _atom_site_hse06_10hf_magmom
 _atom_site_hse06_bader_spin_density
 _atom_site_hse06_ddec_charge
 _atom_site_hse06_ddec_spin_density
 _atom_site_hse06_ddec_sum_bond_order
 _atom_site_hse06_magmom
 _atom_site_pbe_bader_spin_density
 _atom_site_pbe_cm5_charge
 _atom_site_pbe_ddec_charge
 _atom_site_pbe_ddec_spin_density
 _atom_site_pbe_ddec_sum_bond_order
 _atom_site_pbe_magmom
Cu  Cu0  1  0.68991696  0.90179364  0.95248003  1  0  0.530487  0  1.993859  0  0  0.448012  0  2.49012  0  0  0.448056  0  2.440721  0  0  0.412315  0.450029  0  2.521444  0
Cu  Cu1  1  0.81003697  0.59821867  0.45247000  1  0  0.530567  0  1.994286  0  0  0.448071  0  2.490527  0  0  0.448124  0  2.441155  0  0  0.412418  0.450087  0  2.521803  0
Cu  Cu2  1  0.31009167  0.09823875  0.04752659  1  0  0.53063  0  1.994162  0  0  0.448154  0  2.490403  0  0  0.448215  0  2.441036  0  0  0.412507  0.45018  0  2.52171  0
Cu  Cu3  1  0.18986552  0.40173512  0.54752126  1  0  0.530689  0  1.994265  0  0  0.448217  0  2.490484  0  0  0.448281  0  2.441106  0  0  0.41254  0.450219  0  2.521797  0
H  H4  1  0.69100275  0.42794629  0.97497843  1  0  0.09058  0  0.97388  0  0  0.100497  0  1.038973  0  0  0.102135  0  1.039506  0  0  0.09954  0.099141  0  1.038867  0
H  H5  1  0.80901299  0.07204084  0.47497770  1  0  0.090574  0  0.973869  0  0  0.100499  0  1.038943  0  0  0.102138  0  1.039475  0  0  0.099518  0.099149  0  1.038838  0
H  H6  1  0.30915514  0.57207359  0.02501637  1  0  0.090352  0  0.97391  0  0  0.100267  0  1.039042  0  0  0.101903  0  1.039581  0  0  0.099394  0.098917  0  1.038944  0
H  H7  1  0.19087283  0.92789799  0.52503069  1  0  0.090563  0  0.973782  0  0  0.100461  0  1.038897  0  0  0.102106  0  1.039423  0  0  0.099475  0.099097  0  1.038817  0
H  H8  1  0.85842373  0.22897147  0.92583235  1  0  0.095768  0  0.975381  0  0  0.097884  0  1.052041  0  0  0.103433  0  1.047211  0  0  0.089039  0.093763  0  1.055719  0
H  H9  1  0.64147437  0.27101845  0.42584626  1  0  0.095976  0  0.975312  0  0  0.098033  0  1.052012  0  0  0.103576  0  1.047185  0  0  0.089098  0.093914  0  1.055693  0
H  H10  1  0.14156950  0.77102268  0.07415123  1  0  0.096008  0  0.975369  0  0  0.098123  0  1.051895  0  0  0.103676  0  1.04706  0  0  0.089137  0.094002  0  1.055575  0
H  H11  1  0.35850336  0.72895702  0.57418279  1  0  0.095957  0  0.975627  0  0  0.097999  0  1.05229  0  0  0.103544  0  1.047469  0  0  0.089133  0.09388  0  1.055959  0
H  H12  1  0.13505754  0.21935463  0.79387519  1  0  0.088812  0  0.958305  0  0  0.098427  0  1.021651  0  0  0.101035  0  1.020614  0  0  0.096676  0.096679  0  1.022198  0
H  H13  1  0.36488719  0.28068600  0.29389857  1  0  0.088942  0  0.958531  0  0  0.098537  0  1.021902  0  0  0.101203  0  1.020742  0  0  0.096707  0.09677  0  1.022495  0
H  H14  1  0.86493217  0.78065722  0.20608890  1  0  0.088694  0  0.958611  0  0  0.098369  0  1.02188  0  0  0.100978  0  1.020826  0  0  0.096659  0.096628  0  1.022406  0
H  H15  1  0.63512623  0.71930543  0.70612104  1  0  0.088948  0  0.958432  0  0  0.098484  0  1.021872  0  0  0.101197  0  1.020662  0  0  0.096714  0.096709  0  1.022473  0
H  H16  1  0.23542301  0.40931640  0.70779983  1  0  0.091646  0  0.977359  0  0  0.095652  0  1.049416  0  0  0.100316  0  1.046439  0  0  0.089208  0.092182  0  1.051734  0
H  H17  1  0.26459951  0.09077622  0.20780325  1  0  0.091777  0  0.977304  0  0  0.095801  0  1.049395  0  0  0.100526  0  1.046263  0  0  0.089325  0.092329  0  1.051719  0
H  H18  1  0.76460041  0.59072629  0.29218906  1  0  0.091902  0  0.977037  0  0  0.095895  0  1.049125  0  0  0.100589  0  1.046104  0  0  0.089271  0.092404  0  1.051482  0
H  H19  1  0.73539362  0.90923750  0.79220336  1  0  0.091799  0  0.977306  0  0  0.095819  0  1.0494  0  0  0.100538  0  1.046284  0  0  0.089293  0.09234  0  1.051733  0
H  H20  1  0.06981936  0.60842427  0.75625431  1  0  0.0982  0  0.959364  0  0  0.109234  0  1.021514  0  0  0.11221  0  1.020199  0  0  0.102049  0.106916  0  1.022798  0
H  H21  1  0.43018589  0.89165191  0.25624358  1  0  0.098343  0  0.959417  0  0  0.109281  0  1.021624  0  0  0.112255  0  1.020328  0  0  0.102159  0.106966  0  1.022901  0
H  H22  1  0.93031519  0.39161695  0.24375172  1  0  0.098221  0  0.959232  0  0  0.109165  0  1.021485  0  0  0.112138  0  1.02018  0  0  0.10205  0.106848  0  1.022777  0
H  H23  1  0.56973084  0.10834384  0.74375064  1  0  0.098393  0  0.959131  0  0  0.10921  0  1.021493  0  0  0.112191  0  1.020181  0  0  0.102126  0.106901  0  1.02276  0
C  C24  1  0.87418090  0.53127406  0.86905552  1  0  -0.00433  0  3.920876  0  0  0.022  0  4.147349  0  0  0.016918  0  4.169814  0  0  -0.005833  0.025106  0  4.132214  0
C  C25  1  0.62580162  0.96875440  0.36904816  1  0  -0.004219  0  3.921009  0  0  0.022034  0  4.147578  0  0  0.016949  0  4.170044  0  0  -0.005773  0.025173  0  4.132394  0
C  C26  1  0.12595414  0.46874853  0.13095227  1  0  -0.004259  0  3.921089  0  0  0.022019  0  4.147621  0  0  0.016936  0  4.170089  0  0  -0.005841  0.025142  0  4.132468  0
C  C27  1  0.37412331  0.03120226  0.63094664  1  0  -0.004015  0  3.920688  0  0  0.022277  0  4.147155  0  0  0.017203  0  4.169616  0  0  -0.005586  0.025412  0  4.131969  0
C  C28  1  0.81221907  0.42370604  0.91686970  1  0  -0.093344  0  3.727179  0  0  -0.114788  0  3.969213  0  0  -0.115691  0  3.991454  0  0  -0.081812  -0.113758  0  3.953941  0
C  C29  1  0.68778918  0.07630476  0.41687042  1  0  -0.093228  0  3.727321  0  0  -0.114635  0  3.969336  0  0  -0.115532  0  3.991578  0  0  -0.081825  -0.113623  0  3.954062  0
C  C30  1  0.18786655  0.57630614  0.08312864  1  0  -0.093033  0  3.7269  0  0  -0.114458  0  3.968896  0  0  -0.115356  0  3.991136  0  0  -0.081615  -0.113447  0  3.95364  0
C  C31  1  0.31218671  0.92365954  0.58312793  1  0  -0.093566  0  3.728192  0  0  -0.115004  0  3.970216  0  0  -0.115914  0  3.99246  0  0  -0.08193  -0.113989  0  3.954958  0
C  C32  1  0.90479573  0.31222656  0.88907364  1  0  -0.052008  0  3.739167  0  0  -0.063655  0  3.988398  0  0  -0.067164  0  4.008535  0  0  -0.086502  -0.061129  0  3.974358  0
C  C33  1  0.59518183  0.18778886  0.38907977  1  0  -0.052549  0  3.739768  0  0  -0.064164  0  3.98906  0  0  -0.067686  0  4.009223  0  0  -0.086657  -0.06163  0  3.975023  0
C  C34  1  0.09525030  0.68778641  0.11091939  1  0  -0.05255  0  3.739645  0  0  -0.06411  0  3.988906  0  0  -0.067626  0  4.009037  0  0  -0.086717  -0.061585  0  3.974871  0
C  C35  1  0.40476164  0.81218743  0.61092980  1  0  -0.052368  0  3.740597  0  0  -0.063914  0  3.989729  0  0  -0.067445  0  4.009919  0  0  -0.08661  -0.061382  0  3.975674  0
C  C36  1  0.05792421  0.30697241  0.81412846  1  0  -0.040427  0  3.708839  0  0  -0.056038  0  3.9536  0  0  -0.054218  0  3.972155  0  0  -0.079852  -0.057241  0  3.940883  0
C  C37  1  0.44202351  0.19306614  0.31414732  1  0  -0.040076  0  3.709153  0  0  -0.055605  0  3.953808  0  0  -0.053806  0  3.972425  0  0  -0.079576  -0.056808  0  3.94107  0
C  C38  1  0.94210119  0.69305539  0.18584745  1  0  -0.040034  0  3.709149  0  0  -0.055725  0  3.953917  0  0  -0.053893  0  3.972484  0  0  -0.079738  -0.05692  0  3.941191  0
C  C39  1  0.55789212  0.80692029  0.68586343  1  0  -0.040238  0  3.7092  0  0  -0.055754  0  3.953898  0  0  -0.053996  0  3.972498  0  0  -0.079814  -0.05695  0  3.941145  0
C  C40  1  0.11612048  0.41301104  0.76627002  1  0  -0.055056  0  3.743257  0  0  -0.064356  0  3.989921  0  0  -0.068395  0  4.010708  0  0  -0.086088  -0.062023  0  3.976682  0
C  C41  1  0.38384825  0.08705115  0.26627612  1  0  -0.055348  0  3.743846  0  0  -0.064838  0  3.990682  0  0  -0.068874  0  4.011522  0  0  -0.086397  -0.062501  0  3.977443  0
C  C42  1  0.88391513  0.58702890  0.23371592  1  0  -0.055625  0  3.743034  0  0  -0.065004  0  3.989809  0  0  -0.06906  0  4.010611  0  0  -0.086335  -0.062667  0  3.976569  0
C  C43  1  0.61608828  0.91294095  0.73373463  1  0  -0.055334  0  3.743708  0  0  -0.064789  0  3.990464  0  0  -0.068827  0  4.011308  0  0  -0.08624  -0.062456  0  3.977225  0
C  C44  1  0.02481272  0.52533600  0.79320023  1  0  -0.083107  0  3.71005  0  0  -0.109007  0  3.955406  0  0  -0.10844  0  3.974458  0  0  -0.078658  -0.109437  0  3.943207  0
C  C45  1  0.47514880  0.97471759  0.29319376  1  0  -0.083273  0  3.71038  0  0  -0.109007  0  3.955751  0  0  -0.108451  0  3.974793  0  0  -0.078818  -0.109451  0  3.943573  0
C  C46  1  0.97530472  0.47470236  0.20680107  1  0  -0.082763  0  3.709565  0  0  -0.108522  0  3.954896  0  0  -0.107964  0  3.973961  0  0  -0.078507  -0.108962  0  3.942699  0
C  C47  1  0.52475584  0.02526136  0.70680518  1  0  -0.083164  0  3.710099  0  0  -0.108836  0  3.955485  0  0  -0.108284  0  3.974526  0  0  -0.078773  -0.109276  0  3.943302  0
C  C48  1  0.78473019  0.64566746  0.89713973  1  0  0.308752  0  3.710315  0  0  0.291869  0  3.970221  0  0  0.305981  0  3.984461  0  0  0.201792  0.282615  0  3.960562  0
C  C49  1  0.71523735  0.85434874  0.39711705  1  0  0.308557  0  3.709574  0  0  0.291691  0  3.969525  0  0  0.305814  0  3.983755  0  0  0.201763  0.282417  0  3.959862  0
C  C50  1  0.21537974  0.35435225  0.10288578  1  0  0.308515  0  3.710216  0  0  0.291632  0  3.970127  0  0  0.305749  0  3.984372  0  0  0.20183  0.28237  0  3.960464  0
C  C51  1  0.28464557  0.14563572  0.60288661  1  0  0.308452  0  3.710039  0  0  0.291612  0  3.969953  0  0  0.305735  0  3.984179  0  0  0.201736  0.282346  0  3.960301  0
N  N52  1  0.71392448  0.74071513  0.92061578  1  0  -0.437473  0  3.158841  0  0  -0.395774  0  3.504534  0  0  -0.398949  0  3.49587  0  0  -0.397409  -0.394516  0  3.509563  0
N  N53  1  0.78605337  0.75928472  0.42060307  1  0  -0.437361  0  3.158161  0  0  -0.395596  0  3.50378  0  0  -0.398766  0  3.495113  0  0  -0.397433  -0.394332  0  3.508795  0
N  N54  1  0.28616950  0.25929800  0.07939615  1  0  -0.437515  0  3.15875  0  0  -0.395762  0  3.504372  0  0  -0.398935  0  3.495715  0  0  -0.397624  -0.394504  0  3.509398  0
N  N55  1  0.21387719  0.24068594  0.57938582  1  0  -0.437433  0  3.159226  0  0  -0.39571  0  3.504899  0  0  -0.398884  0  3.496234  0  0  -0.397559  -0.394453  0  3.509947  0
Cl  Cl56  1  0.26653202  0.02660190  0.91355097  1  0  -0.53862  0  1.454879  0  0  -0.460054  0  1.84941  0  0  -0.47738  0  1.813335  0  0  -0.274496  -0.448416  0  1.872961  0
Cl  Cl57  1  0.23344010  0.47341625  0.41354423  1  0  -0.538652  0  1.454947  0  0  -0.460087  0  1.849469  0  0  -0.477405  0  1.813361  0  0  -0.274485  -0.448432  0  1.872992  0
Cl  Cl58  1  0.73350560  0.97341663  0.08645682  1  0  -0.538526  0  1.454641  0  0  -0.459977  0  1.849141  0  0  -0.477328  0  1.813104  0  0  -0.274449  -0.448342  0  1.872679  0
Cl  Cl59  1  0.76646652  0.52654781  0.58644526  1  0  -0.538615  0  1.454851  0  0  -0.460056  0  1.849364  0  0  -0.477379  0  1.813279  0  0  -0.274519  -0.448403  0  1.872898  0
