# generated using pymatgen
data_ZnH14C20N3O4F
_symmetry_space_group_name_H-M   'P 1'
_cell_length_a   10.98638404
_cell_length_b   15.86810368
_cell_length_c   17.15780909
_cell_angle_alpha   87.17805622
_cell_angle_beta   87.97742005
_cell_angle_gamma   86.16690975
_symmetry_Int_Tables_number   1
_chemical_formula_structural   ZnH14C20N3O4F
_chemical_formula_sum   'Zn2 H28 C40 N6 O8 F2'
_cell_volume   2979.32604616
_cell_formula_units_Z   2
loop_
 _symmetry_equiv_pos_site_id
 _symmetry_equiv_pos_as_xyz
  1  'x, y, z'
loop_
 _atom_site_type_symbol
 _atom_site_label
 _atom_site_symmetry_multiplicity
 _atom_site_fract_x
 _atom_site_fract_y
 _atom_site_fract_z
 _atom_site_occupancy
 _atom_site_pbe_bader_charge
 _atom_site_pbe_bader_spin_density
 _atom_site_pbe_cm5_charge
 _atom_site_pbe_ddec_charge
 _atom_site_pbe_ddec_spin_density
 _atom_site_pbe_ddec_sum_bond_order
 _atom_site_pbe_magmom
Zn  Zn0  1  0.49354195  0.58853059  0.50101851  1  1.282551  0  0.667199  0.812871  0  2.449255  0
Zn  Zn1  1  0.51153883  0.41282559  0.49709403  1  1.280968  0  0.663568  0.833025  0  2.408177  0
H  H2  1  0.90061044  0.44461010  0.39452391  1  0.078347  0  0.103344  0.108411  0  0.989028  0
H  H3  1  0.49231638  0.65974296  0.24887447  1  0.090269  0  0.105162  0.11051  0  0.997903  0
H  H4  1  0.62112455  0.36166739  0.73881247  1  0.089193  0  0.11137  0.118462  0  0.976864  0
H  H5  1  0.62063993  0.39847745  0.10910440  1  0.099274  0  0.10462  0.105434  0  1.016975  0
H  H6  1  0.66299750  0.35900445  0.88264047  1  0.082277  0  0.10888  0.115365  0  0.991748  0
H  H7  1  0.59904652  0.39462413  0.25603174  1  0.089686  0  0.102685  0.108431  0  1.007541  0
H  H8  1  0.62165737  0.72640428  0.42541903  1  0.137264  0  0.134004  0.112771  0  0.962439  0
H  H9  1  0.62375153  0.88549970  0.43073776  1  0.117135  0  0.119214  0.12687  0  1.000339  0
H  H10  1  0.34995897  0.71523457  0.59809106  1  0.113391  0  0.135549  0.113067  0  0.960892  0
H  H11  1  0.76051383  0.54867473  0.64030103  1  0.070685  0  0.098892  0.112319  0  1.025715  0
H  H12  1  0.36759416  0.11641834  0.56605387  1  0.123956  0  0.119305  0.132216  0  0.996601  0
H  H13  1  0.34247060  0.87389253  0.61231900  1  0.086354  0  0.123719  0.134689  0  0.972958  0
H  H14  1  0.37137900  0.27643693  0.56975035  1  0.124341  0  0.136455  0.118914  0  0.956368  0
H  H15  1  0.08672047  0.59179970  0.75973135  1  0.045656  0  0.094592  0.093605  0  1.01113  0
H  H16  1  0.21300210  0.55289839  0.64449761  1  0.040436  0  0.096788  0.107096  0  1.02425  0
H  H17  1  0.12855455  0.44201872  0.39675480  1  0.086348  0  0.103046  0.107455  0  0.991247  0
H  H18  1  0.45847756  0.59912636  0.89967823  1  0.119508  0  0.113432  0.135548  0  1.008726  0
H  H19  1  0.51299091  0.66405048  0.10147264  1  0.075265  0  0.105908  0.107236  0  0.996324  0
H  H20  1  0.71755025  0.19604679  0.28407670  1  0.038188  0  0.088951  0.12057  0  0.998798  0
H  H21  1  0.83705947  0.19329354  0.35105058  1  0.066458  0  0.089348  0.121924  0  1.004935  0
H  H22  1  0.82815302  0.10941327  0.28733991  1  0.014772  0  0.091159  0.120456  0  0.993769  0
H  H23  1  0.75734247  0.06424458  0.42102338  1  0.048221  0  0.102477  0.100008  0  0.954203  0
H  H24  1  0.64478890  0.05959016  0.35283358  1  0.055227  0  0.101647  0.094165  0  0.980015  0
H  H25  1  0.81048753  0.73091204  0.75259923  1  0.012049  0  0.08006  0.10447  0  1.009566  0
H  H26  1  0.69134277  0.67118157  0.72146862  1  0.011276  0  0.083627  0.115686  0  1.014868  0
H  H27  1  0.70193496  0.69064715  0.82205179  1  0.029276  0  0.081725  0.108971  0  1.010755  0
H  H28  1  0.77944059  0.54276724  0.79705924  1  0.03758  0  0.086237  0.082923  0  1.007754  0
H  H29  1  0.89799099  0.60100380  0.82879481  1  0.011301  0  0.089066  0.081133  0  0.979497  0
C  C30  1  0.52164015  0.52139386  0.34724400  1  1.574123  0  0.213509  0.58966  0  4.174687  0
C  C31  1  0.92998555  0.52560717  0.57397595  1  -0.020185  0  -0.004813  0.061103  0  3.976149  0
C  C32  1  0.87458797  0.49765493  0.50675735  1  -0.090769  0  -0.010567  -0.056522  0  3.944211  0
C  C33  1  0.94493990  0.46745017  0.44458756  1  0.016713  0  -0.095988  -0.118302  0  4.030812  0
C  C34  1  0.07310177  0.46614109  0.44576663  1  -0.072925  0  -0.093378  -0.107427  0  4.029009  0
C  C35  1  0.13042037  0.49642355  0.50826028  1  0.008602  0  -0.015418  -0.073821  0  3.952238  0
C  C36  1  0.54245949  0.52658605  0.26032136  1  -0.004944  0  -0.010027  -0.015795  0  3.931579  0
C  C37  1  0.58116538  0.45313624  0.22114625  1  0.00753  0  -0.082405  -0.08271  0  3.972749  0
C  C38  1  0.59336881  0.45512142  0.14041886  1  -0.050723  0  -0.085211  -0.142249  0  3.955464  0
C  C39  1  0.56603591  0.53154437  0.09738419  1  0.36749  0  0.086356  0.169105  0  4.050677  0
C  C40  1  0.53243218  0.60576988  0.13650432  1  -0.107163  0  -0.08154  -0.142179  0  3.965213  0
C  C41  1  0.73830095  0.49928555  0.50348543  1  1.599425  0  0.218048  0.608739  0  4.173573  0
C  C42  1  0.52086023  0.60331347  0.21754934  1  -0.043079  0  -0.083783  -0.087881  0  3.98163  0
C  C43  1  0.49569616  0.54763678  0.86453223  1  0.087277  0  -0.095535  -0.276526  0  3.9599  0
C  C44  1  0.47390494  0.54712206  0.78588957  1  0.406906  0  0.107338  0.290032  0  4.038566  0
C  C45  1  0.56555604  0.47929018  0.89926763  1  0.320814  0  0.089765  0.194293  0  4.067359  0
C  C46  1  0.51881027  0.48126021  0.73878824  1  0.017324  0  -0.01627  -0.128335  0  3.943712  0
C  C47  1  0.58665234  0.41315270  0.77500844  1  -0.034833  0  -0.077517  -0.065429  0  3.981689  0
C  C48  1  0.61017547  0.41168240  0.85426161  1  -0.040046  0  -0.085779  -0.163904  0  3.975025  0
C  C49  1  0.43524292  0.23844695  0.53374496  1  0.483353  0  0.063596  0.130341  0  3.916265  0
C  C50  1  0.43361824  0.15164358  0.53140259  1  0.013771  0  -0.078666  -0.204594  0  3.961031  0
C  C51  1  0.51916391  0.10870959  0.48223394  1  0.317957  0  0.106803  0.157982  0  4.019136  0
C  C52  1  0.50295125  0.48473484  0.65222895  1  1.616379  0  0.212315  0.60144  0  4.196659  0
C  C53  1  0.60524676  0.15235362  0.43531724  1  0.071931  0  0.008924  -0.073947  0  3.86702  0
C  C54  1  0.59787174  0.23980242  0.44474689  1  1.120532  0  0.247425  0.387915  0  4.018837  0
C  C55  1  0.56158742  0.84953335  0.46785997  1  -0.032822  0  -0.07025  -0.18655  0  3.925384  0
C  C56  1  0.56070061  0.76251815  0.46481988  1  0.495968  0  0.065947  0.115757  0  3.90311  0
C  C57  1  0.48095594  0.89064529  0.52111241  1  0.381246  0  0.105496  0.196778  0  4.042373  0
C  C58  1  0.40807388  0.75586457  0.56227306  1  0.579903  0  0.072424  0.121675  0  3.887492  0
C  C59  1  0.40407982  0.84295801  0.56984572  1  -0.047298  0  -0.063719  -0.180151  0  3.904341  0
C  C60  1  0.26657977  0.49720461  0.50405946  1  1.583876  0  0.21916  0.608943  0  4.15922  0
C  C61  1  0.85976202  0.54951670  0.64128445  1  -0.031038  0  -0.096448  -0.194561  0  3.925436  0
C  C62  1  0.91372121  0.57242349  0.70808456  1  -0.071807  0  -0.012724  0.12161  0  3.977026  0
C  C63  1  0.04281249  0.57367036  0.70748155  1  -0.078852  0  -0.100554  -0.151923  0  4.027003  0
C  C64  1  0.11413222  0.55158958  0.64296942  1  0.048148  0  -0.098684  -0.13355  0  4.008062  0
C  C65  1  0.06061212  0.52596623  0.57450227  1  -0.033616  0  -0.006125  0.056208  0  3.965972  0
C  C66  1  0.69654722  0.10462421  0.38294403  1  -0.000739  0  -0.152467  -0.114991  0  3.989274  0
C  C67  1  0.77384621  0.15435065  0.32331315  1  -0.060809  0  -0.244571  -0.360969  0  3.97848  0
C  C68  1  0.83732713  0.59512471  0.77991994  1  0.017138  0  -0.161365  -0.13892  0  3.971919  0
C  C69  1  0.75557026  0.67679494  0.76835247  1  -0.043676  0  -0.245948  -0.350718  0  3.974213  0
N  N70  1  0.56048511  0.53946969  0.01537327  1  -0.459418  0  -0.150331  -0.135721  0  3.293637  0
N  N71  1  0.58760291  0.47209453  0.97995994  1  -0.463485  0  -0.152641  -0.14115  0  3.267037  0
N  N72  1  0.51775366  0.28170249  0.49065731  1  -1.238687  0  -0.314389  -0.283531  0  3.506582  0
N  N73  1  0.52213601  0.02036729  0.47407797  1  -0.46313  0  -0.12332  -0.095359  0  3.262733  0
N  N74  1  0.47546984  0.97909641  0.53108261  1  -0.431933  0  -0.126592  -0.113538  0  3.215443  0
N  N75  1  0.48484139  0.71693490  0.51078717  1  -1.227158  0  -0.310265  -0.183595  0  3.497286  0
O  O76  1  0.49034581  0.58976834  0.38084221  1  -1.165103  0  -0.321488  -0.547967  0  2.300136  0
O  O77  1  0.53643614  0.44820874  0.38068339  1  -1.167886  0  -0.319402  -0.557414  0  2.356897  0
O  O78  1  0.68168132  0.57068743  0.48965742  1  -1.162433  0  -0.316548  -0.550552  0  2.306368  0
O  O79  1  0.69083299  0.42854062  0.51457576  1  -1.155059  0  -0.32003  -0.549091  0  2.32049  0
O  O80  1  0.51290013  0.55724374  0.61839214  1  -1.153043  0  -0.315758  -0.554282  0  2.355292  0
O  O81  1  0.48615340  0.41630051  0.61995893  1  -1.156917  0  -0.318015  -0.547438  0  2.268825  0
O  O82  1  0.31261181  0.56714315  0.51486553  1  -1.165921  0  -0.315926  -0.548624  0  2.326121  0
O  O83  1  0.32623833  0.42797466  0.48863833  1  -1.155943  0  -0.320982  -0.553657  0  2.310301  0
F  F84  1  0.67657304  0.28851003  0.40506783  1  -0.627035  0  -0.055467  -0.109992  0  1.408111  0
F  F85  1  0.40229894  0.61276428  0.75426108  1  -0.635184  0  -0.108224  -0.15232  0  1.330039  0
