# generated using pymatgen
data_La2H12C8SO14
_symmetry_space_group_name_H-M   'P 1'
_cell_length_a   9.56454242
_cell_length_b   12.89819681
_cell_length_c   13.12264544
_cell_angle_alpha   110.23818557
_cell_angle_beta   90.00002976
_cell_angle_gamma   89.99996766
_symmetry_Int_Tables_number   1
_chemical_formula_structural   La2H12C8SO14
_chemical_formula_sum   'La8 H48 C32 S4 O56'
_cell_volume   1518.93446541
_cell_formula_units_Z   4
loop_
 _symmetry_equiv_pos_site_id
 _symmetry_equiv_pos_as_xyz
  1  'x, y, z'
loop_
 _atom_site_type_symbol
 _atom_site_label
 _atom_site_symmetry_multiplicity
 _atom_site_fract_x
 _atom_site_fract_y
 _atom_site_fract_z
 _atom_site_occupancy
 _atom_site_hle17_bader_spin_density
 _atom_site_hle17_ddec_charge
 _atom_site_hle17_ddec_spin_density
 _atom_site_hle17_ddec_sum_bond_order
 _atom_site_hle17_magmom
 _atom_site_hse06_10hf_bader_spin_density
 _atom_site_hse06_10hf_ddec_charge
 _atom_site_hse06_10hf_ddec_spin_density
 _atom_site_hse06_10hf_ddec_sum_bond_order
 _atom_site_hse06_10hf_magmom
 _atom_site_hse06_bader_spin_density
 _atom_site_hse06_ddec_charge
 _atom_site_hse06_ddec_spin_density
 _atom_site_hse06_ddec_sum_bond_order
 _atom_site_hse06_magmom
 _atom_site_pbe_bader_spin_density
 _atom_site_pbe_cm5_charge
 _atom_site_pbe_ddec_charge
 _atom_site_pbe_ddec_spin_density
 _atom_site_pbe_ddec_sum_bond_order
 _atom_site_pbe_magmom
La  La0  1  0.33739933  0.54239694  0.61537697  1  0  2.163145  0  1.734156  0  0  2.039296  0  2.246759  0  0  2.141597  0  2.146486  0  0  1.43449  1.962534  0  2.316865  0
La  La1  1  0.83739914  0.95760297  0.88462302  1  0  2.163172  0  1.7341  0  0  2.039322  0  2.246711  0  0  2.141618  0  2.146443  0  0  1.434489  1.962553  0  2.316822  0
La  La2  1  0.66260041  0.45760379  0.38462359  1  0  2.163085  0  1.734209  0  0  2.039294  0  2.246728  0  0  2.14159  0  2.146463  0  0  1.434487  1.962523  0  2.316836  0
La  La3  1  0.16260059  0.04239693  0.11537726  1  0  2.163089  0  1.734213  0  0  2.039304  0  2.246751  0  0  2.141601  0  2.146482  0  0  1.434504  1.962543  0  2.31685  0
La  La4  1  0.13623562  0.44695837  0.86835313  1  0  2.141797  0  1.766172  0  0  2.017501  0  2.278521  0  0  2.118263  0  2.181164  0  0  1.434254  1.941995  0  2.346427  0
La  La5  1  0.63623869  0.05304180  0.63164716  1  0  2.14177  0  1.766199  0  0  2.017485  0  2.278557  0  0  2.118243  0  2.181199  0  0  1.434243  1.941963  0  2.346476  0
La  La6  1  0.86376097  0.55304318  0.13164771  1  0  2.1418  0  1.766162  0  0  2.01749  0  2.278521  0  0  2.118247  0  2.181167  0  0  1.434243  1.941964  0  2.34645  0
La  La7  1  0.36376418  0.94695893  0.36835264  1  0  2.141809  0  1.76615  0  0  2.017465  0  2.278555  0  0  2.118224  0  2.181201  0  0  1.434247  1.941941  0  2.346475  0
H  H8  1  0.04509263  0.35563358  0.47033874  1  0  0.123959  0  0.944991  0  0  0.133717  0  1.008028  0  0  0.137039  0  1.006003  0  0  0.11293  0.131252  0  1.009747  0
H  H9  1  0.54509242  0.14436719  0.02966207  1  0  0.123996  0  0.944967  0  0  0.133741  0  1.008015  0  0  0.137062  0  1.00599  0  0  0.112932  0.131275  0  1.009733  0
H  H10  1  0.95491129  0.64436467  0.52966098  1  0  0.123973  0  0.944999  0  0  0.133737  0  1.008018  0  0  0.137057  0  1.005995  0  0  0.11293  0.131271  0  1.009739  0
H  H11  1  0.45490731  0.85563437  0.97033953  1  0  0.123963  0  0.944975  0  0  0.133724  0  1.008008  0  0  0.137045  0  1.005984  0  0  0.112928  0.131258  0  1.009727  0
H  H12  1  0.89858357  0.28887133  0.50579872  1  0  0.120377  0  0.913541  0  0  0.134038  0  0.970106  0  0  0.136193  0  0.969656  0  0  0.113801  0.132592  0  0.97033  0
H  H13  1  0.39858390  0.21112876  0.99420164  1  0  0.120397  0  0.913548  0  0  0.134059  0  0.970095  0  0  0.136212  0  0.969648  0  0  0.113811  0.132614  0  0.970319  0
H  H14  1  0.10141930  0.71112775  0.49420051  1  0  0.120431  0  0.913522  0  0  0.134052  0  0.970114  0  0  0.136204  0  0.969668  0  0  0.113799  0.132605  0  0.97034  0
H  H15  1  0.60141583  0.78887114  0.00579864  1  0  0.120372  0  0.913546  0  0  0.134032  0  0.970113  0  0  0.136185  0  0.969665  0  0  0.113801  0.132587  0  0.970337  0
H  H16  1  0.37371801  0.26025323  0.78072044  1  0  0.451388  0  0.842714  0  0  0.421637  0  0.902992  0  0  0.433665  0  0.885611  0  0  0.30859  0.412997  0  0.915465  0
H  H17  1  0.87371891  0.23974687  0.71927991  1  0  0.451433  0  0.842654  0  0  0.421651  0  0.90298  0  0  0.433678  0  0.8856  0  0  0.308591  0.41301  0  0.915455  0
H  H18  1  0.62628068  0.73974833  0.21928040  1  0  0.451457  0  0.842624  0  0  0.421674  0  0.902945  0  0  0.433702  0  0.885564  0  0  0.308598  0.413036  0  0.915416  0
H  H19  1  0.12628186  0.76025303  0.28072037  1  0  0.451445  0  0.842637  0  0  0.421665  0  0.902956  0  0  0.433693  0  0.885575  0  0  0.308603  0.413026  0  0.915428  0
H  H20  1  0.34259467  0.30970740  0.68753263  1  0  0.430367  0  0.86456  0  0  0.401334  0  0.926005  0  0  0.411762  0  0.910838  0  0  0.310485  0.393824  0  0.936888  0
H  H21  1  0.84259568  0.19029436  0.81246828  1  0  0.430342  0  0.864598  0  0  0.401302  0  0.926055  0  0  0.41173  0  0.910888  0  0  0.310462  0.393791  0  0.936938  0
H  H22  1  0.65740402  0.69029333  0.31246793  1  0  0.430347  0  0.864589  0  0  0.401304  0  0.92605  0  0  0.411732  0  0.910883  0  0  0.310468  0.393793  0  0.936934  0
H  H23  1  0.15740510  0.80970720  0.18753256  1  0  0.430357  0  0.864575  0  0  0.401312  0  0.926041  0  0  0.411742  0  0.91087  0  0  0.31048  0.393802  0  0.936925  0
H  H24  1  0.04069941  0.13229220  0.50876294  1  0  0.138543  0  0.929593  0  0  0.151221  0  0.988315  0  0  0.15486  0  0.986081  0  0  0.116716  0.1486  0  0.990147  0
H  H25  1  0.54069833  0.36770801  0.99123657  1  0  0.138529  0  0.929636  0  0  0.151207  0  0.988359  0  0  0.154846  0  0.986126  0  0  0.116724  0.148588  0  0.990191  0
H  H26  1  0.95930241  0.86770605  0.49123602  1  0  0.138522  0  0.929583  0  0  0.151209  0  0.988306  0  0  0.154848  0  0.986071  0  0  0.116723  0.148588  0  0.990138  0
H  H27  1  0.45930036  0.63229355  0.00876427  1  0  0.138514  0  0.929568  0  0  0.151188  0  0.988297  0  0  0.154826  0  0.986062  0  0  0.116721  0.148567  0  0.99013  0
H  H28  1  0.19844138  0.20337384  0.50721014  1  0  0.120044  0  0.947253  0  0  0.130266  0  1.012007  0  0  0.132866  0  1.011037  0  0  0.113531  0.128462  0  1.012734  0
H  H29  1  0.69844035  0.29662714  0.99279121  1  0  0.12004  0  0.947216  0  0  0.130276  0  1.011955  0  0  0.132876  0  1.010984  0  0  0.113545  0.128469  0  1.012686  0
H  H30  1  0.80156149  0.79662358  0.49278929  1  0  0.120018  0  0.947186  0  0  0.130243  0  1.011967  0  0  0.132843  0  1.010998  0  0  0.113523  0.128438  0  1.012696  0
H  H31  1  0.30155834  0.70337524  0.00721220  1  0  0.120002  0  0.947218  0  0  0.130257  0  1.011943  0  0  0.132855  0  1.010973  0  0  0.113541  0.128451  0  1.012673  0
H  H32  1  0.11887022  0.45007099  0.25724689  1  0  0.106129  0  0.941075  0  0  0.115739  0  1.007851  0  0  0.118042  0  1.006848  0  0  0.109377  0.114103  0  1.008649  0
H  H33  1  0.61886919  0.04992892  0.24275366  1  0  0.106135  0  0.941053  0  0  0.115745  0  1.007823  0  0  0.118046  0  1.006823  0  0  0.109372  0.114105  0  1.008623  0
H  H34  1  0.88112951  0.54992891  0.74275415  1  0  0.106129  0  0.941062  0  0  0.115745  0  1.007838  0  0  0.118048  0  1.006836  0  0  0.109376  0.114106  0  1.008637  0
H  H35  1  0.38113054  0.95007098  0.75724662  1  0  0.106115  0  0.941075  0  0  0.115737  0  1.007847  0  0  0.118039  0  1.006845  0  0  0.10937  0.1141  0  1.008646  0
H  H36  1  0.26536758  0.36224820  0.21495756  1  0  0.121612  0  0.935872  0  0  0.135087  0  0.995397  0  0  0.137963  0  0.993863  0  0  0.112379  0.132901  0  0.996824  0
H  H37  1  0.76536860  0.13775001  0.28504246  1  0  0.121622  0  0.93588  0  0  0.13509  0  0.995412  0  0  0.137965  0  0.993878  0  0  0.112375  0.1329  0  0.99684  0
H  H38  1  0.73463111  0.63775005  0.78504291  1  0  0.121613  0  0.935855  0  0  0.135084  0  0.995401  0  0  0.137968  0  0.993858  0  0  0.11237  0.132895  0  0.996829  0
H  H39  1  0.23463322  0.86224907  0.71495830  1  0  0.121602  0  0.93588  0  0  0.135072  0  0.995428  0  0  0.137953  0  0.993888  0  0  0.112375  0.132884  0  0.996856  0
H  H40  1  0.27064532  0.61256634  0.25534015  1  0  0.120499  0  0.937273  0  0  0.133042  0  0.997113  0  0  0.136134  0  0.995252  0  0  0.111072  0.130736  0  0.998702  0
H  H41  1  0.77064300  0.88743250  0.24466057  1  0  0.120511  0  0.937201  0  0  0.133062  0  0.997088  0  0  0.136153  0  0.995229  0  0  0.111091  0.130755  0  0.998676  0
H  H42  1  0.72935545  0.38743274  0.74466137  1  0  0.120511  0  0.937272  0  0  0.133037  0  0.997128  0  0  0.136128  0  0.995268  0  0  0.11106  0.130729  0  0.998717  0
H  H43  1  0.22935673  0.11256658  0.75533867  1  0  0.120487  0  0.937279  0  0  0.133028  0  0.997134  0  0  0.13612  0  0.995276  0  0  0.111076  0.130721  0  0.998723  0
H  H44  1  0.41224752  0.52007094  0.20476281  1  0  0.111321  0  0.9422  0  0  0.123221  0  1.003105  0  0  0.125736  0  1.002094  0  0  0.109845  0.121388  0  1.003944  0
H  H45  1  0.91224620  0.97992619  0.29523434  1  0  0.111258  0  0.942227  0  0  0.123201  0  1.003139  0  0  0.125717  0  1.00213  0  0  0.109858  0.121369  0  1.003979  0
H  H46  1  0.58775222  0.47992731  0.79523539  1  0  0.111312  0  0.942221  0  0  0.123234  0  1.003099  0  0  0.125749  0  1.002088  0  0  0.109855  0.121401  0  1.003939  0
H  H47  1  0.08775562  0.02007041  0.70476100  1  0  0.111266  0  0.942369  0  0  0.123216  0  1.003232  0  0  0.125734  0  1.002217  0  0  0.109807  0.121378  0  1.004067  0
H  H48  1  0.07762732  0.72283709  0.69958656  1  0  0.446032  0  0.850638  0  0  0.4173  0  0.910365  0  0  0.429027  0  0.893412  0  0  0.306095  0.408874  0  0.922527  0
H  H49  1  0.57762721  0.77716373  0.80041442  1  0  0.446043  0  0.850628  0  0  0.41731  0  0.910354  0  0  0.429036  0  0.893402  0  0  0.30609  0.408885  0  0.922515  0
H  H50  1  0.92237241  0.27716281  0.30041372  1  0  0.445941  0  0.850759  0  0  0.417261  0  0.910418  0  0  0.428988  0  0.893465  0  0  0.306057  0.408837  0  0.922578  0
H  H51  1  0.42237147  0.22283782  0.19958643  1  0  0.445931  0  0.850772  0  0  0.417252  0  0.910427  0  0  0.428978  0  0.893476  0  0  0.306052  0.408828  0  0.922588  0
H  H52  1  0.12278270  0.67460362  0.78944999  1  0  0.429298  0  0.868394  0  0  0.400784  0  0.928805  0  0  0.411454  0  0.913281  0  0  0.307048  0.393033  0  0.94007  0
H  H53  1  0.62278248  0.82539636  0.71054995  1  0  0.429297  0  0.8684  0  0  0.400785  0  0.928807  0  0  0.411455  0  0.913282  0  0  0.307052  0.393033  0  0.940072  0
H  H54  1  0.87721704  0.32539629  0.21054953  1  0  0.429271  0  0.868435  0  0  0.400754  0  0.928853  0  0  0.411424  0  0.913329  0  0  0.307027  0.393003  0  0.940118  0
H  H55  1  0.37721725  0.17460437  0.28945061  1  0  0.429283  0  0.868414  0  0  0.400771  0  0.928823  0  0  0.41144  0  0.9133  0  0  0.307041  0.393019  0  0.940089  0
C  C56  1  0.09867913  0.14023031  0.35698712  1  0  0.746971  0  3.786605  0  0  0.699867  0  4.085324  0  0  0.735037  0  4.079282  0  0  0.229707  0.675564  0  4.088773  0
C  C57  1  0.59867989  0.35977126  0.14301247  1  0  0.746906  0  3.786724  0  0  0.699802  0  4.085444  0  0  0.734973  0  4.079404  0  0  0.229687  0.675499  0  4.088892  0
C  C58  1  0.90132060  0.85976877  0.64301136  1  0  0.746986  0  3.786693  0  0  0.699837  0  4.085452  0  0  0.735007  0  4.079415  0  0  0.229768  0.675534  0  4.088899  0
C  C59  1  0.40131984  0.64023112  0.85698865  1  0  0.746931  0  3.786629  0  0  0.699726  0  4.085464  0  0  0.734892  0  4.079427  0  0  0.229714  0.675424  0  4.088914  0
C  C60  1  0.01172985  0.30294724  0.51573954  1  0  -0.250992  0  3.667492  0  0  -0.292874  0  3.918331  0  0  -0.297581  0  3.923456  0  0  -0.158837  -0.289643  0  3.914998  0
C  C61  1  0.51172889  0.19705380  0.98426024  1  0  -0.251133  0  3.66759  0  0  -0.292987  0  3.918403  0  0  -0.297692  0  3.923531  0  0  -0.158849  -0.289749  0  3.915064  0
C  C62  1  0.98827511  0.69705183  0.48425970  1  0  -0.251082  0  3.667462  0  0  -0.292913  0  3.918291  0  0  -0.297615  0  3.923415  0  0  -0.158813  -0.289678  0  3.914951  0
C  C63  1  0.48827084  0.80294610  0.01573852  1  0  -0.251022  0  3.667462  0  0  -0.292917  0  3.91834  0  0  -0.297622  0  3.923465  0  0  -0.158859  -0.289682  0  3.915005  0
C  C64  1  0.27632682  0.47481389  0.37656450  1  0  0.745879  0  3.776578  0  0  0.704974  0  4.072065  0  0  0.740696  0  4.064954  0  0  0.229025  0.680379  0  4.075845  0
C  C65  1  0.77632573  0.02518515  0.12343581  1  0  0.745912  0  3.776578  0  0  0.705009  0  4.072049  0  0  0.740732  0  4.064934  0  0  0.229039  0.680411  0  4.07583  0
C  C66  1  0.72367396  0.52518519  0.62343550  1  0  0.745858  0  3.776573  0  0  0.704969  0  4.072048  0  0  0.74069  0  4.064938  0  0  0.229018  0.680373  0  4.075828  0
C  C67  1  0.22367401  0.97481476  0.87656447  1  0  0.745888  0  3.776599  0  0  0.704997  0  4.072076  0  0  0.740719  0  4.064964  0  0  0.229043  0.680402  0  4.075858  0
C  C68  1  0.04400115  0.36069446  0.63352617  1  0  0.754941  0  3.772551  0  0  0.711791  0  4.066973  0  0  0.747205  0  4.059934  0  0  0.23362  0.687329  0  4.07104  0
C  C69  1  0.54400119  0.13930657  0.86647438  1  0  0.754902  0  3.772579  0  0  0.711749  0  4.066999  0  0  0.747161  0  4.059963  0  0  0.233567  0.687284  0  4.07107  0
C  C70  1  0.95600067  0.63930461  0.36647307  1  0  0.75491  0  3.772503  0  0  0.711702  0  4.066995  0  0  0.747116  0  4.059957  0  0  0.233547  0.687243  0  4.071054  0
C  C71  1  0.45599959  0.86069498  0.13352646  1  0  0.754966  0  3.772436  0  0  0.711774  0  4.066914  0  0  0.747186  0  4.059879  0  0  0.233614  0.68731  0  4.07098  0
C  C72  1  0.08981726  0.19257897  0.47786908  1  0  -0.265546  0  3.659353  0  0  -0.303657  0  3.907747  0  0  -0.309728  0  3.913895  0  0  -0.156814  -0.299626  0  3.903961  0
C  C73  1  0.58981483  0.30742261  0.02213126  1  0  -0.265438  0  3.65933  0  0  -0.303565  0  3.907734  0  0  -0.309637  0  3.913884  0  0  -0.156811  -0.299535  0  3.903948  0
C  C74  1  0.91018561  0.80742011  0.52213091  1  0  -0.265444  0  3.659191  0  0  -0.303616  0  3.907657  0  0  -0.309686  0  3.913806  0  0  -0.156827  -0.299585  0  3.903871  0
C  C75  1  0.41018281  0.69257978  0.97787062  1  0  -0.265353  0  3.659082  0  0  -0.303479  0  3.907489  0  0  -0.309545  0  3.913635  0  0  -0.156786  -0.299448  0  3.903706  0
C  C76  1  0.23324266  0.44769827  0.25965776  1  0  -0.236175  0  3.625335  0  0  -0.275423  0  3.872558  0  0  -0.279997  0  3.877465  0  0  -0.152337  -0.272328  0  3.869673  0
C  C77  1  0.73324163  0.05229995  0.24034226  1  0  -0.236217  0  3.625314  0  0  -0.275439  0  3.872621  0  0  -0.280011  0  3.877531  0  0  -0.152322  -0.272338  0  3.869724  0
C  C78  1  0.76675812  0.55229997  0.74034272  1  0  -0.236082  0  3.625264  0  0  -0.275388  0  3.872581  0  0  -0.279967  0  3.877486  0  0  -0.152291  -0.272286  0  3.869685  0
C  C79  1  0.26675811  0.94769913  0.75965774  1  0  -0.236116  0  3.625299  0  0  -0.275412  0  3.872631  0  0  -0.279988  0  3.877541  0  0  -0.152316  -0.272319  0  3.869742  0
C  C80  1  0.29815842  0.52682920  0.20780628  1  0  -0.237074  0  3.623825  0  0  -0.275437  0  3.868518  0  0  -0.280178  0  3.873464  0  0  -0.153023  -0.272222  0  3.865535  0
C  C81  1  0.79815606  0.97316549  0.29218923  1  0  -0.236969  0  3.62366  0  0  -0.2755  0  3.86857  0  0  -0.280247  0  3.873522  0  0  -0.153089  -0.272276  0  3.865573  0
C  C82  1  0.70184236  0.47316575  0.79218926  1  0  -0.23712  0  3.623854  0  0  -0.275505  0  3.86857  0  0  -0.280244  0  3.87351  0  0  -0.153067  -0.272284  0  3.865584  0
C  C83  1  0.20184158  0.02683028  0.70780736  1  0  -0.236955  0  3.623935  0  0  -0.275401  0  3.868655  0  0  -0.280149  0  3.873613  0  0  -0.152971  -0.272172  0  3.865655  0
C  C84  1  0.24389965  0.50162010  0.09378966  1  0  0.737566  0  3.78314  0  0  0.697746  0  4.079186  0  0  0.732667  0  4.073208  0  0  0.225227  0.673664  0  4.082429  0
C  C85  1  0.74390154  0.99837874  0.40620953  1  0  0.737489  0  3.783063  0  0  0.697714  0  4.079111  0  0  0.732639  0  4.073131  0  0  0.225184  0.673627  0  4.082354  0
C  C86  1  0.75609695  0.49837898  0.90621034  1  0  0.737532  0  3.783083  0  0  0.69777  0  4.079039  0  0  0.732692  0  4.073059  0  0  0.225229  0.673683  0  4.082286  0
C  C87  1  0.25610133  0.00161951  0.59378866  1  0  0.737479  0  3.783198  0  0  0.697749  0  4.079124  0  0  0.732674  0  4.073146  0  0  0.225209  0.673664  0  4.082366  0
S  S88  1  0.50200110  0.25035231  0.49707703  1  0  1.671626  0  5.7405  0  0  1.553893  0  6.274851  0  0  1.615559  0  6.235006  0  0  0.621955  1.510262  0  6.30183  0
S  S89  1  0.00199896  0.24964764  0.00292349  1  0  1.671492  0  5.74067  0  0  1.553723  0  6.275062  0  0  1.615394  0  6.235216  0  0  0.621889  1.510097  0  6.302034  0
S  S90  1  0.49800072  0.74964759  0.50292325  1  0  1.671505  0  5.740633  0  0  1.553734  0  6.275017  0  0  1.615401  0  6.235176  0  0  0.621891  1.510103  0  6.301991  0
S  S91  1  0.99799868  0.75035226  0.99707831  1  0  1.671679  0  5.74046  0  0  1.553924  0  6.274828  0  0  1.61559  0  6.234982  0  0  0.621972  1.510296  0  6.301808  0
O  O92  1  0.13400544  0.43939762  0.66344903  1  0  -0.756082  0  2.034309  0  0  -0.705607  0  2.300151  0  0  -0.744095  0  2.293501  0  0  -0.405572  -0.677914  0  2.303639  0
O  O93  1  0.63400552  0.06060339  0.83655154  1  0  -0.756047  0  2.034314  0  0  -0.705603  0  2.300216  0  0  -0.744089  0  2.293571  0  0  -0.405561  -0.677906  0  2.303703  0
O  O94  1  0.86599534  0.56060229  0.33655125  1  0  -0.756071  0  2.034378  0  0  -0.705589  0  2.300238  0  0  -0.744077  0  2.293592  0  0  -0.405548  -0.677895  0  2.303725  0
O  O95  1  0.36599526  0.93939817  0.16344930  1  0  -0.756062  0  2.034369  0  0  -0.705583  0  2.30023  0  0  -0.74407  0  2.293582  0  0  -0.405556  -0.677889  0  2.303717  0
O  O96  1  0.39745558  0.33531249  0.55938927  1  0  -0.806158  0  1.979127  0  0  -0.746737  0  2.240843  0  0  -0.776393  0  2.223036  0  0  -0.386183  -0.725085  0  2.252431  0
O  O97  1  0.89745565  0.16468843  0.94061138  1  0  -0.806146  0  1.979207  0  0  -0.746705  0  2.240919  0  0  -0.77636  0  2.223112  0  0  -0.386172  -0.725062  0  2.252521  0
O  O98  1  0.60254416  0.66468824  0.44061053  1  0  -0.806148  0  1.979222  0  0  -0.746698  0  2.240919  0  0  -0.776354  0  2.223112  0  0  -0.38617  -0.72505  0  2.252518  0
O  O99  1  0.10254408  0.83531147  0.05938967  1  0  -0.806175  0  1.979121  0  0  -0.746746  0  2.240847  0  0  -0.7764  0  2.22304  0  0  -0.386205  -0.725089  0  2.25242  0
O  O100  1  0.16568288  0.04793329  0.31655926  1  0  -0.77844  0  2.054476  0  0  -0.729097  0  2.326344  0  0  -0.768486  0  2.319926  0  0  -0.426582  -0.700238  0  2.329277  0
O  O101  1  0.66568151  0.45206743  0.18344083  1  0  -0.778444  0  2.054542  0  0  -0.729107  0  2.326406  0  0  -0.768498  0  2.319991  0  0  -0.42659  -0.700248  0  2.329339  0
O  O102  1  0.83431685  0.95206579  0.68343998  1  0  -0.778426  0  2.054528  0  0  -0.729106  0  2.326433  0  0  -0.768499  0  2.32002  0  0  -0.426599  -0.700244  0  2.329361  0
O  O103  1  0.33431613  0.54793412  0.81656002  1  0  -0.77842  0  2.054468  0  0  -0.729116  0  2.326407  0  0  -0.768502  0  2.319994  0  0  -0.426618  -0.700256  0  2.329339  0
O  O104  1  0.60084949  0.29713248  0.43750655  1  0  -0.781083  0  1.975396  0  0  -0.730994  0  2.250344  0  0  -0.761355  0  2.232426  0  0  -0.40786  -0.708688  0  2.261718  0
O  O105  1  0.10084952  0.20286743  0.06249399  1  0  -0.78105  0  1.975364  0  0  -0.730987  0  2.250369  0  0  -0.761347  0  2.232453  0  0  -0.407871  -0.708677  0  2.26174  0
O  O106  1  0.39915024  0.70286742  0.56249373  1  0  -0.781051  0  1.975343  0  0  -0.730991  0  2.250375  0  0  -0.76135  0  2.232457  0  0  -0.407874  -0.708684  0  2.261747  0
O  O107  1  0.89915021  0.79713329  0.93750657  1  0  -0.781106  0  1.975361  0  0  -0.731023  0  2.250344  0  0  -0.761383  0  2.232428  0  0  -0.40787  -0.708716  0  2.261717  0
O  O108  1  0.40679831  0.47536092  0.40171414  1  0  -0.789645  0  2.082818  0  0  -0.744579  0  2.357551  0  0  -0.78465  0  2.350812  0  0  -0.425257  -0.715233  0  2.360641  0
O  O109  1  0.90679824  0.02463889  0.09828648  1  0  -0.789672  0  2.082808  0  0  -0.744598  0  2.357533  0  0  -0.784666  0  2.35079  0  0  -0.425265  -0.715254  0  2.360624  0
O  O110  1  0.59320142  0.52463898  0.59828690  1  0  -0.789652  0  2.082784  0  0  -0.744601  0  2.357543  0  0  -0.784669  0  2.350801  0  0  -0.425265  -0.715254  0  2.360631  0
O  O111  1  0.09320254  0.97536184  0.90171408  1  0  -0.789668  0  2.082826  0  0  -0.744598  0  2.357566  0  0  -0.784667  0  2.350826  0  0  -0.425255  -0.715252  0  2.360655  0
O  O112  1  0.42488607  0.15624307  0.41626595  1  0  -0.810844  0  2.000368  0  0  -0.750471  0  2.262737  0  0  -0.779915  0  2.245481  0  0  -0.379701  -0.728983  0  2.273887  0
O  O113  1  0.92488576  0.34375674  0.08373468  1  0  -0.810814  0  2.000457  0  0  -0.750432  0  2.262828  0  0  -0.779879  0  2.245578  0  0  -0.379679  -0.728943  0  2.273974  0
O  O114  1  0.57511470  0.84375683  0.58373509  1  0  -0.810784  0  2.000367  0  0  -0.750423  0  2.262781  0  0  -0.779859  0  2.245495  0  0  -0.379673  -0.728934  0  2.273929  0
O  O115  1  0.07511293  0.65624233  0.91626608  1  0  -0.81091  0  2.000335  0  0  -0.75053  0  2.262706  0  0  -0.779981  0  2.245462  0  0  -0.379743  -0.729043  0  2.273857  0
O  O116  1  0.98782470  0.32882680  0.70580599  1  0  -0.682183  0  2.007379  0  0  -0.622981  0  2.23699  0  0  -0.654859  0  2.228148  0  0  -0.347521  -0.600378  0  2.242575  0
O  O117  1  0.48782596  0.17117408  0.79419391  1  0  -0.682125  0  2.007317  0  0  -0.622938  0  2.236929  0  0  -0.654813  0  2.228086  0  0  -0.347499  -0.600332  0  2.242517  0
O  O118  1  0.01217503  0.67117393  0.29419305  1  0  -0.682192  0  2.007293  0  0  -0.622934  0  2.236889  0  0  -0.654813  0  2.228045  0  0  -0.347508  -0.600332  0  2.24247  0
O  O119  1  0.51217586  0.82882665  0.20580665  1  0  -0.682274  0  2.007282  0  0  -0.623016  0  2.236872  0  0  -0.654891  0  2.228031  0  0  -0.347549  -0.600411  0  2.242456  0
O  O120  1  0.32127605  0.45678531  0.01222768  1  0  -0.639812  0  1.911691  0  0  -0.593268  0  2.138602  0  0  -0.623469  0  2.131092  0  0  -0.347985  -0.571817  0  2.143189  0
O  O121  1  0.82128043  0.04321289  0.48777007  1  0  -0.639751  0  1.911625  0  0  -0.593219  0  2.138533  0  0  -0.623422  0  2.131026  0  0  -0.347938  -0.571765  0  2.143118  0
O  O122  1  0.67871950  0.54321295  0.98776975  1  0  -0.639741  0  1.911662  0  0  -0.593238  0  2.138571  0  0  -0.623439  0  2.131065  0  0  -0.347956  -0.57178  0  2.143154  0
O  O123  1  0.17872453  0.95678537  0.51222583  1  0  -0.639759  0  1.91168  0  0  -0.593236  0  2.138549  0  0  -0.623438  0  2.131041  0  0  -0.34796  -0.571785  0  2.143134  0
O  O124  1  0.11555685  0.52625308  0.07983123  1  0  -0.793327  0  2.073863  0  0  -0.748079  0  2.348771  0  0  -0.788043  0  2.342898  0  0  -0.436956  -0.718807  0  2.351267  0
O  O125  1  0.61555877  0.97374662  0.42016974  1  0  -0.793322  0  2.073917  0  0  -0.748043  0  2.348797  0  0  -0.78801  0  2.342929  0  0  -0.436938  -0.71877  0  2.35129  0
O  O126  1  0.88444079  0.47374682  0.92016982  1  0  -0.793365  0  2.073883  0  0  -0.748126  0  2.348776  0  0  -0.788093  0  2.34291  0  0  -0.43697  -0.718853  0  2.351272  0
O  O127  1  0.38444514  0.02625411  0.57983006  1  0  -0.793339  0  2.073935  0  0  -0.748124  0  2.348835  0  0  -0.78809  0  2.342963  0  0  -0.436982  -0.718851  0  2.351331  0
O  O128  1  0.04496612  0.18348741  0.29301096  1  0  -0.656239  0  2.00513  0  0  -0.597112  0  2.233886  0  0  -0.627775  0  2.225828  0  0  -0.324914  -0.575471  0  2.239057  0
O  O129  1  0.54496487  0.31651335  0.20698909  1  0  -0.656204  0  2.005164  0  0  -0.597071  0  2.233891  0  0  -0.627736  0  2.225836  0  0  -0.324885  -0.575428  0  2.239062  0
O  O130  1  0.95503361  0.81651084  0.70698876  1  0  -0.656407  0  2.005282  0  0  -0.597088  0  2.233895  0  0  -0.627752  0  2.225841  0  0  -0.324921  -0.575446  0  2.239065  0
O  O131  1  0.45503173  0.68348903  0.79301356  1  0  -0.656424  0  2.005421  0  0  -0.597051  0  2.234016  0  0  -0.627715  0  2.225964  0  0  -0.32488  -0.575409  0  2.239186  0
O  O132  1  0.18367003  0.49710298  0.45019639  1  0  -0.647821  0  1.923595  0  0  -0.599552  0  2.15587  0  0  -0.630912  0  2.147991  0  0  -0.355041  -0.57701  0  2.16042  0
O  O133  1  0.68366994  0.00289692  0.04980341  1  0  -0.647859  0  1.923624  0  0  -0.599583  0  2.155897  0  0  -0.630942  0  2.148016  0  0  -0.355055  -0.577041  0  2.160448  0
O  O134  1  0.81632970  0.50289775  0.54980417  1  0  -0.647836  0  1.923599  0  0  -0.599565  0  2.155858  0  0  -0.630924  0  2.147979  0  0  -0.35505  -0.577023  0  2.16041  0
O  O135  1  0.31632979  0.99710381  0.95019715  1  0  -0.647834  0  1.923612  0  0  -0.599578  0  2.155887  0  0  -0.630934  0  2.148005  0  0  -0.355067  -0.577035  0  2.160437  0
O  O136  1  0.57947584  0.21177164  0.57491913  1  0  -0.777208  0  1.972842  0  0  -0.725153  0  2.242935  0  0  -0.754999  0  2.22469  0  0  -0.408186  -0.703399  0  2.254988  0
O  O137  1  0.07947397  0.28823021  0.92508171  1  0  -0.777161  0  1.972835  0  0  -0.72508  0  2.242924  0  0  -0.754928  0  2.22468  0  0  -0.408167  -0.703327  0  2.254974  0
O  O138  1  0.42052599  0.78822991  0.42508171  1  0  -0.777185  0  1.972857  0  0  -0.725088  0  2.242944  0  0  -0.754938  0  2.224701  0  0  -0.40817  -0.703336  0  2.254995  0
O  O139  1  0.92052054  0.71177300  0.07491970  1  0  -0.77718  0  1.972866  0  0  -0.725126  0  2.242991  0  0  -0.754972  0  2.22475  0  0  -0.408147  -0.70337  0  2.25504  0
O  O140  1  0.30487831  0.30438010  0.75536642  1  0  -0.885013  0  1.819662  0  0  -0.839115  0  2.010586  0  0  -0.864917  0  1.9772  0  0  -0.633912  -0.82034  0  2.033978  0
O  O141  1  0.80487926  0.19562085  0.74463420  1  0  -0.885024  0  1.819675  0  0  -0.839099  0  2.010636  0  0  -0.864899  0  1.977251  0  0  -0.633898  -0.820323  0  2.034029  0
O  O142  1  0.69512038  0.69562146  0.24463366  1  0  -0.885026  0  1.819626  0  0  -0.839103  0  2.010609  0  0  -0.864903  0  1.977225  0  0  -0.633899  -0.820326  0  2.034001  0
O  O143  1  0.19512151  0.80437988  0.25536713  1  0  -0.885032  0  1.819609  0  0  -0.839118  0  2.010598  0  0  -0.86492  0  1.977209  0  0  -0.633916  -0.820344  0  2.033988  0
O  O144  1  0.15169257  0.67795061  0.71829778  1  0  -0.887737  0  1.818397  0  0  -0.842238  0  2.009069  0  0  -0.868328  0  1.976357  0  0  -0.633444  -0.82322  0  2.032071  0
O  O145  1  0.65169346  0.82204936  0.78170217  1  0  -0.887756  0  1.818398  0  0  -0.84226  0  2.009088  0  0  -0.868351  0  1.976375  0  0  -0.63344  -0.823243  0  2.032089  0
O  O146  1  0.84830611  0.32205012  0.28170278  1  0  -0.887683  0  1.818578  0  0  -0.842196  0  2.009153  0  0  -0.868284  0  1.976441  0  0  -0.633385  -0.823179  0  2.032151  0
O  O147  1  0.34830627  0.17795137  0.21829763  1  0  -0.887683  0  1.818572  0  0  -0.842203  0  2.009144  0  0  -0.868292  0  1.976434  0  0  -0.6334  -0.823183  0  2.032144  0
