# generated using pymatgen
data_BiH17C22S2Br3
_symmetry_space_group_name_H-M   'P 1'
_cell_length_a   10.90041978
_cell_length_b   14.59143487
_cell_length_c   15.12382193
_cell_angle_alpha   90.01301874
_cell_angle_beta   68.70784867
_cell_angle_gamma   89.68962866
_symmetry_Int_Tables_number   1
_chemical_formula_structural   BiH17C22S2Br3
_chemical_formula_sum   'Bi4 H68 C88 S8 Br12'
_cell_volume   2241.25050218
_cell_formula_units_Z   4
loop_
 _symmetry_equiv_pos_site_id
 _symmetry_equiv_pos_as_xyz
  1  'x, y, z'
loop_
 _atom_site_type_symbol
 _atom_site_label
 _atom_site_symmetry_multiplicity
 _atom_site_fract_x
 _atom_site_fract_y
 _atom_site_fract_z
 _atom_site_occupancy
 _atom_site_pbe_bader_charge
 _atom_site_pbe_bader_spin_density
 _atom_site_pbe_cm5_charge
 _atom_site_pbe_ddec_charge
 _atom_site_pbe_ddec_spin_density
 _atom_site_pbe_ddec_sum_bond_order
 _atom_site_pbe_magmom
Bi  Bi0  1  0.32007088  0.97625498  0.11194191  1  1.343985  0  0.45693  0.766619  0  3.138625  0
Bi  Bi1  1  0.68260360  0.02164756  0.89354423  1  1.343485  0  0.457165  0.766808  0  3.137928  0
Bi  Bi2  1  0.81917191  0.52017582  0.11123994  1  1.343404  0  0.457725  0.768497  0  3.135426  0
Bi  Bi3  1  0.18366843  0.47758598  0.89153104  1  1.343561  0  0.457927  0.768924  0  3.133994  0
H  H4  1  0.68302860  0.81870520  0.34196358  1  0.110716  0  0.103264  0.114464  0  1.015305  0
H  H5  1  0.78659305  0.96623796  0.28740163  1  0.085546  0  0.098971  0.108998  0  1.027157  0
H  H6  1  0.30849980  0.71822443  0.60742609  1  0.059726  0  0.088038  0.084999  0  1.084626  0
H  H7  1  0.75063442  0.08963319  0.18274785  1  0.063326  0  0.089649  0.101664  0  1.034361  0
H  H8  1  0.95717340  0.10435766  0.04656567  1  0.101982  0  0.091795  0.102018  0  1.048507  0
H  H9  1  0.14152297  0.22197810  0.22927459  1  0.072766  0  0.092894  0.100744  0  1.031978  0
H  H10  1  0.93317436  0.20625213  0.36604076  1  0.067349  0  0.094924  0.097193  0  1.046175  0
H  H11  1  0.14806876  0.17345134  0.91278579  1  0.10567  0  0.084402  0.152859  0  1.020586  0
H  H12  1  0.15162345  0.05538563  0.94789407  1  0.081482  0  0.088452  0.138174  0  1.025763  0
H  H13  1  0.30205194  0.11348418  0.88301821  1  0.089479  0  0.086763  0.149363  0  1.028654  0
H  H14  1  0.35638592  0.64306123  0.43908236  1  0.081569  0  0.095492  0.096295  0  1.034382  0
H  H15  1  0.46639473  0.49985942  0.36415377  1  0.09798  0  0.099055  0.108408  0  1.017301  0
H  H16  1  0.82516358  0.58932295  0.39724793  1  0.080632  0  0.09741  0.103539  0  1.046853  0
H  H17  1  0.71520127  0.73107199  0.47072179  1  0.068335  0  0.096649  0.092938  0  1.045809  0
H  H18  1  0.86322775  0.42224553  0.40272743  1  0.098294  0  0.097669  0.148786  0  1.01735  0
H  H19  1  0.93348176  0.36872702  0.28863252  1  0.099456  0  0.095054  0.158758  0  1.011345  0
H  H20  1  0.94606392  0.49014020  0.29845762  1  0.11029  0  0.090794  0.14177  0  1.033496  0
H  H21  1  0.31754055  0.17712766  0.66302955  1  0.108227  0  0.10324  0.114138  0  1.015196  0
H  H22  1  0.21467752  0.02937386  0.71808443  1  0.075142  0  0.098887  0.108694  0  1.027653  0
H  H23  1  0.69003007  0.27771506  0.39604558  1  0.090835  0  0.088607  0.085538  0  1.08228  0
H  H24  1  0.25083344  0.90454191  0.82198208  1  0.087298  0  0.089905  0.101679  0  1.03407  0
H  H25  1  0.04432646  0.89050559  0.95832842  1  0.072179  0  0.092615  0.102939  0  1.04656  0
H  H26  1  0.85759396  0.77600230  0.77562611  1  0.06899  0  0.092973  0.101103  0  1.032455  0
H  H27  1  0.06568826  0.79164858  0.63849513  1  0.067762  0  0.09492  0.097522  0  1.044119  0
H  H28  1  0.84912174  0.94082243  0.05786708  1  0.076233  0  0.088029  0.137841  0  1.025885  0
H  H29  1  0.70062041  0.88067452  0.12303818  1  0.102454  0  0.086785  0.149982  0  1.02712  0
H  H30  1  0.85616145  0.82243803  0.09090713  1  0.099509  0  0.084137  0.152132  0  1.023762  0
H  H31  1  0.64268065  0.35368547  0.56371308  1  0.045988  0  0.095681  0.095872  0  1.036103  0
H  H32  1  0.53252900  0.49724111  0.63736108  1  0.090024  0  0.09936  0.108714  0  1.01597  0
H  H33  1  0.17375510  0.40629006  0.60526086  1  0.071983  0  0.097646  0.104033  0  1.045225  0
H  H34  1  0.28417883  0.26432690  0.53263872  1  0.049191  0  0.096173  0.091513  0  1.047804  0
H  H35  1  0.13435150  0.57351330  0.60016689  1  0.073878  0  0.097566  0.148425  0  1.015533  0
H  H36  1  0.06443844  0.62682634  0.71440569  1  0.124654  0  0.09517  0.15803  0  1.011232  0
H  H37  1  0.05302464  0.50529548  0.70445455  1  0.095513  0  0.091197  0.141693  0  1.03267  0
H  H38  1  0.65784220  0.43958517  0.94604147  1  0.081696  0  0.088264  0.138446  0  1.023212  0
H  H39  1  0.80497911  0.37600781  0.88246743  1  0.113971  0  0.087192  0.151218  0  1.025527  0
H  H40  1  0.64802098  0.32103510  0.91462723  1  0.111586  0  0.084088  0.152166  0  1.023961  0
H  H41  1  0.85602643  0.85972992  0.44296036  1  0.047727  0  0.09546  0.09596  0  1.033559  0
H  H42  1  0.96748671  0.00220821  0.36905394  1  0.089429  0  0.09917  0.108072  0  1.017921  0
H  H43  1  0.32876145  0.90324521  0.39350477  1  0.101011  0  0.097091  0.104069  0  1.044785  0
H  H44  1  0.21675266  0.76304250  0.46725311  1  0.034118  0  0.096225  0.091832  0  1.04751  0
H  H45  1  0.36314281  0.07084278  0.40544062  1  0.059846  0  0.097738  0.148816  0  1.017891  0
H  H46  1  0.43417657  0.12727931  0.29326143  1  0.095484  0  0.095696  0.158828  0  1.009589  0
H  H47  1  0.44896202  0.00552393  0.29931204  1  0.102865  0  0.090822  0.141388  0  1.033209  0
H  H48  1  0.81832162  0.32348110  0.66211468  1  0.11658  0  0.103609  0.114472  0  1.012842  0
H  H49  1  0.71527781  0.47196203  0.71728577  1  0.091047  0  0.098994  0.108825  0  1.029198  0
H  H50  1  0.19025947  0.21973648  0.39488408  1  0.081098  0  0.088179  0.084693  0  1.083511  0
H  H51  1  0.75018908  0.59580073  0.82167847  1  0.090333  0  0.089033  0.101023  0  1.034248  0
H  H52  1  0.54253901  0.60902969  0.95721443  1  0.113799  0  0.092447  0.104097  0  1.046335  0
H  H53  1  0.35625863  0.72439280  0.77391376  1  0.049272  0  0.092969  0.101027  0  1.033889  0
H  H54  1  0.56567360  0.70981588  0.63768048  1  0.057034  0  0.094302  0.09612  0  1.048796  0
H  H55  1  0.34532189  0.55957178  0.05786159  1  0.07963  0  0.088107  0.138319  0  1.023804  0
H  H56  1  0.19838062  0.62316168  0.12189508  1  0.089483  0  0.087279  0.150976  0  1.025578  0
H  H57  1  0.35526299  0.67848738  0.08795386  1  0.110479  0  0.084527  0.152038  0  1.023378  0
H  H58  1  0.14435891  0.14517847  0.56263119  1  0.039457  0  0.095733  0.095836  0  1.035318  0
H  H59  1  0.03509140  0.00279473  0.63789209  1  0.088132  0  0.099216  0.108189  0  1.01704  0
H  H60  1  0.67397221  0.09571026  0.60876228  1  0.070088  0  0.097682  0.104372  0  1.045468  0
H  H61  1  0.78377570  0.23617602  0.53406472  1  0.060744  0  0.096242  0.091475  0  1.049182  0
H  H62  1  0.64001430  0.92932812  0.59937067  1  0.068395  0  0.097815  0.148817  0  1.017148  0
H  H63  1  0.57023413  0.87316951  0.71179828  1  0.103534  0  0.095373  0.15862  0  1.009539  0
H  H64  1  0.55480545  0.99485337  0.70545252  1  0.081754  0  0.090755  0.141817  0  1.033025  0
H  H65  1  0.17916738  0.67837990  0.33847905  1  0.077474  0  0.103507  0.114499  0  1.013634  0
H  H66  1  0.28242219  0.52994701  0.28337196  1  0.088981  0  0.099339  0.109374  0  1.027263  0
H  H67  1  0.81047512  0.78247149  0.60812725  1  0.089477  0  0.088413  0.08619  0  1.083366  0
H  H68  1  0.25120614  0.40523414  0.17962346  1  0.074853  0  0.088651  0.101208  0  1.038056  0
H  H69  1  0.45959310  0.39034434  0.04489003  1  0.093002  0  0.092142  0.102869  0  1.047427  0
H  H70  1  0.64169317  0.27431019  0.23040855  1  0.06621  0  0.092403  0.10015  0  1.033826  0
H  H71  1  0.43198121  0.29151649  0.36600487  1  0.074962  0  0.094391  0.096088  0  1.047117  0
C  C72  1  0.64137345  0.88034961  0.38270945  1  -0.06864  0  -0.092489  -0.13188  0  4.004294  0
C  C73  1  0.69870472  0.96317401  0.35158276  1  -0.07741  0  -0.092045  -0.12133  0  3.991631  0
C  C74  1  0.64607316  0.04625875  0.40141842  1  -0.003388  0  -0.008255  0.027827  0  3.979635  0
C  C75  1  0.53017999  0.04132379  0.48596775  1  -0.012832  0  -0.002735  -0.009365  0  3.929653  0
C  C76  1  0.52728034  0.87257030  0.46764411  1  -0.055641  0  -0.010813  0.018742  0  3.998921  0
C  C77  1  0.46764926  0.78683239  0.50177215  1  0.004079  0  -0.00629  0.027618  0  3.977729  0
C  C78  1  0.35192422  0.78477981  0.58184725  1  -0.045186  0  -0.094328  -0.182806  0  4.007087  0
C  C79  1  0.70518106  0.13274054  0.37033799  1  -0.015533  0  -0.00494  0.035056  0  3.965267  0
C  C80  1  0.82723374  0.14351659  0.28565684  1  -0.030925  0  -0.018219  0.052405  0  4.007222  0
C  C81  1  0.83669955  0.11698704  0.19416675  1  -0.032085  0  -0.09241  -0.118693  0  3.971598  0
C  C82  1  0.95436883  0.12508839  0.11650143  1  -0.011383  0  -0.098063  -0.119693  0  3.987609  0
C  C83  1  0.06666328  0.15931137  0.12934601  1  -0.184094  0  -0.018441  0.04296  0  4.048011  0
C  C84  1  0.05607791  0.19187595  0.21923561  1  -0.025905  0  -0.108114  -0.148447  0  4.04713  0
C  C85  1  0.93822240  0.18374270  0.29603873  1  -0.073151  0  -0.098445  -0.127516  0  3.99211  0
C  C86  1  0.20252410  0.12136913  0.93625650  1  -0.196171  0  -0.235328  -0.40025  0  3.873212  0
C  C87  1  0.52899283  0.69927201  0.45817430  1  -0.069558  0  -0.009511  0.067435  0  4.000842  0
C  C88  1  0.45904981  0.63160028  0.43048373  1  -0.036412  0  -0.089466  -0.113811  0  3.957503  0
C  C89  1  0.52062432  0.55066832  0.38799665  1  -0.018338  0  -0.093665  -0.114287  0  3.998332  0
C  C90  1  0.65372775  0.53582961  0.37377341  1  -0.180008  0  -0.015877  0.036539  0  4.036846  0
C  C91  1  0.72282929  0.60014518  0.40572236  1  0.002654  0  -0.097499  -0.117202  0  4.010541  0
C  C92  1  0.66025495  0.68097707  0.44689509  1  -0.01886  0  -0.090757  -0.121346  0  3.988875  0
C  C93  1  0.88378494  0.43031190  0.32671736  1  -0.232644  0  -0.232263  -0.413184  0  3.880436  0
C  C94  1  0.35917346  0.11542569  0.62233576  1  -0.060253  0  -0.092358  -0.13023  0  4.001582  0
C  C95  1  0.30221640  0.03252468  0.65362940  1  0.014893  0  -0.092039  -0.121417  0  3.98968  0
C  C96  1  0.35454234  0.94944734  0.60358710  1  -0.062901  0  -0.008665  0.027692  0  3.97903  0
C  C97  1  0.47039997  0.95439737  0.51903116  1  -0.024489  0  -0.002661  -0.008997  0  3.929685  0
C  C98  1  0.47291883  0.12320895  0.53711950  1  -0.070713  0  -0.010938  0.017697  0  4.000419  0
C  C99  1  0.53174825  0.20898001  0.50229524  1  0.004809  0  -0.006592  0.026537  0  3.979992  0
C  C100  1  0.64732749  0.21108050  0.42211664  1  -0.080501  0  -0.094842  -0.182797  0  4.00664  0
C  C101  1  0.29493984  0.86303725  0.63423245  1  -0.047954  0  -0.004606  0.035095  0  3.96454  0
C  C102  1  0.17296055  0.85239284  0.71902141  1  -0.036066  0  -0.018534  0.052557  0  4.006746  0
C  C103  1  0.16426559  0.87806659  0.81060223  1  -0.066685  0  -0.093149  -0.120693  0  3.974045  0
C  C104  1  0.04663439  0.87031139  0.88837131  1  0.017195  0  -0.098179  -0.119398  0  3.987417  0
C  C105  1  0.93381837  0.83709919  0.87556474  1  -0.183022  0  -0.018798  0.041881  0  4.04865  0
C  C106  1  0.94356460  0.80532665  0.78556849  1  -0.035341  0  -0.108451  -0.14878  0  4.045879  0
C  C107  1  0.06129770  0.81332412  0.70859497  1  -0.041405  0  -0.097915  -0.126339  0  3.989396  0
C  C108  1  0.79976135  0.87427570  0.06894514  1  -0.199472  0  -0.235272  -0.400198  0  3.873052  0
C  C109  1  0.47010599  0.29665114  0.54527667  1  -0.0595  0  -0.00965  0.067383  0  4.001152  0
C  C110  1  0.53994855  0.36483116  0.57236061  1  0.023232  0  -0.089866  -0.112837  0  3.95738  0
C  C111  1  0.47822162  0.44589926  0.61427909  1  -0.038745  0  -0.093099  -0.115019  0  3.999063  0
C  C112  1  0.34502943  0.46040422  0.62856981  1  -0.184789  0  -0.015975  0.037345  0  4.035301  0
C  C113  1  0.27609598  0.39568377  0.59695661  1  0.043259  0  -0.097257  -0.117757  0  4.008335  0
C  C114  1  0.33891827  0.31472463  0.55627599  1  -0.035112  0  -0.090733  -0.120751  0  3.98744  0
C  C115  1  0.11451371  0.56545871  0.67609588  1  -0.218548  0  -0.232097  -0.410472  0  3.876867  0
C  C116  1  0.70536770  0.37201040  0.93622002  1  -0.226062  0  -0.235765  -0.401831  0  3.871781  0
C  C117  1  0.02964039  0.79929290  0.45799292  1  0.051658  0  -0.010081  0.066408  0  4.003591  0
C  C118  1  0.95952160  0.86905098  0.43268357  1  -0.043823  0  -0.08927  -0.112294  0  3.956285  0
C  C119  1  0.02191564  0.94938204  0.39063552  1  -0.015234  0  -0.093635  -0.114726  0  3.998888  0
C  C120  1  0.15600672  0.96133637  0.37423452  1  -0.189825  0  -0.016403  0.036122  0  4.03599  0
C  C121  1  0.22549355  0.89481791  0.40383859  1  -0.006721  0  -0.097161  -0.116581  0  4.008679  0
C  C122  1  0.16189490  0.81481526  0.44494394  1  -0.059495  0  -0.089992  -0.121022  0  3.990189  0
C  C123  1  0.38529684  0.06492964  0.32902762  1  -0.180165  0  -0.232568  -0.412392  0  3.878745  0
C  C124  1  0.85934963  0.38475194  0.62110297  1  -0.070838  0  -0.09239  -0.130421  0  4.004314  0
C  C125  1  0.80228082  0.46804463  0.65247791  1  -0.081135  0  -0.092219  -0.121972  0  3.99196  0
C  C126  1  0.85431927  0.55063908  0.60234130  1  0.000528  0  -0.008118  0.029443  0  3.978041  0
C  C127  1  0.96941606  0.54469449  0.51723436  1  0.036414  0  -0.003201  -0.009919  0  3.931411  0
C  C128  1  0.97250124  0.37597217  0.53551821  1  -0.016363  0  -0.011113  0.017198  0  4.002797  0
C  C129  1  0.03174541  0.28976201  0.50099605  1  -0.042395  0  -0.006872  0.026899  0  3.980535  0
C  C130  1  0.14696504  0.28668111  0.42053617  1  -0.038065  0  -0.094716  -0.181647  0  4.004829  0
C  C131  1  0.79527830  0.63755686  0.63374994  1  -0.007643  0  -0.004578  0.034631  0  3.962982  0
C  C132  1  0.67296755  0.64870841  0.71843328  1  0.030317  0  -0.017397  0.053469  0  4.004077  0
C  C133  1  0.66362149  0.62254516  0.80997763  1  -0.122427  0  -0.093087  -0.119234  0  3.972562  0
C  C134  1  0.54524056  0.62979051  0.88732237  1  -0.013415  0  -0.098384  -0.12107  0  3.985887  0
C  C135  1  0.43224354  0.66299507  0.87411201  1  -0.239871  0  -0.018401  0.044385  0  4.047567  0
C  C136  1  0.44242974  0.69517985  0.78423114  1  0.012921  0  -0.109009  -0.14888  0  4.044072  0
C  C137  1  0.56094696  0.68777925  0.70769791  1  -0.027513  0  -0.098559  -0.127006  0  3.987691  0
C  C138  1  0.29747729  0.62701550  0.06744158  1  -0.197275  0  -0.235272  -0.40035  0  3.872296  0
C  C139  1  0.97078486  0.20283072  0.54506732  1  -0.054973  0  -0.009523  0.066692  0  4.002756  0
C  C140  1  0.04136428  0.13462636  0.57214947  1  0.075588  0  -0.089984  -0.113052  0  3.95635  0
C  C141  1  0.98015483  0.05422934  0.61495129  1  -0.106817  0  -0.093223  -0.114251  0  3.9973  0
C  C142  1  0.84671846  0.04049012  0.63026668  1  -0.169091  0  -0.015381  0.037682  0  4.033978  0
C  C143  1  0.77672142  0.10550982  0.59927433  1  0.034525  0  -0.096844  -0.117373  0  4.008032  0
C  C144  1  0.83911460  0.18568127  0.55754628  1  -0.030241  0  -0.091062  -0.121687  0  3.990938  0
C  C145  1  0.61861174  0.93552923  0.67568361  1  -0.179567  0  -0.232486  -0.41356  0  3.87904  0
C  C146  1  0.13856348  0.61715585  0.37974319  1  -0.077312  0  -0.092318  -0.129453  0  4.00297  0
C  C147  1  0.19570710  0.53386042  0.34836462  1  -0.018868  0  -0.091694  -0.121854  0  3.991353  0
C  C148  1  0.14425274  0.45132586  0.39888983  1  -0.051224  0  -0.00821  0.027836  0  3.980768  0
C  C149  1  0.02896610  0.45729573  0.48387104  1  -0.097811  0  -0.002532  -0.009027  0  3.931236  0
C  C150  1  0.02599652  0.62603526  0.46574351  1  -0.087067  0  -0.010449  0.017032  0  4.00053  0
C  C151  1  0.96767378  0.71232404  0.50108802  1  0.007669  0  -0.006685  0.027787  0  3.97926  0
C  C152  1  0.85282598  0.71544352  0.58188405  1  -0.071841  0  -0.094524  -0.183564  0  4.005496  0
C  C153  1  0.20397359  0.36445509  0.36819460  1  0.010034  0  -0.004881  0.034402  0  3.965135  0
C  C154  1  0.32665017  0.35275893  0.28396674  1  -0.008722  0  -0.017605  0.053479  0  4.007466  0
C  C155  1  0.33714577  0.37832123  0.19203616  1  -0.077749  0  -0.093624  -0.120168  0  3.972635  0
C  C156  1  0.45586078  0.36999738  0.11514399  1  0.010346  0  -0.097874  -0.118461  0  3.984428  0
C  C157  1  0.56795063  0.33610895  0.12919590  1  -0.199496  0  -0.018537  0.043707  0  4.048452  0
C  C158  1  0.55636977  0.30419678  0.21946743  1  -0.021292  0  -0.108662  -0.148306  0  4.049072  0
C  C159  1  0.43767289  0.31301312  0.29558782  1  -0.061359  0  -0.098377  -0.127137  0  3.991341  0
S  S160  1  0.22634306  0.16032333  0.04174211  1  0.069371  0  0.035284  0.077328  0  2.905148  0
S  S161  1  0.73046149  0.43809122  0.30779685  1  0.050542  0  0.068045  0.115004  0  2.99411  0
S  S162  1  0.77448831  0.83625128  0.96366394  1  0.069635  0  0.034563  0.076179  0  2.904625  0
S  S163  1  0.26846784  0.55835224  0.69420260  1  0.049719  0  0.067557  0.113949  0  2.988987  0
S  S164  1  0.23294989  0.05857753  0.30874451  1  0.042856  0  0.067012  0.113581  0  2.995716  0
S  S165  1  0.77139852  0.94262137  0.69530848  1  0.040572  0  0.067614  0.114173  0  2.996346  0
S  S166  1  0.72831497  0.33442935  0.04252135  1  0.067124  0  0.034783  0.075724  0  2.903335  0
S  S167  1  0.27240153  0.66348118  0.96154580  1  0.068791  0  0.03418  0.074517  0  2.903432  0
Br  Br168  1  0.57252143  0.08750584  0.08245565  1  -0.529458  0  -0.16421  -0.349927  0  1.391689  0
Br  Br169  1  0.42643491  0.83553423  0.17777461  1  -0.508011  0  -0.189905  -0.346386  0  1.241852  0
Br  Br170  1  0.08280553  0.90000562  0.14719698  1  -0.502529  0  -0.185547  -0.330671  0  1.240806  0
Br  Br171  1  0.42956135  0.91036293  0.92285943  1  -0.530018  0  -0.165594  -0.350754  0  1.383746  0
Br  Br172  1  0.57640952  0.16236360  0.82784840  1  -0.506585  0  -0.18968  -0.345426  0  1.241353  0
Br  Br173  1  0.91986557  0.09752436  0.85903527  1  -0.501754  0  -0.184259  -0.330406  0  1.245562  0
Br  Br174  1  0.92693869  0.58667406  0.92293226  1  -0.529338  0  -0.16515  -0.35151  0  1.388963  0
Br  Br175  1  0.08185225  0.33573909  0.82468030  1  -0.508844  0  -0.192254  -0.348409  0  1.230807  0
Br  Br176  1  0.42332255  0.40376041  0.85713473  1  -0.502026  0  -0.184397  -0.330396  0  1.245117  0
Br  Br177  1  0.07619621  0.41113854  0.07992723  1  -0.528952  0  -0.165291  -0.35137  0  1.386165  0
Br  Br178  1  0.92105221  0.66146033  0.17886945  1  -0.508019  0  -0.191633  -0.347877  0  1.231448  0
Br  Br179  1  0.58039985  0.59466585  0.14422663  1  -0.500288  0  -0.183585  -0.330082  0  1.250336  0
