# generated using pymatgen
data_Zn4H51C84BrN16
_symmetry_space_group_name_H-M   'P 1'
_cell_length_a   18.98115068
_cell_length_b   18.92916977
_cell_length_c   20.34878145
_cell_angle_alpha   105.39816168
_cell_angle_beta   107.56712426
_cell_angle_gamma   112.10764267
_symmetry_Int_Tables_number   1
_chemical_formula_structural   Zn4H51C84BrN16
_chemical_formula_sum   'Zn4 H51 C84 Br1 N16'
_cell_volume   5832.71870203
_cell_formula_units_Z   1
loop_
 _symmetry_equiv_pos_site_id
 _symmetry_equiv_pos_as_xyz
  1  'x, y, z'
loop_
 _atom_site_type_symbol
 _atom_site_label
 _atom_site_symmetry_multiplicity
 _atom_site_fract_x
 _atom_site_fract_y
 _atom_site_fract_z
 _atom_site_occupancy
 _atom_site_pbe_bader_charge
 _atom_site_pbe_bader_spin_density
 _atom_site_pbe_cm5_charge
 _atom_site_pbe_ddec_charge
 _atom_site_pbe_ddec_spin_density
 _atom_site_pbe_ddec_sum_bond_order
 _atom_site_pbe_magmom
Zn  Zn0  1  0.89604692  0.89668882  0.50308144  1  1.188708  0  0.740084  0.605206  0  2.442846  0
Zn  Zn1  1  0.11192820  0.11546022  0.50051819  1  1.188119  0  0.743018  0.605  0  2.464477  0
Zn  Zn2  1  0.10395666  0.00893792  0.60324399  1  1.188717  0  0.742531  0.605902  0  2.453581  0
Zn  Zn3  1  0.90478367  0.00413274  0.40047238  1  1.190326  0  0.740436  0.604741  0  2.448682  0
H  H4  1  0.85177513  0.79768977  0.61365103  1  0.067681  0  0.116092  0.10284  0  1.002651  0
H  H5  1  0.45444591  0.22187252  0.56385937  1  0.039884  0  0.096825  0.099107  0  1.01454  0
H  H6  1  0.57812728  0.27531519  0.53626868  1  0.038559  0  0.098737  0.100069  0  0.997036  0
H  H7  1  0.14765068  0.28316536  0.46485395  1  0.078761  0  0.116445  0.10274  0  1.004548  0
H  H8  1  0.70251369  0.26755158  0.52884195  1  0.059358  0  0.099954  0.100937  0  0.996152  0
H  H9  1  0.79147785  0.19917576  0.54185360  1  0.051965  0  0.098594  0.101701  0  1.009298  0
H  H10  1  0.77454418  0.04665638  0.66716972  1  0.040747  0  0.097306  0.098371  0  1.014828  0
H  H11  1  0.67650498  0.02672421  0.72584564  1  0.045442  0  0.09947  0.100634  0  0.997128  0
H  H12  1  0.55145969  0.03379568  0.73276091  1  0.055769  0  0.09886  0.100079  0  0.998773  0
H  H13  1  0.15974396  0.75602189  0.46699342  1  0.047518  0  0.098268  0.100372  0  1.011563  0
H  H14  1  0.88720500  0.62002401  0.32954355  1  0.050458  0  0.097783  0.100437  0  1.013042  0
H  H15  1  0.31520091  0.18884224  0.53397312  1  0.074514  0  0.117491  0.105585  0  0.99965  0
H  H16  1  0.80853516  0.46388943  0.26722911  1  0.068798  0  0.099299  0.10037  0  0.996896  0
H  H17  1  0.80495752  0.33038279  0.26066184  1  0.031764  0  0.098476  0.099862  0  0.997773  0
H  H18  1  0.87867974  0.25716313  0.30744694  1  0.040111  0  0.095774  0.09764  0  1.014453  0
H  H19  1  0.09618078  0.13174517  0.74350594  1  0.090876  0  0.116564  0.103415  0  1.00314  0
H  H20  1  0.15181430  0.39310552  0.44197368  1  0.039418  0  0.095968  0.096725  0  1.018052  0
H  H21  1  0.23520802  0.54432988  0.47438206  1  0.039852  0  0.098319  0.099289  0  0.997671  0
H  H22  1  0.23834794  0.67799856  0.48205308  1  0.056924  0  0.100384  0.102222  0  0.995722  0
H  H23  1  0.55733153  0.80310874  0.19443405  1  0.04232  0  0.096411  0.093963  0  1.008321  0
H  H24  1  0.10165162  0.24245753  0.83744468  1  0.072101  0  0.09867  0.098172  0  1.00384  0
H  H25  1  0.17662964  0.39762374  0.72274666  1  0.037659  0  0.097451  0.0976  0  1.00491  0
H  H26  1  0.15506147  0.88162627  0.51216903  1  0.062781  0  0.115957  0.102829  0  1.007905  0
H  H27  1  0.32047366  0.58913892  0.97953185  1  0.040668  0  0.095659  0.091251  0  1.012489  0
H  H28  1  0.42602585  0.50838706  0.16500400  1  0.053301  0  0.098116  0.09636  0  1.00076  0
H  H29  1  0.18216870  0.36841202  0.95930347  1  0.054591  0  0.099854  0.098986  0  1.002914  0
H  H30  1  0.56964541  0.61323970  0.26900893  1  0.040853  0  0.096257  0.094753  0  1.006757  0
H  H31  1  0.86229563  0.14082114  0.48877875  1  0.066305  0  0.115039  0.101264  0  1.007953  0
H  H32  1  0.30959554  0.46449309  0.05222341  1  0.029917  0  0.096108  0.092083  0  1.014722  0
H  H33  1  0.41546771  0.69817938  0.08959416  1  0.0279  0  0.098964  0.097602  0  1.005094  0
H  H34  1  0.25593935  0.52404912  0.84475893  1  0.070793  0  0.09758  0.095331  0  1.001215  0
H  H35  1  0.12018930  0.86536263  0.81235534  1  0.015482  0  0.097339  0.095714  0  1.008217  0
H  H36  1  0.90403016  0.82533221  0.16120826  1  0.048541  0  0.100601  0.099648  0  1.009865  0
H  H37  1  0.88985715  0.85317201  0.26565710  1  0.081575  0  0.117198  0.103741  0  1.005748  0
H  H38  1  0.10971590  0.81811501  0.02219991  1  0.036471  0  0.098467  0.098408  0  1.00194  0
H  H39  1  0.84705110  0.72141589  0.82145964  1  0.046984  0  0.098313  0.09533  0  1.001182  0
H  H40  1  0.90435190  0.77393978  0.03913277  1  0.026984  0  0.100511  0.100757  0  1.010069  0
H  H41  1  0.84830474  0.76373441  0.71732807  1  0.042544  0  0.097267  0.095947  0  1.007201  0
H  H42  1  0.10483655  0.27254591  0.60640243  1  0.108384  0  0.115895  0.102859  0  1.006615  0
H  H43  1  0.91448878  0.73611141  0.94147993  1  0.060609  0  0.09706  0.090963  0  1.018879  0
H  H44  1  0.11906743  0.82484734  0.91682153  1  0.064446  0  0.100315  0.099363  0  1.002288  0
H  H45  1  0.16651698  0.83814351  0.15470878  1  0.083455  0  0.101211  0.115339  0  0.998331  0
H  H46  1  0.85277210  0.99884128  0.62483521  1  0.09028  0  0.115656  0.102192  0  1.004825  0
H  H47  1  0.87379231  0.13974461  0.33066603  1  0.10014  0  0.115693  0.103634  0  1.002394  0
H  H48  1  0.16493009  0.00416745  0.39204942  1  0.147741  0  0.103679  0.09375  0  1.053498  0
H  H49  1  0.12572599  0.95014564  0.74552568  1  0.08174  0  0.116673  0.103666  0  1.00217  0
H  H50  1  0.69456788  0.73302094  0.38830864  1  0.064052  0  0.115595  0.10307  0  0.999228  0
H  H51  1  0.88008014  0.73695562  0.38145447  1  0.065158  0  0.115632  0.101718  0  1.00888  0
H  H52  1  0.70964805  0.87631336  0.25403439  1  0.067389  0  0.115428  0.101956  0  1.001929  0
H  H53  1  0.30710381  0.05114384  0.67325157  1  0.074406  0  0.116244  0.103464  0  1.002345  0
H  H54  1  0.43780917  0.06804969  0.68797137  1  0.042914  0  0.095843  0.097963  0  1.016769  0
C  C55  1  0.91955118  0.84114225  0.63778604  1  0.414084  0  0.004951  -0.057857  0  3.998669  0
C  C56  1  0.94660847  0.78355672  0.41908086  1  0.413264  0  0.00681  -0.049277  0  3.967606  0
C  C57  1  0.71964146  0.85131925  0.29618685  1  0.391164  0  0.004128  -0.059258  0  4.004422  0
C  C58  1  0.08019023  0.23704601  0.43439612  1  0.384723  0  0.003228  -0.061018  0  4.009387  0
C  C59  1  0.29560822  0.08201051  0.63642147  1  0.394483  0  0.003231  -0.061152  0  4.000493  0
C  C60  1  0.66323623  0.77752759  0.29641344  1  0.016615  0  -0.040078  -0.044252  0  4.104659  0
C  C61  1  0.34997019  0.12857928  0.61123760  1  0.018426  0  -0.038122  -0.03814  0  4.089609  0
C  C62  1  0.01995850  0.77606450  0.43084899  1  0.036624  0  -0.034639  -0.036364  0  4.05999  0
C  C63  1  0.03101044  0.90697087  0.30021183  1  0.022517  0  -0.037702  -0.034424  0  4.048743  0
C  C64  1  0.47101478  0.10417641  0.66259100  1  -0.047849  0  -0.097301  -0.195657  0  3.952383  0
C  C65  1  0.43501357  0.14248871  0.62362761  1  0.056782  0  -0.014023  0.090004  0  4.094274  0
C  C66  1  0.01159694  0.24270036  0.38973647  1  0.038668  0  -0.039292  -0.038578  0  4.090518  0
C  C67  1  0.48018078  0.18991162  0.59287450  1  -0.08701  0  -0.095974  -0.194098  0  3.945562  0
C  C68  1  0.55660222  0.19476932  0.59553371  1  0.009597  0  -0.011252  0.080278  0  4.058002  0
C  C69  1  0.58963802  0.15080152  0.63088131  1  -0.017176  0  -0.000519  0.001491  0  3.917013  0
C  C70  1  0.09554165  0.15499694  0.70007916  1  0.40163  0  0.008773  -0.046752  0  3.963807  0
C  C71  1  0.54725104  0.10730990  0.66693981  1  -0.024311  0  -0.012239  0.079888  0  4.058975  0
C  C72  1  0.60141928  0.23912215  0.56093567  1  -0.070165  0  -0.095528  -0.139489  0  4.023388  0
C  C73  1  0.67041890  0.23490079  0.55688517  1  -0.028352  0  -0.093786  -0.13515  0  4.020782  0
C  C74  1  0.70099432  0.18593467  0.58701888  1  -0.031013  0  -0.010997  0.078837  0  4.053357  0
C  C75  1  0.66136122  0.14660896  0.62681146  1  0.045477  0  -0.001585  -0.002911  0  3.922263  0
C  C76  1  0.69158253  0.09896488  0.65874270  1  -0.015714  0  -0.011337  0.08005  0  4.059728  0
C  C77  1  0.10766261  0.23415425  0.70315366  1  -0.011457  0  -0.034561  -0.039312  0  4.06804  0
C  C78  1  0.65163378  0.06093709  0.69940600  1  -0.038529  0  -0.095086  -0.137437  0  4.027128  0
C  C79  1  0.58243487  0.06475569  0.70317413  1  -0.054214  0  -0.097005  -0.141077  0  4.030097  0
C  C80  1  0.76417617  0.17129572  0.57488081  1  -0.010072  0  -0.092507  -0.187181  0  3.931712  0
C  C81  1  0.78878456  0.11807623  0.60002177  1  -0.015772  0  -0.011053  0.091004  0  4.076213  0
C  C82  1  0.86566666  0.09974689  0.51663879  1  0.435178  0  0.00861  -0.045397  0  3.956213  0
C  C83  1  0.75491319  0.08629856  0.64516085  1  -0.053032  0  -0.093021  -0.186488  0  3.938715  0
C  C84  1  0.09965918  0.69679935  0.43091076  1  -0.078033  0  -0.092002  -0.186389  0  3.934525  0
C  C85  1  0.02298353  0.69806375  0.40286017  1  -0.013619  0  -0.010003  0.09338  0  4.076035  0
C  C86  1  0.94723111  0.62070489  0.35419530  1  -0.01945  0  -0.093148  -0.188811  0  3.937362  0
C  C87  1  0.94515153  0.54320993  0.34015233  1  0.008569  0  -0.011344  0.07991  0  4.06183  0
C  C88  1  0.83975724  0.08778476  0.57267354  1  0.00618  0  -0.035417  -0.037319  0  4.058377  0
C  C89  1  0.02239983  0.54275284  0.37506233  1  0.045523  0  -0.001932  -0.003304  0  3.92553  0
C  C90  1  0.10095653  0.62087394  0.41818621  1  -0.009141  0  -0.011002  0.080099  0  4.055815  0
C  C91  1  0.86718981  0.46381908  0.29623665  1  -0.102341  0  -0.094305  -0.135605  0  4.026636  0
C  C92  1  0.86524100  0.38991373  0.29251283  1  0.010994  0  -0.096326  -0.14116  0  4.030667  0
C  C93  1  0.94126112  0.38854886  0.33162914  1  -0.035904  0  -0.012372  0.079493  0  4.06222  0
C  C94  1  0.10112462  0.22737606  0.63064653  1  0.410407  0  0.008255  -0.045538  0  3.958809  0
C  C95  1  0.02049476  0.46597742  0.37072385  1  0.007475  0  -0.000314  0.000416  0  3.921881  0
C  C96  1  0.09734462  0.46625622  0.40895483  1  -0.027492  0  -0.011966  0.079879  0  4.065762  0
C  C97  1  0.17624416  0.54465805  0.44709446  1  -0.015409  0  -0.09628  -0.139166  0  4.029509  0
C  C98  1  0.17798566  0.61860006  0.45140531  1  -0.058707  0  -0.093969  -0.136382  0  4.024957  0
C  C99  1  0.71226736  0.77758411  0.36391912  1  0.454436  0  0.003663  -0.059886  0  3.998969  0
C  C100  1  0.93997803  0.31529804  0.33568843  1  -0.102306  0  -0.096494  -0.192609  0  3.948894  0
C  C101  1  0.01458970  0.31616944  0.37723945  1  0.063882  0  -0.015536  0.085871  0  4.095943  0
C  C102  1  0.09273988  0.39136904  0.41099365  1  -0.063837  0  -0.096545  -0.192575  0  3.951142  0
C  C103  1  0.57594370  0.71598127  0.23860205  1  0.012942  0  -0.013824  0.080305  0  4.055798  0
C  C104  1  0.52941266  0.73794994  0.18738009  1  -0.068905  0  -0.097146  -0.135391  0  4.011526  0
C  C105  1  0.44895245  0.67865528  0.12831106  1  -0.024796  0  -0.093429  -0.125628  0  3.989106  0
C  C106  1  0.86078173  0.02734381  0.58592344  1  0.406534  0  0.008  -0.048333  0  3.966218  0
C  C107  1  0.41051716  0.59378361  0.11725228  1  0.024793  0  -0.017523  0.105589  0  4.060494  0
C  C108  1  0.45494388  0.57332291  0.17146384  1  -0.039117  0  -0.095359  -0.133116  0  4.001282  0
C  C109  1  0.53585838  0.63257848  0.23030636  1  -0.079091  0  -0.099535  -0.137757  0  4.017618  0
C  C110  1  0.29988158  0.15245521  0.56584240  1  0.412017  0  0.004791  -0.05779  0  3.997878  0
C  C111  1  0.18188158  0.37533283  0.90769289  1  -0.064518  0  -0.093648  -0.127751  0  3.98947  0
C  C112  1  0.13640053  0.30403232  0.83870031  1  -0.04095  0  -0.096248  -0.134912  0  4.004476  0
C  C113  1  0.17668791  0.39055370  0.77424917  1  -0.006501  0  -0.097539  -0.136278  0  4.008856  0
C  C114  1  0.22164767  0.46211336  0.84325857  1  -0.045705  0  -0.09493  -0.132521  0  4.002329  0
C  C115  1  0.23004278  0.45595510  0.91245746  1  -0.027071  0  -0.019684  0.10047  0  4.063061  0
C  C116  1  0.33282730  0.52594701  0.05029866  1  -0.024413  0  -0.099129  -0.142477  0  4.019707  0
C  C117  1  0.29473852  0.52917438  0.98392826  1  -0.055297  0  -0.095711  -0.133141  0  4.014657  0
C  C118  1  0.94077488  0.16404786  0.36623523  1  0.364881  0  0.00287  -0.061804  0  3.999493  0
C  C119  1  0.13691680  0.30927680  0.77091244  1  -0.026936  0  -0.009903  0.085334  0  4.042754  0
C  C120  1  0.98480283  0.82111005  0.75822413  1  0.016489  0  -0.011822  0.084267  0  4.052103  0
C  C121  1  0.08676778  0.85719299  0.48589449  1  0.43128  0  0.008626  -0.045399  0  3.955962  0
C  C122  1  0.05989331  0.83441272  0.81434650  1  -0.027597  0  -0.095951  -0.137178  0  4.010358  0
C  C123  1  0.05920610  0.81097968  0.87328668  1  -0.023777  0  -0.092521  -0.12449  0  3.988249  0
C  C124  1  0.98302342  0.77264480  0.87914177  1  -0.041886  0  -0.017888  0.102687  0  4.063107  0
C  C125  1  0.90716763  0.75275725  0.81922908  1  -0.021087  0  -0.093648  -0.129916  0  4.000895  0
C  C126  1  0.90792081  0.77668576  0.76051626  1  -0.078698  0  -0.09899  -0.13835  0  4.015135  0
C  C127  1  0.96173460  0.79715742  0.09076077  1  0.030128  0  -0.095657  -0.134582  0  3.998989  0
C  C128  1  0.96150816  0.82622283  0.16042979  1  -0.102116  0  -0.092883  -0.120261  0  4.009196  0
C  C129  1  0.10606481  0.86170827  0.22531124  1  -0.119436  0  -0.016929  0.072635  0  3.924414  0
C  C130  1  0.05915195  0.91807757  0.70444315  1  0.412361  0  0.003597  -0.061725  0  4.007362  0
C  C131  1  0.10796127  0.83434584  0.15540362  1  -0.018642  0  -0.100751  -0.194524  0  3.969675  0
C  C132  1  0.95603541  0.89895755  0.30534262  1  0.429561  0  0.010285  -0.044256  0  3.962603  0
C  C133  1  0.03673550  0.80438996  0.08625816  1  0.017243  0  -0.015371  0.122036  0  4.054046  0
C  C134  1  0.97898774  0.76292173  0.94649899  1  -0.07363  0  -0.095599  -0.133876  0  4.021636  0
C  C135  1  0.04452279  0.79258029  0.01560304  1  -0.013288  0  -0.09642  -0.137926  0  3.996042  0
C  C136  1  0.03452551  0.86358619  0.23111969  1  0.076327  0  -0.012512  0.039196  0  4.007931  0
C  C137  1  0.98739480  0.85615809  0.70270910  1  0.01298  0  -0.038906  -0.041569  0  4.101051  0
C  C138  1  0.09645782  0.97559216  0.37022269  1  0.381786  0  0.005666  -0.040516  0  3.958815  0
Br  Br139  1  0.20755234  0.89806112  0.31368632  1  -0.096061  0  0.004794  -0.094228  0  1.36304  0
N  N140  1  0.94886862  0.88982208  0.60398990  1  -0.802746  0  -0.26798  -0.172403  0  3.537865  0
N  N141  1  0.08438263  0.10659323  0.63189751  1  -0.762122  0  -0.283495  -0.180999  0  3.652383  0
N  N142  1  0.89780450  0.04932905  0.49784751  1  -0.80124  0  -0.281744  -0.180637  0  3.631479  0
N  N143  1  0.08768320  0.15096344  0.58919054  1  -0.823234  0  -0.283396  -0.184736  0  3.641649  0
N  N144  1  0.89477845  0.00480946  0.54045518  1  -0.769896  0  -0.281236  -0.177782  0  3.640511  0
N  N145  1  0.96559232  0.11600175  0.39454240  1  -0.783153  0  -0.2683  -0.17205  0  3.539072  0
N  N146  1  0.03592356  0.93781682  0.64569615  1  -0.782739  0  -0.270326  -0.171391  0  3.5495  0
N  N147  1  0.79082717  0.84584368  0.40059362  1  -0.770659  0  -0.267685  -0.171761  0  3.535782  0
N  N148  1  0.22262317  0.12256879  0.56430522  1  -0.777688  0  -0.27121  -0.17045  0  3.550481  0
N  N149  1  0.05472143  0.90749232  0.50548292  1  -0.797889  0  -0.281788  -0.180179  0  3.628421  0
N  N150  1  0.97598084  0.95875192  0.37163806  1  -0.806078  0  -0.2833  -0.180325  0  3.652885  0
N  N151  1  0.06216263  0.00577875  0.41140173  1  -0.80406  0  -0.282711  -0.176753  0  3.641001  0
N  N152  1  0.96858880  0.86214790  0.46441892  1  -0.776355  0  -0.2835  -0.181933  0  3.644458  0
N  N153  1  0.79539621  0.89156692  0.35813561  1  -0.832948  0  -0.2717  -0.174735  0  3.550093  0
N  N154  1  0.21988453  0.07857249  0.60827396  1  -0.805944  0  -0.271027  -0.173274  0  3.546684  0
N  N155  1  0.05255133  0.16176498  0.43702045  1  -0.791605  0  -0.272222  -0.170926  0  3.557946  0
