# generated using pymatgen
data_CuH24C12(NO2)2
_symmetry_space_group_name_H-M   'P 1'
_cell_length_a   5.09776346
_cell_length_b   10.30736075
_cell_length_c   18.63659620
_cell_angle_alpha   90.02924880
_cell_angle_beta   90.03139002
_cell_angle_gamma   125.07967927
_symmetry_Int_Tables_number   1
_chemical_formula_structural   CuH24C12(NO2)2
_chemical_formula_sum   'Cu2 H48 C24 N4 O8'
_cell_volume   801.37255155
_cell_formula_units_Z   2
loop_
 _symmetry_equiv_pos_site_id
 _symmetry_equiv_pos_as_xyz
  1  'x, y, z'
loop_
 _atom_site_type_symbol
 _atom_site_label
 _atom_site_symmetry_multiplicity
 _atom_site_fract_x
 _atom_site_fract_y
 _atom_site_fract_z
 _atom_site_occupancy
 _atom_site_hle17_ddec_charge
 _atom_site_hle17_ddec_spin_density
 _atom_site_hle17_ddec_sum_bond_order
 _atom_site_hle17_magmom
 _atom_site_hse06_10hf_ddec_charge
 _atom_site_hse06_10hf_ddec_spin_density
 _atom_site_hse06_10hf_ddec_sum_bond_order
 _atom_site_hse06_10hf_magmom
 _atom_site_hse06_ddec_charge
 _atom_site_hse06_ddec_spin_density
 _atom_site_hse06_ddec_sum_bond_order
 _atom_site_hse06_magmom
 _atom_site_pbe_cm5_charge
 _atom_site_pbe_ddec_charge
 _atom_site_pbe_ddec_spin_density
 _atom_site_pbe_ddec_sum_bond_order
 _atom_site_pbe_magmom
Cu  Cu0  1  0.99996421  0.99998252  0.00000227  1  0.844234  -0.696393  1.69991  -0.484  0.811231  -0.785872  2.09361  -0.6  0.907603  -0.857797  2.0159  -0.679  0.699549  0.75038  -0.737687  2.1491  -0.552
Cu  Cu1  1  0.50002967  0.50002100  0.49999811  1  0.843998  0.696482  1.701679  0.484  0.810974  0.785871  2.095598  0.6  0.907221  0.857757  2.017958  0.679  0.699727  0.750204  0.737696  2.151063  0.552
H  H2  1  0.05179280  0.84444650  0.30301164  1  0.059424  9.5e-05  0.955708  0.0  0.079533  3.2e-05  1.015875  0.0  0.079872  2.8e-05  1.016874  0.0  0.086964  0.079229  3.5e-05  1.015157  0.0
H  H3  1  0.44818648  0.65546079  0.80307301  1  0.059332  -9.5e-05  0.955833  0.0  0.079484  -3.2e-05  1.016018  0.0  0.079815  -2.8e-05  1.017033  0.0  0.087005  0.079195  -3.5e-05  1.015284  0.0
H  H4  1  0.94819519  0.15555646  0.69699745  1  0.059471  9.7e-05  0.955825  0.0  0.079551  3.1e-05  1.016041  0.0  0.079886  2.8e-05  1.017046  0.0  0.086996  0.079249  3.5e-05  1.015323  0.0
H  H5  1  0.55180348  0.34451887  0.19693071  1  0.059286  -8.9e-05  0.955808  0.0  0.079477  -3.2e-05  1.015971  0.0  0.079811  -2.8e-05  1.016985  0.0  0.08702  0.079186  -3.5e-05  1.015242  0.0
H  H6  1  0.28011943  0.68946199  0.30979810  1  0.059667  0.000246  0.96225  0.0  0.078493  0.000237  1.026301  0.0  0.07905  0.000168  1.027301  0.0  0.087805  0.077996  0.000284  1.026021  0.0
H  H7  1  0.21953518  0.81030749  0.80986195  1  0.059686  -0.000253  0.961927  0.0  0.078215  -0.000238  1.026256  0.0  0.078778  -0.000168  1.027234  0.0  0.087782  0.077719  -0.000286  1.025963  0.0
H  H8  1  0.71991257  0.31055277  0.69019973  1  0.059721  0.000247  0.962281  0.0  0.078466  0.000237  1.026394  0.0  0.079026  0.000168  1.027394  0.0  0.087764  0.077968  0.000284  1.026115  0.0
H  H9  1  0.78042643  0.18966937  0.19013212  1  0.059559  -0.000255  0.962119  0.0  0.078106  -0.000238  1.026391  0.0  0.078667  -0.000168  1.027373  0.0  0.087757  0.077614  -0.000286  1.026087  0.0
H  H10  1  0.66222420  0.85602453  0.28658026  1  0.048516  5.9e-05  0.95993  0.0  0.068861  4e-05  1.020705  0.0  0.069096  2.8e-05  1.021536  0.0  0.083679  0.068648  5.6e-05  1.020203  0.0
H  H11  1  0.83749450  0.64365343  0.78649423  1  0.048787  -6.6e-05  0.959864  0.0  0.069124  -4e-05  1.020425  0.0  0.06938  -2.8e-05  1.021217  0.0  0.083848  0.068899  -5.6e-05  1.019934  0.0
H  H12  1  0.33779847  0.14400959  0.71342079  1  0.048551  6.4e-05  0.959901  0.0  0.068875  4.1e-05  1.020671  0.0  0.069107  2.8e-05  1.02151  0.0  0.083654  0.068668  5.6e-05  1.020151  0.0
H  H13  1  0.16246758  0.35630534  0.21350896  1  0.048749  -6.4e-05  0.959874  0.0  0.069067  -4.1e-05  1.020446  0.0  0.069319  -2.8e-05  1.021244  0.0  0.083824  0.068835  -5.6e-05  1.019967  0.0
H  H14  1  0.72704380  0.98459806  0.40249818  1  0.104131  0.000781  0.91872  0.001  0.120091  0.000691  0.971424  0.001  0.121783  0.000467  0.970944  0.001  0.09646  0.118674  0.000929  0.972107  0.001
H  H15  1  0.77304025  0.51529823  0.90235478  1  0.103976  -0.000779  0.918231  -0.001  0.11999  -0.000688  0.970782  -0.001  0.121663  -0.000465  0.970313  -0.001  0.096354  0.118593  -0.000926  0.971462  -0.001
H  H16  1  0.27292240  0.01542836  0.59750125  1  0.104012  0.000774  0.918744  0.001  0.120059  0.00069  0.971399  0.001  0.121741  0.000467  0.970928  0.001  0.096426  0.118639  0.000928  0.972084  0.001
H  H17  1  0.22701098  0.48467146  0.09764841  1  0.103857  -0.000769  0.918407  -0.001  0.119943  -0.000687  0.971008  -0.001  0.121621  -0.000464  0.970535  -0.001  0.096356  0.118541  -0.000924  0.971692  -0.001
H  H18  1  0.31299081  0.84789949  0.42219770  1  0.124096  -0.000304  0.940949  0.0  0.139187  -0.000101  0.998597  0.0  0.141512  -8.6e-05  0.997753  0.0  0.10112  0.137449  -8.4e-05  0.999333  0.0
H  H19  1  0.18718455  0.65201807  0.92219340  1  0.124139  0.00031  0.940816  0.0  0.139219  0.000101  0.998368  0.0  0.141539  8.6e-05  0.997522  0.0  0.101199  0.137484  8.5e-05  0.999124  0.0
H  H20  1  0.68697181  0.15210416  0.57779529  1  0.124054  -0.000317  0.941046  0.0  0.139188  -0.0001  0.998657  0.0  0.141511  -8.6e-05  0.997808  0.0  0.101146  0.137446  -8.4e-05  0.999394  0.0
H  H21  1  0.81287831  0.34799546  0.07780497  1  0.124117  0.000318  0.940624  0.0  0.13924  0.0001  0.998267  0.0  0.14156  8.6e-05  0.997421  0.0  0.101236  0.137502  8.5e-05  0.999027  0.0
H  H22  1  0.41124312  0.99325101  0.06896371  1  0.302331  0.000641  0.932991  0.001  0.291271  -0.000198  0.99535  0.0  0.29965  7.7e-05  0.990001  0.001  0.287219  0.28544  -0.000435  0.999232  0.0
H  H23  1  0.08882326  0.50668335  0.56887120  1  0.302228  -0.000643  0.932477  -0.001  0.290983  0.000196  0.99506  0.0  0.299338  -7.9e-05  0.989765  -0.001  0.28722  0.285167  0.000432  0.998935  0.0
H  H24  1  0.58867038  0.00669763  0.93103572  1  0.302288  0.000638  0.932947  0.001  0.291111  -0.0002  0.99545  0.0  0.299488  7.6e-05  0.990109  0.001  0.287219  0.285279  -0.000436  0.999339  0.0
H  H25  1  0.91125569  0.49336059  0.43112717  1  0.302285  -0.000644  0.93256  -0.001  0.291105  0.000196  0.995031  0.0  0.299472  -7.9e-05  0.989712  -0.001  0.287236  0.285284  0.000432  0.998902  0.0
H  H26  1  0.06716873  0.81551364  0.06466761  1  0.290385  0.001039  0.882708  0.002  0.292378  1.4e-05  0.922689  0.0  0.29749  0.000227  0.921562  0.001  0.303389  0.288618  -0.000252  0.924096  0.0
H  H27  1  0.43281410  0.68442064  0.56476554  1  0.290551  -0.001033  0.88291  -0.002  0.292473  -1.2e-05  0.922973  0.0  0.297585  -0.000226  0.92183  -0.001  0.30344  0.288717  0.000253  0.924363  0.0
H  H28  1  0.93271810  0.18443879  0.93534200  1  0.290619  0.001038  0.882411  0.002  0.292709  1.4e-05  0.922277  0.0  0.297826  0.000228  0.92113  0.001  0.303501  0.288948  -0.000251  0.923687  0.0
H  H29  1  0.56726068  0.31562075  0.43523713  1  0.290661  -0.001039  0.882599  -0.002  0.292523  -1.2e-05  0.922762  0.0  0.297638  -0.000226  0.921618  -0.001  0.303516  0.288769  0.000253  0.924144  0.0
H  H30  1  0.23589502  0.06553862  0.16980310  1  0.062726  -4.6e-05  0.922096  0.0  0.083836  -7.4e-05  0.978861  0.0  0.083221  -4.2e-05  0.980332  0.0  0.106729  0.084022  -8.8e-05  0.978203  0.0
H  H31  1  0.26432787  0.43444171  0.66970236  1  0.062918  3.4e-05  0.922779  0.0  0.084172  7.3e-05  0.97927  0.0  0.083556  4.2e-05  0.980747  0.0  0.107059  0.084363  8.7e-05  0.978607  0.0
H  H32  1  0.76410573  0.93445598  0.83019258  1  0.062761  -4.4e-05  0.922081  0.0  0.083889  -7.4e-05  0.978867  0.0  0.083276  -4.2e-05  0.980334  0.0  0.106744  0.084077  -8.8e-05  0.978211  0.0
H  H33  1  0.73576223  0.56558731  0.33028957  1  0.062845  4.1e-05  0.922782  0.0  0.083944  7.3e-05  0.979423  0.0  0.083329  4.2e-05  0.9809  0.0  0.106953  0.084138  8.7e-05  0.978758  0.0
H  H34  1  0.86461071  0.87767138  0.16693111  1  0.053193  -0.000156  0.937153  -0.001  0.073313  -0.000131  0.995257  0.0  0.072962  -6.8e-05  0.995728  0.0  0.10193  0.073387  -0.000197  0.99509  0.0
H  H35  1  0.63552423  0.62226516  0.66705414  1  0.053103  0.000145  0.937875  0.001  0.073325  0.00013  0.995787  0.0  0.072971  6.7e-05  0.99627  0.0  0.1019  0.073398  0.000195  0.995613  0.0
H  H36  1  0.13535877  0.12234256  0.83307691  1  0.053214  -0.000153  0.937042  -0.001  0.073335  -0.000131  0.995203  0.0  0.072982  -6.8e-05  0.995676  0.0  0.101907  0.073406  -0.000197  0.995036  0.0
H  H37  1  0.36455862  0.37777169  0.33294423  1  0.052953  0.000149  0.93797  0.001  0.073312  0.00013  0.995668  0.0  0.072956  6.8e-05  0.996153  0.0  0.101946  0.073385  0.000196  0.995492  0.0
H  H38  1  0.13076852  0.74210818  0.18602214  1  0.058707  0.00023  0.957595  0.0  0.07981  5.2e-05  1.013661  0.0  0.080522  4.8e-05  1.013889  0.0  0.087628  0.079028  5e-06  1.014017  0.0
H  H39  1  0.36941746  0.75783051  0.68611687  1  0.058582  -0.000226  0.957717  0.0  0.079806  -5.2e-05  1.013762  0.0  0.080522  -4.7e-05  1.013983  0.0  0.08756  0.079003  -5e-06  1.014151  0.0
H  H40  1  0.86912722  0.25786861  0.81398963  1  0.058716  0.000227  0.957673  0.0  0.079853  5.2e-05  1.013722  0.0  0.080571  4.8e-05  1.013941  0.0  0.087607  0.079072  5e-06  1.01407  0.0
H  H41  1  0.63063735  0.24218758  0.31389062  1  0.058632  -0.000231  0.957806  0.0  0.079799  -5.2e-05  1.013863  0.0  0.080516  -4.8e-05  1.014081  0.0  0.087561  0.078995  -5e-06  1.01425  0.0
H  H42  1  0.51127160  0.92231014  0.17729039  1  0.066903  0.000114  0.967055  0.0  0.082224  -0.000105  1.034649  0.0  0.08358  -7.3e-05  1.034113  0.0  0.090514  0.081184  -0.000149  1.035145  0.0
H  H43  1  0.98890163  0.57764498  0.67711329  1  0.066629  -0.000108  0.96671  0.0  0.082007  0.000105  1.034433  0.0  0.08336  7.3e-05  1.033896  0.0  0.090315  0.080973  0.000151  1.034915  0.0
H  H44  1  0.48866041  0.07765312  0.82270474  1  0.066876  0.000108  0.967054  0.0  0.082168  -0.000104  1.034699  0.0  0.083519  -7.3e-05  1.034175  0.0  0.09051  0.081129  -0.00015  1.035196  0.0
H  H45  1  0.01115887  0.42237045  0.32288239  1  0.066776  -0.000116  0.966876  0.0  0.082054  0.000105  1.034656  0.0  0.083406  7.3e-05  1.034123  0.0  0.090368  0.081017  0.000151  1.035136  0.0
H  H46  1  0.43361235  0.02188758  0.29147233  1  0.054607  0.0001  0.963635  0.0  0.076151  5.5e-05  1.021642  0.0  0.076435  4e-05  1.022608  0.0  0.085557  0.07579  8.7e-05  1.021279  0.0
H  H47  1  0.06648644  0.47795652  0.79127553  1  0.054857  -0.000104  0.964003  0.0  0.076433  -5.5e-05  1.021988  0.0  0.076718  -4e-05  1.022957  0.0  0.085638  0.076061  -8.7e-05  1.02163  0.0
H  H48  1  0.56635699  0.97811460  0.70852174  1  0.05462  0.000106  0.963733  0.0  0.076163  5.5e-05  1.021745  0.0  0.076446  4e-05  1.022715  0.0  0.08556  0.075795  8.7e-05  1.021396  0.0
H  H49  1  0.93350812  0.52203319  0.20871479  1  0.054757  -0.0001  0.963853  0.0  0.076342  -5.6e-05  1.021864  0.0  0.07663  -4e-05  1.022828  0.0  0.085581  0.075971  -8.7e-05  1.021512  0.0
C  C50  1  0.12178839  0.94035576  0.15589524  1  0.088076  -0.001068  3.631661  0.001  0.031879  -0.001907  3.906779  0.0  0.038245  -0.001141  3.920012  0.0  -0.072819  0.028014  -0.002462  3.897583  -0.001
C  C51  1  0.37837949  0.55957813  0.65588295  1  0.087026  0.001128  3.634392  -0.001  0.030939  0.00191  3.909334  0.0  0.037288  0.001144  3.922569  0.0  -0.073153  0.027078  0.002464  3.90014  0.001
C  C52  1  0.87816933  0.05962819  0.84410527  1  0.088135  -0.001092  3.631185  0.001  0.031866  -0.001906  3.906538  0.0  0.038235  -0.001142  3.919765  0.0  -0.072764  0.027998  -0.002461  3.89735  -0.001
C  C53  1  0.62169954  0.44045194  0.34411381  1  0.087294  0.001096  3.634004  -0.001  0.031311  0.00191  3.908692  0.0  0.037661  0.001143  3.921923  0.0  -0.073129  0.027452  0.002463  3.899492  0.001
C  C54  1  0.26810488  0.86983298  0.19836030  1  -0.148078  -0.006392  3.704984  -0.006  -0.188377  -0.004148  3.972738  -0.004  -0.190282  -0.003095  3.986163  -0.003  -0.169481  -0.186728  -0.00491  3.963055  -0.005
C  C55  1  0.23203693  0.63009118  0.69832719  1  -0.147125  0.006355  3.703975  0.006  -0.187802  0.004145  3.972238  0.004  -0.189696  0.00309  3.985656  0.003  -0.169264  -0.186146  0.004904  3.962531  0.005
C  C56  1  0.73183206  0.13014999  0.80164235  1  -0.148024  -0.006369  3.704849  -0.006  -0.188351  -0.004151  3.972797  -0.004  -0.19026  -0.003094  3.986224  -0.003  -0.169442  -0.186704  -0.004911  3.963112  -0.005
C  C57  1  0.76803012  0.36992490  0.30167172  1  -0.147388  0.00639  3.7044  0.006  -0.187942  0.004144  3.972496  0.004  -0.189838  0.003091  3.985918  0.003  -0.169265  -0.186284  0.004904  3.962783  0.005
C  C58  1  0.28968562  0.89399767  0.27952851  1  -0.102189  -0.001968  3.693124  -0.002  -0.145185  -0.00133  3.96254  -0.002  -0.146543  -0.000978  3.978104  -0.001  -0.166504  -0.143822  -0.001608  3.951266  -0.002
C  C59  1  0.21024103  0.60584767  0.77948959  1  -0.102436  0.001978  3.693479  0.002  -0.145718  0.001332  3.963202  0.002  -0.147079  0.000979  3.978747  0.001  -0.166726  -0.144368  0.001611  3.951957  0.002
C  C60  1  0.71029517  0.10599923  0.72047200  1  -0.102234  -0.001982  3.693325  -0.002  -0.145217  -0.001328  3.962746  -0.002  -0.14657  -0.000979  3.978309  -0.001  -0.166546  -0.143862  -0.001608  3.951478  -0.002
C  C61  1  0.78976281  0.39413656  0.22050770  1  -0.102184  0.001946  3.693205  0.002  -0.145575  0.001334  3.962932  0.002  -0.146935  0.000979  3.978479  0.001  -0.166683  -0.144222  0.00161  3.951681  0.002
C  C62  1  0.44153178  0.81903610  0.31566121  1  -0.078341  -0.000834  3.690298  -0.001  -0.121213  -0.000182  3.95616  0.0  -0.121316  -0.000126  3.970631  0.0  -0.165721  -0.121046  -0.000214  3.946084  0.0
C  C63  1  0.05831705  0.68074099  0.81563778  1  -0.07862  0.000855  3.691093  0.001  -0.121018  0.000179  3.956413  0.0  -0.121105  0.000124  3.970855  0.0  -0.165766  -0.120839  0.00021  3.946354  0.0
C  C64  1  0.55848778  0.18098277  0.68433715  1  -0.078509  -0.000851  3.690441  -0.001  -0.121256  -0.000182  3.956212  0.0  -0.121357  -0.000125  3.970667  0.0  -0.165667  -0.121083  -0.000213  3.946137  0.0
C  C65  1  0.94165955  0.31922775  0.18436326  1  -0.078566  0.000872  3.690953  0.001  -0.120808  0.000179  3.956271  0.0  -0.120888  0.000124  3.970701  0.0  -0.165689  -0.120641  0.000211  3.946215  0.0
C  C66  1  0.51996227  0.86120576  0.39532439  1  -0.267001  0.007974  3.657207  0.008  -0.301986  0.005076  3.901414  0.005  -0.308282  0.003519  3.909992  0.004  -0.168851  -0.297396  0.006205  3.895195  0.006
C  C67  1  0.98017236  0.63867259  0.89526255  1  -0.267047  -0.007971  3.657305  -0.008  -0.301825  -0.00507  3.900988  -0.005  -0.308114  -0.003517  3.909594  -0.004  -0.168581  -0.29724  -0.006197  3.894756  -0.006
C  C68  1  0.48003796  0.13882081  0.60467397  1  -0.266852  0.008015  3.657593  0.008  -0.301995  0.005073  3.901814  0.005  -0.308278  0.003519  3.910393  0.004  -0.1689  -0.297398  0.006202  3.895596  0.006
C  C69  1  0.01985864  0.36131539  0.10474333  1  -0.26663  -0.008013  3.657172  -0.008  -0.301771  -0.005067  3.901325  -0.005  -0.308066  -0.003518  3.909929  -0.004  -0.168599  -0.29717  -0.006195  3.895077  -0.006
C  C70  1  0.59094846  0.75469304  0.43394214  1  0.672255  -0.003751  3.851416  -0.007  0.633775  -0.000668  4.156157  -0.003  0.66812  -0.001124  4.151933  -0.003  0.19572  0.610723  -0.000279  4.157832  -0.003
C  C71  1  0.90927123  0.74521993  0.93388050  1  0.672169  0.003742  3.853406  0.007  0.633451  0.000667  4.15837  0.003  0.667788  0.001123  4.154137  0.003  0.195283  0.610418  0.000278  4.160068  0.003
C  C72  1  0.40910134  0.24534482  0.56605516  1  0.672177  -0.003764  3.851975  -0.007  0.633885  -0.000666  4.156486  -0.003  0.668233  -0.001126  4.152256  -0.003  0.195677  0.610831  -0.00028  4.158171  -0.003
C  C73  1  0.09062520  0.25472276  0.06612375  1  0.67221  0.003764  3.852699  0.007  0.633573  0.000667  4.157702  0.003  0.66791  0.001124  4.153472  0.003  0.195229  0.61053  0.000279  4.159392  0.003
N  N74  1  0.16674351  0.93137205  0.07821198  1  -0.604706  -0.083445  3.160737  -0.1  -0.586511  -0.056933  3.442024  -0.072  -0.618537  -0.047104  3.442411  -0.063  -0.646779  -0.566442  -0.062015  3.443346  -0.075
N  N75  1  0.33342755  0.56859851  0.57819394  1  -0.604116  0.083347  3.161671  0.1  -0.585883  0.056892  3.443527  0.072  -0.617861  0.047084  3.443919  0.063  -0.646841  -0.565856  0.061968  3.444855  0.075
N  N76  1  0.83316909  0.06858717  0.92179067  1  -0.604981  -0.08345  3.160446  -0.1  -0.586782  -0.056944  3.441886  -0.072  -0.618803  -0.047112  3.442267  -0.063  -0.646956  -0.566719  -0.062026  3.443224  -0.075
N  N77  1  0.66665158  0.43144332  0.42180497  1  -0.604335  0.083365  3.161209  0.1  -0.586188  0.056888  3.442975  0.072  -0.618169  0.047079  3.443354  0.063  -0.646953  -0.566151  0.061965  3.444306  0.075
O  O78  1  0.35775705  0.60284557  0.43325958  1  -0.644512  0.093669  2.033063  0.121  -0.60065  0.064383  2.302267  0.091  -0.643796  0.051897  2.294879  0.077  -0.340942  -0.572129  0.071384  2.307841  0.097
O  O79  1  0.14216181  0.89711857  0.93323319  1  -0.644187  -0.093692  2.032503  -0.121  -0.600346  -0.064374  2.301767  -0.091  -0.643563  -0.051876  2.294476  -0.077  -0.340711  -0.571778  -0.071371  2.307273  -0.097
O  O80  1  0.64228905  0.39719727  0.56674362  1  -0.644291  0.093667  2.032838  0.121  -0.600638  0.064384  2.302147  0.091  -0.643778  0.051895  2.294753  0.077  -0.34087  -0.572112  0.071383  2.307713  0.097
O  O81  1  0.85775343  0.10284839  0.06677107  1  -0.644238  -0.093598  2.032355  -0.121  -0.600459  -0.064318  2.301703  -0.091  -0.643653  -0.051835  2.29439  -0.077  -0.340786  -0.571904  -0.071313  2.307214  -0.097
O  O82  1  0.34975465  0.30772350  0.03456013  1  -0.622617  -0.000536  1.885868  -0.002  -0.592642  -0.00011  2.108087  -0.001  -0.616685  0.00081  2.096656  0.0  -0.333352  -0.576022  -0.001045  2.115667  -0.003
O  O83  1  0.14968038  0.19233430  0.53449402  1  -0.62245  0.000547  1.88504  0.002  -0.59253  0.000112  2.106998  0.001  -0.616589  -0.0008  2.095586  0.0  -0.333388  -0.575892  0.001048  2.11457  0.003
O  O84  1  0.65020784  0.69221715  0.96543446  1  -0.622347  -0.000528  1.886768  -0.002  -0.592445  -0.000104  2.109088  -0.001  -0.616472  0.000813  2.097652  0.0  -0.333364  -0.575834  -0.001037  2.116679  -0.003
O  O85  1  0.85038882  0.80770759  0.46549040  1  -0.622421  0.00054  1.884715  0.002  -0.592428  0.000115  2.106746  0.001  -0.616486  -0.000804  2.095336  0.0  -0.333397  -0.575792  0.001049  2.114317  0.003
