# generated using pymatgen
data_AgH6C8SN7O3
_symmetry_space_group_name_H-M   'P 1'
_cell_length_a   3.88880190
_cell_length_b   12.97505763
_cell_length_c   23.18771089
_cell_angle_alpha   89.99964146
_cell_angle_beta   94.04578241
_cell_angle_gamma   90.00047406
_symmetry_Int_Tables_number   1
_chemical_formula_structural   AgH6C8SN7O3
_chemical_formula_sum   'Ag4 H24 C32 S4 N28 O12'
_cell_volume   1167.07664007
_cell_formula_units_Z   4
loop_
 _symmetry_equiv_pos_site_id
 _symmetry_equiv_pos_as_xyz
  1  'x, y, z'
loop_
 _atom_site_type_symbol
 _atom_site_label
 _atom_site_symmetry_multiplicity
 _atom_site_fract_x
 _atom_site_fract_y
 _atom_site_fract_z
 _atom_site_occupancy
 _atom_site_hle17_bader_spin_density
 _atom_site_hle17_ddec_charge
 _atom_site_hle17_ddec_spin_density
 _atom_site_hle17_ddec_sum_bond_order
 _atom_site_hle17_magmom
 _atom_site_hse06_10hf_bader_spin_density
 _atom_site_hse06_10hf_ddec_charge
 _atom_site_hse06_10hf_ddec_spin_density
 _atom_site_hse06_10hf_ddec_sum_bond_order
 _atom_site_hse06_10hf_magmom
 _atom_site_hse06_bader_spin_density
 _atom_site_hse06_ddec_charge
 _atom_site_hse06_ddec_spin_density
 _atom_site_hse06_ddec_sum_bond_order
 _atom_site_hse06_magmom
 _atom_site_pbe_bader_spin_density
 _atom_site_pbe_cm5_charge
 _atom_site_pbe_ddec_charge
 _atom_site_pbe_ddec_spin_density
 _atom_site_pbe_ddec_sum_bond_order
 _atom_site_pbe_magmom
Ag  Ag0  1  0.58862227  0.83655400  0.73207458  1  0  0.551792  0  1.426663  0  0  0.411002  0  1.858832  0  0  0.436858  0  1.818579  0  0  0.47715  0.392855  0  1.886937  0
Ag  Ag1  1  0.91139878  0.33656027  0.76792541  1  0  0.551798  0  1.426665  0  0  0.410985  0  1.858875  0  0  0.436837  0  1.818629  0  0  0.477148  0.392876  0  1.886923  0
Ag  Ag2  1  0.41136969  0.16344260  0.26792422  1  0  0.551746  0  1.426649  0  0  0.410922  0  1.858869  0  0  0.436787  0  1.818577  0  0  0.477136  0.39279  0  1.886911  0
Ag  Ag3  1  0.08860614  0.66344095  0.23207569  1  0  0.551762  0  1.426613  0  0  0.410932  0  1.858915  0  0  0.436799  0  1.818583  0  0  0.477146  0.392817  0  1.886898  0
H  H4  1  0.17716901  0.62506906  0.76763079  1  0  0.111296  0  0.952301  0  0  0.114948  0  1.0221  0  0  0.117776  0  1.018264  0  0  0.134315  0.11267  0  1.025197  0
H  H5  1  0.32281283  0.12507012  0.73236951  1  0  0.11134  0  0.952274  0  0  0.114988  0  1.02209  0  0  0.117819  0  1.018249  0  0  0.134315  0.112705  0  1.025191  0
H  H6  1  0.82282290  0.37493524  0.23236628  1  0  0.111275  0  0.952356  0  0  0.114917  0  1.022232  0  0  0.117756  0  1.018317  0  0  0.134316  0.112652  0  1.025247  0
H  H7  1  0.67715074  0.87492956  0.26762769  1  0  0.111236  0  0.952344  0  0  0.114909  0  1.022134  0  0  0.11774  0  1.018293  0  0  0.134307  0.112626  0  1.02524  0
H  H8  1  0.36133045  0.89440088  0.86644871  1  0  0.12592  0  0.947488  0  0  0.134106  0  1.012125  0  0  0.137164  0  1.007971  0  0  0.143271  0.131754  0  1.015208  0
H  H9  1  0.13870496  0.39440644  0.63355426  1  0  0.125903  0  0.947548  0  0  0.134069  0  1.012179  0  0  0.137128  0  1.008021  0  0  0.143262  0.131714  0  1.015265  0
H  H10  1  0.63868226  0.10559572  0.13355420  1  0  0.125952  0  0.947479  0  0  0.134067  0  1.012178  0  0  0.137123  0  1.008028  0  0  0.143287  0.131715  0  1.01526  0
H  H11  1  0.86130772  0.60560095  0.36644778  1  0  0.125885  0  0.947606  0  0  0.134106  0  1.01224  0  0  0.137172  0  1.008017  0  0  0.143283  0.131763  0  1.015257  0
H  H12  1  0.00584016  0.92557206  0.95500967  1  0  0.133482  0  0.942787  0  0  0.148785  0  0.992284  0  0  0.151095  0  0.991807  0  0  0.114038  0.147001  0  0.992883  0
H  H13  1  0.49415201  0.42557101  0.54498496  1  0  0.133402  0  0.942701  0  0  0.148742  0  0.992173  0  0  0.15108  0  0.991654  0  0  0.113991  0.146956  0  0.992775  0
H  H14  1  0.99414919  0.07442762  0.04498781  1  0  0.133457  0  0.942862  0  0  0.148809  0  0.992289  0  0  0.151122  0  0.991809  0  0  0.114048  0.147025  0  0.992885  0
H  H15  1  0.50581408  0.57442713  0.45501054  1  0  0.133383  0  0.942663  0  0  0.148759  0  0.99211  0  0  0.151066  0  0.991614  0  0  0.113986  0.146974  0  0.99269  0
H  H16  1  0.78699812  0.88348574  0.05913403  1  0  0.134979  0  0.948394  0  0  0.143951  0  1.009735  0  0  0.147346  0  1.007341  0  0  0.113079  0.14129  0  1.011849  0
H  H17  1  0.71298093  0.38347571  0.44086126  1  0  0.134986  0  0.948221  0  0  0.143992  0  1.009567  0  0  0.147381  0  1.007152  0  0  0.113083  0.141364  0  1.011612  0
H  H18  1  0.21299899  0.11651394  0.94086483  1  0  0.134963  0  0.948341  0  0  0.143955  0  1.009669  0  0  0.147336  0  1.007292  0  0  0.113084  0.141295  0  1.011783  0
H  H19  1  0.28699555  0.61651934  0.55913694  1  0  0.13498  0  0.94817  0  0  0.143984  0  1.00949  0  0  0.147361  0  1.007116  0  0  0.113078  0.141325  0  1.011603  0
H  H20  1  0.39279931  0.47593205  0.14492067  1  0  0.100142  0  0.959916  0  0  0.103359  0  1.031133  0  0  0.105496  0  1.028725  0  0  0.130589  0.101631  0  1.033078  0
H  H21  1  0.10720028  0.97593061  0.35508100  1  0  0.100088  0  0.959983  0  0  0.103307  0  1.031194  0  0  0.105441  0  1.028799  0  0  0.13056  0.101582  0  1.033144  0
H  H22  1  0.60720044  0.52406917  0.85507994  1  0  0.100144  0  0.959923  0  0  0.10332  0  1.031185  0  0  0.105453  0  1.02879  0  0  0.130572  0.101595  0  1.033137  0
H  H23  1  0.89280201  0.02406676  0.64491835  1  0  0.100131  0  0.959989  0  0  0.103342  0  1.0312  0  0  0.105476  0  1.028807  0  0  0.130589  0.101615  0  1.033153  0
H  H24  1  0.39896330  0.79898044  0.12617658  1  0  0.125814  0  0.948175  0  0  0.131607  0  1.014384  0  0  0.134103  0  1.010068  0  0  0.144683  0.129417  0  1.017412  0
H  H25  1  0.10100582  0.29897705  0.37382407  1  0  0.125897  0  0.9481  0  0  0.131646  0  1.014452  0  0  0.134144  0  1.01008  0  0  0.144705  0.129461  0  1.017425  0
H  H26  1  0.60104678  0.20102155  0.87382457  1  0  0.125791  0  0.948234  0  0  0.131624  0  1.014419  0  0  0.134117  0  1.010102  0  0  0.144677  0.129433  0  1.017453  0
H  H27  1  0.89898353  0.70102032  0.62617341  1  0  0.125897  0  0.948081  0  0  0.131644  0  1.014383  0  0  0.134137  0  1.010065  0  0  0.144688  0.12945  0  1.017418  0
C  C28  1  0.17052557  0.68061081  0.80257993  1  0  0.194298  0  3.691751  0  0  0.142927  0  3.979651  0  0  0.15504  0  3.990502  0  0  0.147494  0.134937  0  3.972378  0
C  C29  1  0.32946294  0.18061073  0.69742198  1  0  0.19424  0  3.691679  0  0  0.14286  0  3.979574  0  0  0.154972  0  3.990423  0  0  0.147504  0.134866  0  3.972309  0
C  C30  1  0.82947153  0.31939195  0.19741806  1  0  0.194317  0  3.691662  0  0  0.14293  0  3.979652  0  0  0.155048  0  3.99044  0  0  0.147506  0.134945  0  3.972304  0
C  C31  1  0.67050585  0.81939049  0.30257743  1  0  0.194318  0  3.691768  0  0  0.142921  0  3.979677  0  0  0.155037  0  3.990523  0  0  0.147513  0.134936  0  3.972387  0
C  C32  1  0.26706032  0.81937381  0.85189495  1  0  0.188729  0  3.585692  0  0  0.106592  0  3.85747  0  0  0.122747  0  3.866985  0  0  0.1633  0.096208  0  3.850817  0
C  C33  1  0.23296533  0.31938022  0.64810645  1  0  0.188753  0  3.585923  0  0  0.106717  0  3.857535  0  0  0.122874  0  3.867048  0  0  0.163348  0.096332  0  3.850888  0
C  C34  1  0.73294458  0.18062356  0.14810572  1  0  0.188661  0  3.585723  0  0  0.106609  0  3.857454  0  0  0.122768  0  3.866965  0  0  0.163273  0.096227  0  3.8508  0
C  C35  1  0.76703700  0.68062563  0.35189419  1  0  0.188695  0  3.585695  0  0  0.106554  0  3.857468  0  0  0.122721  0  3.866909  0  0  0.163257  0.096179  0  3.85075  0
C  C36  1  0.96963442  0.76100221  0.93782903  1  0  0.060475  0  3.783921  0  0  0.035278  0  4.067924  0  0  0.038833  0  4.09151  0  0  0.085142  0.033056  0  4.052083  0
C  C37  1  0.53036921  0.26100213  0.56217190  1  0  0.060413  0  3.784133  0  0  0.03524  0  4.068104  0  0  0.03879  0  4.091709  0  0  0.085185  0.033021  0  4.052256  0
C  C38  1  0.03036018  0.23899901  0.06217196  1  0  0.060537  0  3.783882  0  0  0.035276  0  4.067979  0  0  0.038831  0  4.091571  0  0  0.085155  0.033066  0  4.052122  0
C  C39  1  0.46962797  0.73899832  0.43782868  1  0  0.060411  0  3.784227  0  0  0.035224  0  4.068211  0  0  0.038777  0  4.0918  0  0  0.085137  0.033008  0  4.052356  0
C  C40  1  0.94440524  0.84906866  0.97043489  1  0  -0.149362  0  3.758559  0  0  -0.170138  0  4.015487  0  0  -0.174446  0  4.039202  0  0  -0.104689  -0.167227  0  3.999754  0
C  C41  1  0.55558768  0.34905976  0.52956131  1  0  -0.149217  0  3.758884  0  0  -0.17005  0  4.015818  0  0  -0.174378  0  4.039525  0  0  -0.104758  -0.16714  0  4.000083  0
C  C42  1  0.05558675  0.15093103  0.02956478  1  0  -0.149409  0  3.758481  0  0  -0.170207  0  4.015424  0  0  -0.174516  0  4.039135  0  0  -0.104729  -0.167297  0  3.999684  0
C  C43  1  0.44439137  0.65093992  0.47043649  1  0  -0.149276  0  3.75886  0  0  -0.170119  0  4.01579  0  0  -0.174421  0  4.039487  0  0  -0.104741  -0.167205  0  4.000033  0
C  C44  1  0.82004381  0.82711782  0.02520742  1  0  -0.152216  0  3.757824  0  0  -0.174413  0  4.020137  0  0  -0.179233  0  4.039885  0  0  -0.103783  -0.171166  0  4.005361  0
C  C45  1  0.67993903  0.32710502  0.47479156  1  0  -0.152402  0  3.757955  0  0  -0.174653  0  4.020331  0  0  -0.179465  0  4.040065  0  0  -0.103772  -0.171424  0  4.005508  0
C  C46  1  0.17995591  0.17288418  0.97479233  1  0  -0.15219  0  3.757832  0  0  -0.174404  0  4.020156  0  0  -0.179213  0  4.039901  0  0  -0.103798  -0.171154  0  4.00538  0
C  C47  1  0.32005809  0.67289158  0.52520730  1  0  -0.152303  0  3.757836  0  0  -0.174516  0  4.02018  0  0  -0.179322  0  4.039931  0  0  -0.103729  -0.171263  0  4.005384  0
C  C48  1  0.75122889  0.72360217  0.03099229  1  0  0.071304  0  3.768616  0  0  0.047004  0  4.04737  0  0  0.062385  0  4.071903  0  0  0.088392  0.044063  0  4.032044  0
C  C49  1  0.74875393  0.22359500  0.46901093  1  0  0.071481  0  3.768383  0  0  0.04721  0  4.046957  0  0  0.062613  0  4.071476  0  0  0.088489  0.044271  0  4.031625  0
C  C50  1  0.24877087  0.27639597  0.96900875  1  0  0.071227  0  3.768563  0  0  0.046948  0  4.047312  0  0  0.062345  0  4.071843  0  0  0.088363  0.044008  0  4.031976  0
C  C51  1  0.25123809  0.77639929  0.53098960  1  0  0.071467  0  3.76829  0  0  0.047137  0  4.047054  0  0  0.062539  0  4.071583  0  0  0.088421  0.044202  0  4.031719  0
C  C52  1  0.44536963  0.55232724  0.12875528  1  0  0.204832  0  3.685448  0  0  0.152077  0  3.976329  0  0  0.164794  0  3.98479  0  0  0.145037  0.144155  0  3.968214  0
C  C53  1  0.05462652  0.05232223  0.37124653  1  0  0.205001  0  3.685307  0  0  0.152223  0  3.976206  0  0  0.16494  0  3.984681  0  0  0.145106  0.144301  0  3.968098  0
C  C54  1  0.55463526  0.44767706  0.87124496  1  0  0.204898  0  3.68521  0  0  0.152184  0  3.976052  0  0  0.164903  0  3.98452  0  0  0.145058  0.144265  0  3.967945  0
C  C55  1  0.94537580  0.94767591  0.62875368  1  0  0.204954  0  3.685231  0  0  0.152209  0  3.976109  0  0  0.164929  0  3.984581  0  0  0.145105  0.14429  0  3.967991  0
C  C56  1  0.44124953  0.71720902  0.12059982  1  0  0.188555  0  3.595595  0  0  0.115361  0  3.857833  0  0  0.141539  0  3.870996  0  0  0.164088  0.104958  0  3.851258  0
C  C57  1  0.05872518  0.21720469  0.37940118  1  0  0.188489  0  3.595351  0  0  0.115153  0  3.857728  0  0  0.141345  0  3.870827  0  0  0.164017  0.104761  0  3.851069  0
C  C58  1  0.55875020  0.28279220  0.87939992  1  0  0.18854  0  3.595594  0  0  0.115331  0  3.857807  0  0  0.141521  0  3.870974  0  0  0.164073  0.104938  0  3.851223  0
C  C59  1  0.94126938  0.78279345  0.62059808  1  0  0.188384  0  3.595496  0  0  0.115177  0  3.857727  0  0  0.141367  0  3.870901  0  0  0.164046  0.104786  0  3.851135  0
S  S60  1  0.84220936  0.65023395  0.97184156  1  0  0.148577  0  2.581411  0  0  0.122434  0  2.951797  0  0  0.124212  0  2.952781  0  0  0.128566  0.120913  0  2.949459  0
S  S61  1  0.65778633  0.15023149  0.52816355  1  0  0.148668  0  2.581321  0  0  0.122454  0  2.951707  0  0  0.12423  0  2.952683  0  0  0.128509  0.120937  0  2.949358  0
S  S62  1  0.15779295  0.34976573  0.02815865  1  0  0.148561  0  2.581432  0  0  0.122423  0  2.951849  0  0  0.124199  0  2.952828  0  0  0.128554  0.120914  0  2.949495  0
S  S63  1  0.34221861  0.84976819  0.47183798  1  0  0.148566  0  2.58138  0  0  0.122402  0  2.95179  0  0  0.124179  0  2.952767  0  0  0.12851  0.120893  0  2.949436  0
N  N64  1  0.32074397  0.77616819  0.80105890  1  0  -0.388174  0  3.354153  0  0  -0.30274  0  3.672847  0  0  -0.324772  0  3.683332  0  0  -0.371608  -0.287843  0  3.665315  0
N  N65  1  0.17926507  0.27617235  0.69894204  1  0  -0.388179  0  3.354263  0  0  -0.302759  0  3.672908  0  0  -0.324792  0  3.683395  0  0  -0.371621  -0.287869  0  3.66539  0
N  N66  1  0.67925835  0.22383303  0.19894131  1  0  -0.388139  0  3.353969  0  0  -0.302702  0  3.672626  0  0  -0.324734  0  3.683098  0  0  -0.371576  -0.287804  0  3.665085  0
N  N67  1  0.82072691  0.72383119  0.30105719  1  0  -0.388085  0  3.353935  0  0  -0.302651  0  3.672628  0  0  -0.324684  0  3.683086  0  0  -0.371575  -0.287751  0  3.66507  0
N  N68  1  0.02582070  0.66274762  0.85156589  1  0  -0.254897  0  2.852071  0  0  -0.245936  0  3.118627  0  0  -0.25503  0  3.132772  0  0  -0.214622  -0.239596  0  3.10914  0
N  N69  1  0.47416989  0.16274999  0.64843524  1  0  -0.254834  0  2.852089  0  0  -0.24589  0  3.118629  0  0  -0.254985  0  3.132774  0  0  -0.214644  -0.239547  0  3.109137  0
N  N70  1  0.97417384  0.33725206  0.14843293  1  0  -0.254867  0  2.852063  0  0  -0.245908  0  3.118625  0  0  -0.255001  0  3.132764  0  0  -0.214637  -0.239565  0  3.109131  0
N  N71  1  0.52580659  0.83725046  0.35156296  1  0  -0.254886  0  2.852268  0  0  -0.245943  0  3.118826  0  0  -0.255037  0  3.132971  0  0  -0.214704  -0.239595  0  3.109333  0
N  N72  1  0.08842216  0.75167353  0.88256659  1  0  0.026526  0  3.641283  0  0  0.14113  0  3.823229  0  0  0.130038  0  3.847866  0  0  -0.121424  0.147524  0  3.808049  0
N  N73  1  0.41158629  0.25167609  0.61743615  1  0  0.026493  0  3.641388  0  0  0.1411  0  3.823239  0  0  0.130009  0  3.847877  0  0  -0.121404  0.147489  0  3.808064  0
N  N74  1  0.91158014  0.24832538  0.11743319  1  0  0.026548  0  3.641351  0  0  0.141179  0  3.823232  0  0  0.130088  0  3.847868  0  0  -0.121401  0.147549  0  3.80809  0
N  N75  1  0.58840313  0.74832744  0.38256348  1  0  0.026591  0  3.641205  0  0  0.141214  0  3.823079  0  0  0.130122  0  3.847711  0  0  -0.121284  0.147578  0  3.807953  0
N  N76  1  0.60604997  0.67468017  0.07710130  1  0  0.024469  0  3.648169  0  0  0.141243  0  3.823267  0  0  0.098682  0  3.888696  0  0  -0.123029  0.148772  0  3.806397  0
N  N77  1  0.89394187  0.17467080  0.42290176  1  0  0.024325  0  3.64786  0  0  0.141391  0  3.822611  0  0  0.098787  0  3.888064  0  0  -0.122995  0.148885  0  3.805802  0
N  N78  1  0.39394978  0.32532259  0.92289931  1  0  0.024643  0  3.647882  0  0  0.141385  0  3.823008  0  0  0.098783  0  3.888486  0  0  -0.122932  0.148876  0  3.806219  0
N  N79  1  0.10606046  0.82532657  0.57709888  1  0  0.024536  0  3.647691  0  0  0.141412  0  3.822678  0  0  0.098799  0  3.88816  0  0  -0.122982  0.148897  0  3.805887  0
N  N80  1  0.60961831  0.56929103  0.08158481  1  0  -0.263342  0  2.851966  0  0  -0.26744  0  3.133753  0  0  -0.265292  0  3.152265  0  0  -0.224508  -0.262172  0  3.125069  0
N  N81  1  0.89038623  0.06928400  0.41841918  1  0  -0.263464  0  2.851865  0  0  -0.267676  0  3.133642  0  0  -0.265499  0  3.15213  0  0  -0.224576  -0.262399  0  3.124957  0
N  N82  1  0.39038662  0.43070943  0.91841672  1  0  -0.263421  0  2.851866  0  0  -0.267529  0  3.133699  0  0  -0.265352  0  3.152184  0  0  -0.224515  -0.262247  0  3.125011  0
N  N83  1  0.10962383  0.93071259  0.58158154  1  0  -0.263501  0  2.851853  0  0  -0.267658  0  3.13368  0  0  -0.265478  0  3.152165  0  0  -0.224599  -0.262384  0  3.125004  0
N  N84  1  0.33829022  0.64115586  0.15417703  1  0  -0.387156  0  3.323584  0  0  -0.300852  0  3.632907  0  0  -0.322483  0  3.639329  0  0  -0.370754  -0.285872  0  3.625335  0
N  N85  1  0.16169538  0.14115371  0.34582478  1  0  -0.387187  0  3.323554  0  0  -0.300808  0  3.632863  0  0  -0.322444  0  3.639284  0  0  -0.370769  -0.285822  0  3.62528  0
N  N86  1  0.66171467  0.35884536  0.84582320  1  0  -0.387263  0  3.323555  0  0  -0.300947  0  3.632872  0  0  -0.322581  0  3.639301  0  0  -0.37079  -0.285963  0  3.625312  0
N  N87  1  0.83829918  0.85884135  0.65417491  1  0  -0.387176  0  3.323553  0  0  -0.300865  0  3.632863  0  0  -0.322499  0  3.639296  0  0  -0.370769  -0.285877  0  3.625284  0
N  N88  1  0.90409859  0.04985450  0.81931826  1  0  0.700907  0  4.143076  0  0  0.750289  0  4.414483  0  0  0.765168  0  4.439866  0  0  0.092642  0.731175  0  4.41011  0
N  N89  1  0.59591236  0.54985499  0.68068262  1  0  0.701189  0  4.14279  0  0  0.750315  0  4.414469  0  0  0.765215  0  4.439832  0  0  0.092595  0.731199  0  4.410102  0
N  N90  1  0.09592709  0.95014132  0.18068738  1  0  0.701158  0  4.142783  0  0  0.750322  0  4.414438  0  0  0.765196  0  4.439794  0  0  0.092568  0.731206  0  4.410067  0
N  N91  1  0.40411823  0.45015086  0.31931531  1  0  0.700741  0  4.143316  0  0  0.73686  0  4.433947  0  0  0.764881  0  4.44028  0  0  0.092425  0.730816  0  4.410638  0
O  O92  1  0.87119158  0.00953199  0.76927379  1  0  -0.495331  0  1.779702  0  0  -0.481519  0  2.017616  0  0  -0.492589  0  2.012067  0  0  -0.211327  -0.47038  0  2.025075  0
O  O93  1  0.62880807  0.50953354  0.73072927  1  0  -0.495343  0  1.779416  0  0  -0.481431  0  2.017411  0  0  -0.492508  0  2.011858  0  0  -0.211264  -0.470302  0  2.02488  0
O  O94  1  0.12882896  0.99046152  0.23073223  1  0  -0.495207  0  1.779328  0  0  -0.481359  0  2.01736  0  0  -0.492428  0  2.011808  0  0  -0.211252  -0.470225  0  2.024819  0
O  O95  1  0.37120699  0.49046229  0.26926634  1  0  -0.495095  0  1.779671  0  0  -0.47685  0  2.022928  0  0  -0.492335  0  2.012052  0  0  -0.211129  -0.470113  0  2.025091  0
O  O96  1  0.77249338  0.00743965  0.86205687  1  0  -0.499939  0  1.717265  0  0  -0.500808  0  1.929241  0  0  -0.510324  0  1.927538  0  0  -0.218101  -0.490786  0  1.933977  0
O  O97  1  0.72752427  0.50743708  0.63794682  1  0  -0.500056  0  1.717325  0  0  -0.500864  0  1.929429  0  0  -0.510392  0  1.927725  0  0  -0.218119  -0.490842  0  1.934167  0
O  O98  1  0.22754523  0.99255464  0.13795021  1  0  -0.500049  0  1.717361  0  0  -0.500828  0  1.929394  0  0  -0.510343  0  1.927694  0  0  -0.218044  -0.490809  0  1.934134  0
O  O99  1  0.27252951  0.49257724  0.36205093  1  0  -0.500002  0  1.717545  0  0  -0.496448  0  1.934907  0  0  -0.510366  0  1.927919  0  0  -0.218082  -0.490791  0  1.934366  0
O  O100  1  0.07074876  0.13344921  0.82659797  1  0  -0.501611  0  1.774342  0  0  -0.498199  0  2.008474  0  0  -0.509057  0  2.005931  0  0  -0.20791  -0.487296  0  2.013868  0
O  O101  1  0.42926419  0.63344752  0.67340135  1  0  -0.501826  0  1.774385  0  0  -0.49828  0  2.008517  0  0  -0.509143  0  2.005968  0  0  -0.207925  -0.487373  0  2.013912  0
O  O102  1  0.92925104  0.86655202  0.17340437  1  0  -0.501917  0  1.774416  0  0  -0.49837  0  2.008524  0  0  -0.509241  0  2.006023  0  0  -0.207995  -0.487467  0  2.013919  0
O  O103  1  0.57075872  0.36655602  0.32659822  1  0  -0.501592  0  1.774282  0  0  -0.493712  0  2.013734  0  0  -0.508975  0  2.005856  0  0  -0.207904  -0.487187  0  2.013816  0
