# generated using pymatgen
data_Cd2H45C69N13O12
_symmetry_space_group_name_H-M   'P 1'
_cell_length_a   13.05449825
_cell_length_b   14.64709440
_cell_length_c   22.50104514
_cell_angle_alpha   75.76895604
_cell_angle_beta   73.16735236
_cell_angle_gamma   63.49602043
_symmetry_Int_Tables_number   1
_chemical_formula_structural   Cd2H45C69N13O12
_chemical_formula_sum   'Cd4 H90 C138 N26 O24'
_cell_volume   3650.99017036
_cell_formula_units_Z   2
loop_
 _symmetry_equiv_pos_site_id
 _symmetry_equiv_pos_as_xyz
  1  'x, y, z'
loop_
 _atom_site_type_symbol
 _atom_site_label
 _atom_site_symmetry_multiplicity
 _atom_site_fract_x
 _atom_site_fract_y
 _atom_site_fract_z
 _atom_site_occupancy
 _atom_site_pbe_bader_charge
 _atom_site_pbe_bader_spin_density
 _atom_site_pbe_cm5_charge
 _atom_site_pbe_ddec_charge
 _atom_site_pbe_ddec_spin_density
 _atom_site_pbe_ddec_sum_bond_order
 _atom_site_pbe_magmom
Cd  Cd0  1  0.49775055  0.77979289  0.68342729  1  1.255834  0  0.766769  0.750117  0  2.264679  0
Cd  Cd1  1  0.96029443  0.72009021  0.81694860  1  1.255287  0  0.767156  0.750919  0  2.263041  0
Cd  Cd2  1  0.50224336  0.22017722  0.31659409  1  1.255834  0  0.766755  0.750145  0  2.264646  0
Cd  Cd3  1  0.03974219  0.27988946  0.18306212  1  1.255143  0  0.767221  0.751012  0  2.263084  0
H  H4  1  0.41819602  0.01724952  0.64391235  1  0.113632  0  0.122026  0.101536  0  0.973749  0
H  H5  1  0.07909436  0.48254560  0.85615234  1  0.118143  0  0.121987  0.101616  0  0.973623  0
H  H6  1  0.58186555  0.98268363  0.35609014  1  0.112733  0  0.122103  0.10158  0  0.973725  0
H  H7  1  0.92093072  0.51745030  0.14384982  1  0.118013  0  0.121974  0.101501  0  0.973616  0
H  H8  1  0.43144798  0.17141091  0.66474022  1  0.142453  0  0.105351  0.115297  0  1.047569  0
H  H9  1  0.26728939  0.32833371  0.83525120  1  0.126062  0  0.105504  0.115398  0  1.047325  0
H  H10  1  0.56862452  0.82852687  0.33524794  1  0.141256  0  0.105269  0.115241  0  1.047586  0
H  H11  1  0.73270887  0.67164090  0.16473599  1  0.125975  0  0.105548  0.115461  0  1.047344  0
H  H12  1  0.69734312  0.96186758  0.76971833  1  0.141552  0  0.108682  0.126424  0  1.038879  0
H  H13  1  0.42869214  0.53767462  0.73077840  1  0.154071  0  0.109121  0.127064  0  1.037469  0
H  H14  1  0.30269568  0.03807586  0.23029504  1  0.141974  0  0.108548  0.126273  0  1.038963  0
H  H15  1  0.57135826  0.46226402  0.26921587  1  0.155103  0  0.109148  0.127152  0  1.03718  0
H  H16  1  0.66556050  0.81811591  0.74960581  1  0.105099  0  0.114863  0.08913  0  1.013586  0
H  H17  1  0.23292513  0.68153475  0.75073741  1  0.109848  0  0.114611  0.088882  0  1.012833  0
H  H18  1  0.33444815  0.18182616  0.25042725  1  0.105687  0  0.114873  0.089212  0  1.013578  0
H  H19  1  0.76715298  0.31842656  0.24927331  1  0.109655  0  0.114738  0.088834  0  1.012951  0
H  H20  1  0.76025346  0.09677884  0.72342077  1  0.124028  0  0.10475  0.116492  0  1.051942  0
H  H21  1  0.58019028  0.40284907  0.77695778  1  0.112933  0  0.104639  0.116069  0  1.051323  0
H  H22  1  0.23979534  0.90318516  0.27656538  1  0.124197  0  0.104741  0.116361  0  1.051492  0
H  H23  1  0.41982689  0.59712372  0.22301100  1  0.113002  0  0.10472  0.11618  0  1.050952  0
H  H24  1  0.89720505  0.15821683  0.67415303  1  0.08668  0  0.106926  0.116322  0  1.009069  0
H  H25  1  0.73021121  0.34147239  0.82611179  1  0.07865  0  0.106357  0.115581  0  1.009173  0
H  H26  1  0.10281952  0.84177854  0.32581900  1  0.086799  0  0.106781  0.1163  0  1.009017  0
H  H27  1  0.26978268  0.65852027  0.17386414  1  0.078119  0  0.106315  0.115482  0  1.009297  0
H  H28  1  0.08608601  0.15977180  0.67325078  1  0.068287  0  0.108146  0.11631  0  0.975985  0
H  H29  1  0.92022243  0.33919178  0.82682160  1  0.06252  0  0.108674  0.116982  0  0.976891  0
H  H30  1  0.91393774  0.84024639  0.32672934  1  0.068809  0  0.108349  0.116482  0  0.976047  0
H  H31  1  0.07976804  0.66082460  0.17315427  1  0.062637  0  0.108667  0.117015  0  0.97673  0
H  H32  1  0.74592752  0.80718442  0.63202086  1  0.09459  0  0.114556  0.080822  0  1.015425  0
H  H33  1  0.18486520  0.69352162  0.86767480  1  0.085257  0  0.114815  0.081254  0  1.015554  0
H  H34  1  0.25404114  0.19283254  0.36798471  1  0.094714  0  0.114581  0.080827  0  1.015411  0
H  H35  1  0.81514083  0.30647674  0.13233993  1  0.085053  0  0.11479  0.081139  0  1.015482  0
H  H36  1  0.92486736  0.75847898  0.54990367  1  0.073001  0  0.114036  0.120504  0  0.992487  0
H  H37  1  0.23330373  0.74236434  0.94964959  1  0.079724  0  0.114022  0.120863  0  0.992742  0
H  H38  1  0.07506984  0.24159670  0.45007542  1  0.073173  0  0.114028  0.12062  0  0.992185  0
H  H39  1  0.76671453  0.25764902  0.05035381  1  0.080178  0  0.114123  0.120928  0  0.99271  0
H  H40  1  0.78526402  0.59384555  0.48315366  1  0.116635  0  0.105837  0.112068  0  1.049341  0
H  H41  1  0.86226542  0.90645628  0.01687584  1  0.129528  0  0.105989  0.112166  0  1.050066  0
H  H42  1  0.21470231  0.40619012  0.51684158  1  0.116211  0  0.105808  0.11193  0  1.04925  0
H  H43  1  0.13775220  0.09356999  0.98312834  1  0.129563  0  0.106  0.112187  0  1.050244  0
H  H44  1  0.60555701  0.65821990  0.56517252  1  0.119695  0  0.117949  0.089051  0  1.012714  0
H  H45  1  0.82861760  0.84194401  0.93498701  1  0.105969  0  0.118079  0.08963  0  1.011989  0
H  H46  1  0.39442500  0.34177714  0.43484042  1  0.119981  0  0.117952  0.089031  0  1.0128  0
H  H47  1  0.17138902  0.15807160  0.06502377  1  0.105785  0  0.117964  0.08954  0  1.012153  0
H  H48  1  0.08157949  0.68404285  0.49350983  1  0.065935  0  0.110172  0.11773  0  1.014655  0
H  H49  1  0.25947940  0.81606021  0.00634102  1  0.055317  0  0.10977  0.116611  0  1.01519  0
H  H50  1  0.91834667  0.31605589  0.50646827  1  0.065316  0  0.110198  0.117622  0  1.014653  0
H  H51  1  0.74052622  0.18396086  0.99366883  1  0.054819  0  0.109813  0.116662  0  1.014999  0
H  H52  1  0.25155113  0.52468492  0.33213039  1  0.11554  0  0.107391  0.119312  0  1.036001  0
H  H53  1  0.10877780  0.97565420  0.16766546  1  0.080093  0  0.108082  0.120705  0  1.035266  0
H  H54  1  0.74840462  0.47536447  0.66786535  1  0.114903  0  0.107483  0.119477  0  1.035921  0
H  H55  1  0.89120908  0.02438138  0.83233764  1  0.079935  0  0.108119  0.120661  0  1.03535  0
H  H56  1  0.91854435  0.35012045  0.31984100  1  0.114765  0  0.119209  0.100759  0  0.997259  0
H  H57  1  0.58845445  0.14834057  0.18005479  1  0.093778  0  0.118632  0.099008  0  0.996253  0
H  H58  1  0.08145676  0.64988390  0.68016088  1  0.114746  0  0.119282  0.100767  0  0.997475  0
H  H59  1  0.41153440  0.85168784  0.81994395  1  0.094109  0  0.118687  0.099087  0  0.996209  0
H  H60  1  0.91382424  0.46183620  0.38955058  1  0.119466  0  0.108906  0.115122  0  1.01901  0
H  H61  1  0.76565872  0.03686866  0.11050842  1  0.092801  0  0.108746  0.115143  0  1.020291  0
H  H62  1  0.08614968  0.53819031  0.61044454  1  0.119992  0  0.108853  0.115009  0  1.018998  0
H  H63  1  0.23433405  0.96317363  0.88948225  1  0.092745  0  0.108683  0.11513  0  1.020257  0
H  H64  1  0.21423927  0.49422377  0.25811787  1  0.122623  0  0.107773  0.111627  0  1.052112  0
H  H65  1  0.96666971  0.00682017  0.24167126  1  0.119858  0  0.107571  0.110512  0  1.050466  0
H  H66  1  0.78573307  0.50581089  0.74187965  1  0.123194  0  0.107769  0.111542  0  1.052184  0
H  H67  1  0.03332182  0.99318427  0.75832992  1  0.119679  0  0.107559  0.110539  0  1.050445  0
H  H68  1  0.20871522  0.38124994  0.19493160  1  0.122616  0  0.117769  0.094079  0  1.010279  0
H  H69  1  0.78448346  0.11959004  0.30468768  1  0.125698  0  0.11719  0.092554  0  1.010779  0
H  H70  1  0.79129155  0.61875222  0.80507631  1  0.122359  0  0.117759  0.094124  0  1.010136  0
H  H71  1  0.21550845  0.88041173  0.69531687  1  0.12583  0  0.117145  0.092585  0  1.010885  0
H  H72  1  0.20075199  0.76702842  0.44434025  1  0.059552  0  0.107634  0.111515  0  0.985629  0
H  H73  1  0.41234134  0.73299899  0.05571308  1  0.068133  0  0.108113  0.111347  0  0.985879  0
H  H74  1  0.79921871  0.23303454  0.55565727  1  0.059036  0  0.107683  0.111739  0  0.985737  0
H  H75  1  0.58763394  0.26700972  0.94431201  1  0.068457  0  0.108247  0.111462  0  0.985787  0
H  H76  1  0.38256314  0.78190565  0.44153191  1  0.09584  0  0.108142  0.121027  0  0.997977  0
H  H77  1  0.60629211  0.71767905  0.05860393  1  0.114275  0  0.107882  0.1203  0  0.998557  0
H  H78  1  0.61742460  0.21809713  0.55849145  1  0.096593  0  0.108135  0.120953  0  0.998071  0
H  H79  1  0.39369678  0.28231664  0.94141430  1  0.114246  0  0.10785  0.120292  0  0.998658  0
H  H80  1  0.58466273  0.48692047  0.37398993  1  0.09103  0  0.10639  0.112047  0  1.002638  0
H  H81  1  0.44631984  0.01307084  0.12560105  1  0.093788  0  0.106726  0.112967  0  1.001858  0
H  H82  1  0.41526112  0.51308192  0.62601610  1  0.090133  0  0.10641  0.112318  0  1.002353  0
H  H83  1  0.55370969  0.98695186  0.87437983  1  0.093273  0  0.106813  0.112895  0  1.001821  0
H  H84  1  0.40362356  0.47447358  0.37379111  1  0.075826  0  0.102098  0.104857  0  1.042128  0
H  H85  1  0.25241871  0.02588119  0.12582415  1  0.093806  0  0.10202  0.104863  0  1.041671  0
H  H86  1  0.59628026  0.52559448  0.62620181  1  0.07616  0  0.102035  0.10464  0  1.042348  0
H  H87  1  0.74759533  0.97414774  0.87417673  1  0.095677  0  0.102059  0.105104  0  1.041421  0
H  H88  1  0.77917943  0.65644868  0.38287665  1  0.240451  0  0.129922  0.212455  0  1.033807  0
H  H89  1  0.81922918  0.84290700  0.11705240  1  0.221297  0  0.13003  0.212148  0  1.033422  0
H  H90  1  0.22085762  0.34345099  0.61712442  1  0.240715  0  0.130043  0.212656  0  1.033744  0
H  H91  1  0.18078775  0.15707155  0.88294068  1  0.221823  0  0.130063  0.212144  0  1.033348  0
H  H92  1  0.30113989  0.24958808  0.74998924  1  0.253268  0  0.120705  0.191914  0  1.092404  0
H  H93  1  0.69888271  0.75033203  0.25000680  1  0.253425  0  0.120845  0.192082  0  1.092283  0
C  C94  1  0.47744187  0.00899672  0.67247705  1  0.441026  0  0.048011  0.094758  0  3.938315  0
C  C95  1  0.15862034  0.49078785  0.82763656  1  0.457583  0  0.047479  0.093874  0  3.937684  0
C  C96  1  0.52261402  0.99094326  0.32752598  1  0.441105  0  0.047943  0.094784  0  3.938577  0
C  C97  1  0.84140717  0.50919333  0.17236029  1  0.45669  0  0.047501  0.094066  0  3.937549  0
C  C98  1  0.48506395  0.09431250  0.68418831  1  -0.017675  0  -0.075242  -0.151537  0  3.920195  0
C  C99  1  0.26327368  0.40541451  0.81590456  1  0.022555  0  -0.075003  -0.15002  0  3.921368  0
C  C100  1  0.51499581  0.90562799  0.31581002  1  -0.016694  0  -0.075262  -0.151666  0  3.920219  0
C  C101  1  0.73674267  0.59455576  0.18408024  1  0.022363  0  -0.075017  -0.149914  0  3.921924  0
C  C102  1  0.56373438  0.07958475  0.72038505  1  0.000868  0  0.021851  0.096912  0  3.941293  0
C  C103  1  0.36346741  0.42002614  0.77988315  1  -0.050434  0  0.021215  0.093263  0  3.943637  0
C  C104  1  0.43631485  0.92035749  0.27961833  1  -0.000442  0  0.021711  0.096901  0  3.941519  0
C  C105  1  0.63655815  0.57992667  0.22010049  1  -0.048793  0  0.021065  0.092757  0  3.94434  0
C  C106  1  0.63294016  0.97830503  0.74250259  1  -0.0197  0  -0.078915  -0.16223  0  3.923196  0
C  C107  1  0.35349186  0.52130562  0.75790088  1  -0.021526  0  -0.079033  -0.162032  0  3.921701  0
C  C108  1  0.36709892  0.02163624  0.25750965  1  -0.021834  0  -0.078677  -0.161974  0  3.922966  0
C  C109  1  0.64655139  0.47864472  0.24209135  1  -0.021914  0  -0.078806  -0.161641  0  3.921342  0
C  C110  1  0.61733351  0.89740251  0.73032411  1  0.43163  0  0.042151  0.086422  0  3.961842  0
C  C111  1  0.24473559  0.60226467  0.77000271  1  0.424066  0  0.041446  0.085137  0  3.961003  0
C  C112  1  0.38269545  0.10253775  0.26969745  1  0.432395  0  0.041994  0.086164  0  3.961548  0
C  C113  1  0.75532166  0.39769905  0.22999993  1  0.423858  0  0.041201  0.085109  0  3.961397  0
C  C114  1  0.57201272  0.16840518  0.73570309  1  0.490014  0  0.120273  0.202482  0  4.019083  0
C  C115  1  0.47600159  0.33120359  0.76457550  1  0.535319  0  0.121704  0.205645  0  4.016305  0
C  C116  1  0.42802984  0.83154825  0.26428888  1  0.490596  0  0.120676  0.202874  0  4.018552  0
C  C117  1  0.52402399  0.66875092  0.23540660  1  0.534842  0  0.121809  0.205895  0  4.016285  0
C  C118  1  0.68097124  0.16509342  0.73519482  1  -0.029728  0  -0.077883  -0.204416  0  3.879694  0
C  C119  1  0.58109690  0.33454891  0.76514393  1  -0.038361  0  -0.077463  -0.203888  0  3.879329  0
C  C120  1  0.31907176  0.83486797  0.26478723  1  -0.029097  0  -0.077774  -0.204024  0  3.879028  0
C  C121  1  0.41892340  0.66541874  0.23482987  1  -0.038772  0  -0.077688  -0.204085  0  3.878972  0
C  C122  1  0.68677757  0.24984068  0.75017674  1  0.007574  0  0.010956  0.12133  0  3.985691  0
C  C123  1  0.31324667  0.75013352  0.24980010  1  0.007275  0  0.010867  0.121021  0  3.985514  0
C  C124  1  0.79970458  0.24983249  0.75014283  1  -0.023183  0  -0.007686  0.058771  0  3.982679  0
C  C125  1  0.20031037  0.75016131  0.24982959  1  -0.025687  0  -0.007804  0.058567  0  3.982609  0
C  C126  1  0.90163401  0.19827989  0.70760018  1  -0.082193  0  -0.087811  -0.1268  0  3.979928  0
C  C127  1  0.80796724  0.30124911  0.79262658  1  -0.04391  0  -0.087878  -0.127493  0  3.98106  0
C  C128  1  0.09837933  0.80172396  0.29237130  1  -0.080136  0  -0.087639  -0.126605  0  3.979648  0
C  C129  1  0.19203290  0.69875049  0.20734886  1  -0.042908  0  -0.08785  -0.127389  0  3.981132  0
C  C130  1  0.00799888  0.19886866  0.70697579  1  -0.001938  0  -0.083356  -0.119891  0  3.955252  0
C  C131  1  0.91456748  0.30024655  0.79314146  1  0.012516  0  -0.083887  -0.120276  0  3.956899  0
C  C132  1  0.99200926  0.80114075  0.29300075  1  -0.0018  0  -0.083563  -0.120217  0  3.955649  0
C  C133  1  0.08542208  0.69976492  0.20683736  1  0.011569  0  -0.083873  -0.120396  0  3.956942  0
C  C134  1  0.01649813  0.24944235  0.75004216  1  0.034293  0  -0.003381  0.120727  0  4.105834  0
C  C135  1  0.98349340  0.75056648  0.24993978  1  0.03426  0  -0.003353  0.120891  0  4.106007  0
C  C136  1  0.12524879  0.24930105  0.75001568  1  -0.418817  0  -0.056805  -0.033758  0  4.15071  0
C  C137  1  0.87474523  0.75068020  0.24998074  1  -0.41755  0  -0.056608  -0.033404  0  4.150621  0
C  C138  1  0.21836322  0.24943685  0.75000343  1  0.018855  0  -0.133507  -0.282538  0  3.787459  0
C  C139  1  0.78164914  0.75050084  0.24999972  1  0.01741  0  -0.133824  -0.283028  0  3.787599  0
C  C140  1  0.75704946  0.76066989  0.59772483  1  0.462943  0  0.04583  0.097695  0  3.963761  0
C  C141  1  0.11523012  0.73987702  0.90206079  1  0.456145  0  0.045097  0.096881  0  3.961051  0
C  C142  1  0.24291772  0.23935019  0.40228016  1  0.462442  0  0.046065  0.098045  0  3.963784  0
C  C143  1  0.88477967  0.26012688  0.09795222  1  0.456897  0  0.045042  0.096947  0  3.961014  0
C  C144  1  0.85813555  0.73219690  0.55139227  1  0.016957  0  -0.078038  -0.15973  0  3.942096  0
C  C145  1  0.14170168  0.76840956  0.94832076  1  0.022931  0  -0.078017  -0.160671  0  3.940286  0
C  C146  1  0.14181156  0.26785913  0.44859872  1  0.017661  0  -0.078297  -0.160226  0  3.941662  0
C  C147  1  0.85831350  0.23160334  0.05168675  1  0.02213  0  -0.078048  -0.160589  0  3.940528  0
C  C148  1  0.87186259  0.67044822  0.50843687  1  -0.029436  0  0.014278  0.082739  0  3.94836  0
C  C149  1  0.05081150  0.82995696  0.99139396  1  -0.038519  0  0.014922  0.085361  0  3.948875  0
C  C150  1  0.12808424  0.32961183  0.49155235  1  -0.031726  0  0.014372  0.082916  0  3.947851  0
C  C151  1  0.94920222  0.17006256  0.00860899  1  -0.03805  0  0.014974  0.085203  0  3.949208  0
C  C152  1  0.77924939  0.64264429  0.51445683  1  0.017975  0  -0.077483  -0.150797  0  3.933954  0
C  C153  1  0.93627086  0.85767114  0.98553079  1  -0.02672  0  -0.078502  -0.15309  0  3.934861  0
C  C154  1  0.22071332  0.35738885  0.48554063  1  0.01969  0  -0.077469  -0.150515  0  3.933432  0
C  C155  1  0.06373967  0.14234659  0.01447466  1  -0.027095  0  -0.078431  -0.152943  0  3.935276  0
C  C156  1  0.67961474  0.67695039  0.56087284  1  0.441884  0  0.046367  0.097959  0  3.939814  0
C  C157  1  0.91717047  0.82329550  0.93919351  1  0.511118  0  0.047248  0.098993  0  3.938704  0
C  C158  1  0.32036117  0.32305628  0.43913592  1  0.442  0  0.046455  0.098174  0  3.939812  0
C  C159  1  0.08283836  0.17671725  0.06081548  1  0.510959  0  0.047394  0.099129  0  3.938954  0
C  C160  1  0.97891644  0.63378186  0.45903388  1  0.526414  0  0.120678  0.20821  0  4.022897  0
C  C161  1  0.07202971  0.86649977  0.04078084  1  0.54367  0  0.119928  0.204712  0  4.026112  0
C  C162  1  0.02101964  0.36629259  0.54094955  1  0.523965  0  0.120564  0.20774  0  4.023794  0
C  C163  1  0.92797661  0.13352529  0.95922040  1  0.543081  0  0.119735  0.204694  0  4.025632  0
C  C164  1  0.07936557  0.64714530  0.45767046  1  -0.051106  0  -0.078573  -0.212265  0  3.896709  0
C  C165  1  0.18453292  0.85309873  0.04213301  1  -0.04554  0  -0.077918  -0.209919  0  3.896244  0
C  C166  1  0.92056953  0.35293455  0.54231248  1  -0.048486  0  -0.078552  -0.211934  0  3.896275  0
C  C167  1  0.81547109  0.14692416  0.95787420  1  -0.045047  0  -0.078028  -0.210091  0  3.895749  0
C  C168  1  0.18000728  0.60891223  0.41138133  1  0.022561  0  0.012737  0.120434  0  4.005291  0
C  C169  1  0.20067191  0.89139381  0.08840483  1  0.023148  0  0.012555  0.121434  0  4.003796  0
C  C170  1  0.81993224  0.39115296  0.58860978  1  0.021482  0  0.012627  0.120321  0  4.005038  0
C  C171  1  0.79932188  0.10863030  0.91160521  1  0.023102  0  0.012626  0.121543  0  4.003583  0
C  C172  1  0.17475697  0.55721601  0.36829041  1  -0.03708  0  -0.074277  -0.198926  0  3.88312  0
C  C173  1  0.10067472  0.94307143  0.13152537  1  -0.028504  0  -0.075172  -0.201358  0  3.88514  0
C  C174  1  0.82519289  0.44283750  0.63170267  1  -0.037923  0  -0.074469  -0.198979  0  3.883344  0
C  C175  1  0.89931367  0.05696092  0.86847920  1  -0.027953  0  -0.075131  -0.201252  0  3.885436  0
C  C176  1  0.07147779  0.54605641  0.37288978  1  0.519994  0  0.121041  0.203499  0  4.017595  0
C  C177  1  0.99084684  0.95407171  0.12699045  1  0.542403  0  0.1218  0.204023  0  4.01756  0
C  C178  1  0.92847392  0.45399500  0.62710146  1  0.519808  0  0.121433  0.203409  0  4.017479  0
C  C179  1  0.00914314  0.04595609  0.87300684  1  0.542456  0  0.121752  0.204021  0  4.017533  0
C  C180  1  0.98280143  0.38357913  0.30813361  1  0.463626  0  0.041505  0.086016  0  3.95278  0
C  C181  1  0.67447734  0.11541777  0.19177574  1  0.482535  0  0.042668  0.089124  0  3.950217  0
C  C182  1  0.01719553  0.61643053  0.69186875  1  0.463446  0  0.041379  0.085931  0  3.953011  0
C  C183  1  0.32551127  0.88460449  0.80822332  1  0.481653  0  0.042518  0.088932  0  3.950276  0
C  C184  1  0.98063887  0.44543885  0.34678723  1  -0.022572  0  -0.078269  -0.156264  0  3.941975  0
C  C185  1  0.77309426  0.05365721  0.15321705  1  -0.019054  0  -0.078993  -0.158188  0  3.943117  0
C  C186  1  0.01934293  0.55458266  0.65321168  1  -0.022539  0  -0.078168  -0.155889  0  3.941784  0
C  C187  1  0.22689500  0.94637387  0.84677818  1  -0.018361  0  -0.078801  -0.158018  0  3.943  0
C  C188  1  0.06610548  0.48559690  0.33071189  1  -0.020591  0  0.015221  0.085354  0  3.954106  0
C  C189  1  0.88271382  0.01428036  0.16920879  1  0.003747  0  0.014675  0.083993  0  3.953898  0
C  C190  1  0.93386371  0.51443940  0.66928460  1  -0.02104  0  0.015128  0.08515  0  3.953777  0
C  C191  1  0.11727586  0.98573973  0.83078903  1  0.003552  0  0.014669  0.084105  0  3.95379  0
C  C192  1  0.14851328  0.46239199  0.27469659  1  -0.061737  0  -0.083801  -0.164747  0  3.944571  0
C  C193  1  0.88565137  0.03803890  0.22512270  1  -0.063074  0  -0.083114  -0.16212  0  3.937868  0
C  C194  1  0.85146406  0.53763714  0.72530257  1  -0.063319  0  -0.083859  -0.164827  0  3.944508  0
C  C195  1  0.11433720  0.96196993  0.77488020  1  -0.063208  0  -0.083111  -0.162204  0  3.937822  0
C  C196  1  0.14490347  0.39987573  0.23853668  1  0.490807  0  0.042325  0.090855  0  3.954757  0
C  C197  1  0.78308192  0.10041062  0.26120129  1  0.500194  0  0.042387  0.090473  0  3.954411  0
C  C198  1  0.85509550  0.60013294  0.76146769  1  0.492228  0  0.042328  0.090855  0  3.95425  0
C  C199  1  0.21691128  0.89959350  0.73880278  1  0.500655  0  0.042484  0.090421  0  3.954487  0
C  C200  1  0.28814703  0.61921988  0.40965713  1  -0.03522  0  -0.01003  0.053249  0  3.996533  0
C  C201  1  0.31740955  0.88099763  0.09015099  1  -0.054565  0  -0.010226  0.050745  0  3.995664  0
C  C202  1  0.71179209  0.38084263  0.59033748  1  -0.04238  0  -0.009888  0.05345  0  3.996459  0
C  C203  1  0.68258608  0.11901905  0.90986410  1  -0.055472  0  -0.010451  0.050462  0  3.996044  0
C  C204  1  0.28463546  0.70511231  0.42893454  1  -0.001888  0  -0.083878  -0.117895  0  3.967362  0
C  C205  1  0.41899487  0.79491879  0.07102254  1  0.025129  0  -0.083328  -0.114492  0  3.964613  0
C  C206  1  0.71532600  0.29493654  0.57106615  1  -0.00033  0  -0.083919  -0.11825  0  3.968174  0
C  C207  1  0.58099178  0.20508984  0.92899629  1  0.02496  0  -0.083297  -0.114337  0  3.964542  0
C  C208  1  0.38707086  0.71446250  0.42684534  1  -0.023953  0  -0.075657  -0.104729  0  3.923498  0
C  C209  1  0.52876578  0.78533544  0.07314874  1  -0.012446  0  -0.076096  -0.106453  0  3.924149  0
C  C210  1  0.61290635  0.28555634  0.57316398  1  -0.025489  0  -0.075688  -0.104598  0  3.923792  0
C  C211  1  0.47122563  0.21466509  0.92686717  1  -0.012992  0  -0.076181  -0.106641  0  3.924297  0
C  C212  1  0.49670127  0.63638648  0.40622830  1  0.055505  0  0.00281  0.120941  0  4.088269  0
C  C213  1  0.53984752  0.86343017  0.09361384  1  0.027799  0  0.003484  0.124777  0  4.086738  0
C  C214  1  0.50327062  0.36362031  0.59377930  1  0.054928  0  0.002972  0.121018  0  4.088334  0
C  C215  1  0.46015683  0.13657579  0.90638733  1  0.028543  0  0.003356  0.124543  0  4.087127  0
C  C216  1  0.50053193  0.54879337  0.38867927  1  0.015262  0  -0.07783  -0.107544  0  3.936605  0
C  C217  1  0.43858968  0.95122032  0.11101954  1  0.007947  0  -0.078223  -0.109579  0  3.938949  0
C  C218  1  0.49940977  0.45122842  0.61132425  1  0.015947  0  -0.07807  -0.108175  0  3.936971  0
C  C219  1  0.56142373  0.04879694  0.88897615  1  0.008214  0  -0.078244  -0.109355  0  3.938955  0
C  C220  1  0.39788037  0.54164904  0.38931506  1  -0.071188  0  -0.087341  -0.123147  0  3.976818  0
C  C221  1  0.32932170  0.95856506  0.11040048  1  -0.054839  0  -0.087354  -0.122099  0  3.975016  0
C  C222  1  0.60204576  0.45840371  0.61068502  1  -0.063334  0  -0.087188  -0.122693  0  3.976656  0
C  C223  1  0.67068571  0.04145416  0.88960529  1  -0.056192  0  -0.087314  -0.122237  0  3.975154  0
C  C224  1  0.60331295  0.64532031  0.40023086  1  -0.586351  0  -0.03901  0.002639  0  4.131962  0
C  C225  1  0.64949529  0.85431568  0.09958827  1  -0.555247  0  -0.039897  -0.002776  0  4.134438  0
C  C226  1  0.39667870  0.35465187  0.59977860  1  -0.562908  0  -0.038927  0.003014  0  4.131884  0
C  C227  1  0.35051796  0.14568232  0.90040173  1  -0.555374  0  -0.039702  -0.00248  0  4.134558  0
C  C228  1  0.69653712  0.65160949  0.39108393  1  0.177442  0  -0.133992  -0.304508  0  3.772362  0
C  C229  1  0.73997162  0.84790391  0.10869470  1  0.141066  0  -0.133255  -0.30074  0  3.773524  0
C  C230  1  0.30347940  0.34831925  0.60892407  1  0.15431  0  -0.134214  -0.305066  0  3.772623  0
C  C231  1  0.26005101  0.15208312  0.89129066  1  0.140583  0  -0.133359  -0.300854  0  3.77353  0
N  N232  1  0.54098815  0.91210003  0.69585897  1  -1.235797  0  -0.33727  -0.252869  0  3.547205  0
N  N233  1  0.14858473  0.58768331  0.80436908  1  -1.25157  0  -0.335821  -0.251022  0  3.543514  0
N  N234  1  0.45904362  0.08784280  0.30416005  1  -1.233891  0  -0.337143  -0.252767  0  3.547189  0
N  N235  1  0.85146247  0.41229626  0.19563550  1  -1.252349  0  -0.335829  -0.251194  0  3.543793  0
N  N236  1  0.47048690  0.24980105  0.75010949  1  -1.175217  0  -0.296621  -0.323339  0  3.279129  0
N  N237  1  0.52954812  0.75014320  0.24988257  1  -1.174464  0  -0.296776  -0.323596  0  3.279188  0
N  N238  1  0.66853180  0.73378296  0.60295291  1  -1.230949  0  -0.328017  -0.236156  0  3.497017  0
N  N239  1  0.00493106  0.76651226  0.89705972  1  -1.245741  0  -0.327891  -0.235772  0  3.496174  0
N  N240  1  0.33145094  0.26621254  0.39706009  1  -1.230233  0  -0.328125  -0.236504  0  3.497425  0
N  N241  1  0.99507910  0.23349087  0.10295333  1  -1.245929  0  -0.328011  -0.235938  0  3.49628  0
N  N242  1  0.97501621  0.58441714  0.41710657  1  -1.183387  0  -0.304639  -0.335808  0  3.300836  0
N  N243  1  0.97692469  0.91573647  0.08276537  1  -1.2155  0  -0.304523  -0.33396  0  3.299429  0
N  N244  1  0.02493179  0.41564390  0.58288056  1  -1.181584  0  -0.304811  -0.335625  0  3.301248  0
N  N245  1  0.02307569  0.08429296  0.91723095  1  -1.214631  0  -0.304387  -0.333987  0  3.299266  0
N  N246  1  0.06404693  0.35998698  0.25492568  1  -1.234284  0  -0.33172  -0.24652  0  3.509845  0
N  N247  1  0.67868308  0.13963393  0.24485489  1  -1.237522  0  -0.331276  -0.245476  0  3.508747  0
N  N248  1  0.93595977  0.64001373  0.74508153  1  -1.234694  0  -0.33159  -0.246379  0  3.509427  0
N  N249  1  0.32130668  0.86037400  0.75514927  1  -1.237834  0  -0.331375  -0.245521  0  3.508856  0
N  N250  1  0.36680409  0.80875475  0.59276197  1  0.793131  0  0.08933  0.71385  0  4.407973  0
N  N251  1  0.76731391  0.69141644  0.90734699  1  0.802805  0  0.088298  0.712052  0  4.407909  0
N  N252  1  0.63319762  0.19123788  0.40724923  1  0.792634  0  0.0894  0.713863  0  4.4083  0
N  N253  1  0.23271451  0.30856423  0.09265468  1  0.803104  0  0.088317  0.712089  0  4.407236  0
N  N254  1  0.57461102  0.60849193  0.78158971  1  0.791736  0  0.09065  0.707131  0  4.423143  0
N  N255  1  0.96392573  0.89140182  0.71868758  1  0.804272  0  0.089116  0.70448  0  4.424371  0
N  N256  1  0.42536948  0.39147580  0.21843944  1  0.826594  0  0.090468  0.706623  0  4.424359  0
N  N257  1  0.03609375  0.10857244  0.28131674  1  0.805665  0  0.089508  0.704855  0  4.424072  0
O  O258  1  0.40386009  0.72410623  0.63106813  1  -0.585279  0  -0.228577  -0.474135  0  1.955166  0
O  O259  1  0.75779833  0.77622326  0.86925017  1  -0.588953  0  -0.22801  -0.474009  0  1.953481  0
O  O260  1  0.59612001  0.27588955  0.36894927  1  -0.58464  0  -0.228607  -0.474027  0  1.955301  0
O  O261  1  0.24221223  0.22375807  0.13075250  1  -0.58868  0  -0.228038  -0.474042  0  1.953384  0
O  O262  1  0.38740395  0.88382562  0.59834202  1  -0.559703  0  -0.227154  -0.479444  0  1.929985  0
O  O263  1  0.86874917  0.61638529  0.90170522  1  -0.560289  0  -0.227358  -0.479867  0  1.930581  0
O  O264  1  0.61260979  0.11616029  0.40166761  1  -0.559506  0  -0.227114  -0.4795  0  1.929929  0
O  O265  1  0.13129128  0.38360686  0.09829627  1  -0.559977  0  -0.227356  -0.479877  0  1.930187  0
O  O266  1  0.31421777  0.81548387  0.55314351  1  -0.460887  0  -0.178535  -0.405278  0  1.90258  0
O  O267  1  0.68195648  0.68436971  0.94684495  1  -0.466992  0  -0.177409  -0.403222  0  1.903018  0
O  O268  1  0.68579185  0.18451080  0.44686307  1  -0.461304  0  -0.17863  -0.405334  0  1.902742  0
O  O269  1  0.31808194  0.31559176  0.05315741  1  -0.467874  0  -0.177415  -0.403213  0  1.902834  0
O  O270  1  0.55973983  0.60257359  0.72822791  1  -0.586739  0  -0.214771  -0.469609  0  2.030746  0
O  O271  1  0.89027480  0.89734562  0.77220111  1  -0.604361  0  -0.214718  -0.469283  0  2.032124  0
O  O272  1  0.44025715  0.39742699  0.27178755  1  -0.587566  0  -0.214808  -0.46949  0  2.030959  0
O  O273  1  0.10975317  0.10262902  0.22780670  1  -0.604504  0  -0.214912  -0.469477  0  2.03217  0
O  O274  1  0.56662518  0.69444740  0.78975866  1  -0.553585  0  -0.197869  -0.460075  0  1.993006  0
O  O275  1  0.05021421  0.80552437  0.71044883  1  -0.550427  0  -0.196537  -0.458808  0  1.994667  0
O  O276  1  0.43331337  0.30551282  0.21030439  1  -0.553579  0  -0.197664  -0.459798  0  1.993525  0
O  O277  1  0.94981347  0.19445429  0.28955721  1  -0.551281  0  -0.196611  -0.458841  0  1.99448  0
O  O278  1  0.59748616  0.53134181  0.82211085  1  -0.474571  0  -0.17858  -0.407709  0  1.900652  0
O  O279  1  0.94951448  0.96849847  0.67809583  1  -0.473586  0  -0.178361  -0.406857  0  1.899608  0
O  O280  1  0.40252418  0.46859332  0.17789471  1  -0.508706  0  -0.178587  -0.407638  0  1.901061  0
O  O281  1  0.05048762  0.03147235  0.32190500  1  -0.473984  0  -0.178504  -0.407067  0  1.899658  0
