# generated using pymatgen
data_Zn4H39C44N17O2
_symmetry_space_group_name_H-M   'P 1'
_cell_length_a   14.91501872
_cell_length_b   14.87599617
_cell_length_c   14.91291775
_cell_angle_alpha   93.93900780
_cell_angle_beta   117.63386943
_cell_angle_gamma   117.70379948
_symmetry_Int_Tables_number   1
_chemical_formula_structural   Zn4H39C44N17O2
_chemical_formula_sum   'Zn4 H39 C44 N17 O2'
_cell_volume   2418.81912351
_cell_formula_units_Z   1
loop_
 _symmetry_equiv_pos_site_id
 _symmetry_equiv_pos_as_xyz
  1  'x, y, z'
loop_
 _atom_site_type_symbol
 _atom_site_label
 _atom_site_symmetry_multiplicity
 _atom_site_fract_x
 _atom_site_fract_y
 _atom_site_fract_z
 _atom_site_occupancy
 _atom_site_pbe_bader_charge
 _atom_site_pbe_bader_spin_density
 _atom_site_pbe_cm5_charge
 _atom_site_pbe_ddec_charge
 _atom_site_pbe_ddec_spin_density
 _atom_site_pbe_ddec_sum_bond_order
 _atom_site_pbe_magmom
Zn  Zn0  1  0.34895015  0.99609757  0.85414506  1  1.19084  0  0.743208  0.609097  0  2.457536  0
Zn  Zn1  1  0.65384685  0.99726048  0.15644068  1  1.187894  0  0.741691  0.609853  0  2.442662  0
Zn  Zn2  1  0.35309070  0.84771338  0.00527340  1  1.187943  0  0.738528  0.605055  0  2.448817  0
Zn  Zn3  1  0.64991273  0.14497657  0.00344462  1  1.186638  0  0.740087  0.604093  0  2.458395  0
H  H4  1  0.33236632  0.17117077  0.98010887  1  0.090365  0  0.110628  0.095839  0  1.026345  0
H  H5  1  0.67091479  0.14061925  0.34724130  1  0.079483  0  0.115827  0.104443  0  1.003516  0
H  H6  1  0.30402386  0.76374600  0.18965135  1  0.111592  0  0.115888  0.105124  0  0.995846  0
H  H7  1  0.69830034  0.37893388  0.97092267  1  0.057733  0  0.114346  0.100384  0  1.006873  0
H  H8  1  0.69974631  0.95283616  0.38613777  1  0.085442  0  0.116497  0.103554  0  1.000101  0
H  H9  1  0.30276166  0.18109329  0.77615735  1  0.126594  0  0.114171  0.104648  0  1.009872  0
H  H10  1  0.67592856  0.33980286  0.14802573  1  0.092309  0  0.112004  0.094856  0  1.027322  0
H  H11  1  0.32895855  0.96822517  0.17558790  1  0.073174  0  0.114537  0.099413  0  1.013736  0
H  H12  1  0.29925120  0.82235691  0.66140803  1  0.105297  0  0.115632  0.10481  0  1.004334  0
H  H13  1  0.70223916  0.84443846  0.04715918  1  0.065726  0  0.112657  0.098335  0  1.019775  0
H  H14  1  0.08339203  0.61310891  0.82115178  1  0.080275  0  0.114855  0.103072  0  0.997438  0
H  H15  1  0.91789256  0.22908031  0.03744008  1  0.080569  0  0.11534  0.103564  0  0.997192  0
H  H16  1  0.93153822  0.04815488  0.25302895  1  0.076467  0  0.117694  0.105056  0  0.996477  0
H  H17  1  0.07415013  0.81621701  0.62724238  1  0.080965  0  0.11698  0.104616  0  0.9956  0
H  H18  1  0.69636492  0.02102329  0.86138125  1  0.093092  0  0.114929  0.100579  0  1.014111  0
H  H19  1  0.30567647  0.64751926  0.84909904  1  0.101919  0  0.109585  0.093158  0  1.028031  0
H  H20  1  0.62163136  0.50448987  0.82783188  1  0.072764  0  0.093592  0.098121  0  0.998296  0
H  H21  1  0.69693462  0.53338320  0.96901061  1  0.01139  0  0.089457  0.085413  0  0.989512  0
H  H22  1  0.70077695  0.69029741  0.99458456  1  0.031133  0  0.089133  0.085231  0  0.987453  0
H  H23  1  0.62495123  0.66276187  0.85341036  1  0.033566  0  0.096105  0.098391  0  0.972243  0
H  H24  1  0.40182535  0.54510764  0.73218786  1  0.051914  0  0.105323  0.114618  0  0.980655  0
H  H25  1  0.42075907  0.38396364  0.97419938  1  0.025114  0  0.088429  0.082951  0  0.991667  0
H  H26  1  0.58182078  0.46681148  0.05296908  1  0.016417  0  0.092394  0.091075  0  0.982908  0
H  H27  1  0.57482241  0.62029312  0.07599822  1  0.036688  0  0.091222  0.090885  0  0.981382  0
H  H28  1  0.41428246  0.53856252  0.98996450  1  0.015834  0  0.088558  0.08611  0  0.983336  0
H  H29  1  0.30497503  0.34549374  0.78263838  1  0.077044  0  0.117192  0.081813  0  0.968019  0
H  H30  1  0.30713791  0.50195819  0.78184244  1  0.019849  0  0.095924  0.100301  0  0.982293  0
H  H31  1  0.88760672  0.64640804  0.47112018  1  0.017048  0  0.091672  0.086565  0  1.001659  0
H  H32  1  0.91276411  0.49823709  0.60139840  1  0.022438  0  0.09632  0.096884  0  1.00215  0
H  H33  1  0.76315876  0.48993889  0.31069389  1  0.024706  0  0.090249  0.085999  0  1.007332  0
H  H34  1  0.76134290  0.35082050  0.45395997  1  0.034225  0  0.098193  0.096737  0  0.996394  0
H  H35  1  0.68235984  0.91005647  0.54028284  1  0.022463  0  0.091927  0.087904  0  1.001457  0
H  H36  1  0.40697623  0.81407818  0.40943897  1  0.037661  0  0.096205  0.09558  0  1.002671  0
H  H37  1  0.68439993  0.94504557  0.70019473  1  0.017626  0  0.093226  0.090394  0  1.000177  0
H  H38  1  0.40303997  0.80526938  0.55443665  1  0.056022  0  0.09729  0.09581  0  0.998262  0
H  H39  1  0.13262889  0.09584450  0.28227587  1  0.040993  0  0.094941  0.092463  0  0.997249  0
H  H40  1  0.08488951  0.17452047  0.08975933  1  0.018808  0  0.094081  0.092464  0  1.006174  0
H  H41  1  0.25484720  0.05563222  0.24872812  1  0.025247  0  0.094271  0.091698  0  0.997464  0
H  H42  1  0.24210705  0.18811490  0.09911652  1  0.03366  0  0.095108  0.092223  0  1.001749  0
C  C43  1  0.33621021  0.11286073  0.01920278  1  0.407219  0  0.005319  -0.054402  0  3.963446  0
C  C44  1  0.66732267  0.17576751  0.28514939  1  0.416514  0  0.009335  -0.05184  0  3.949941  0
C  C45  1  0.40114813  0.81189870  0.22233566  1  0.333586  0  0.000467  -0.073079  0  4.008624  0
C  C46  1  0.60117649  0.31516102  0.92462625  1  0.420503  0  -0.000941  -0.064945  0  4.018701  0
C  C47  1  0.60269998  0.90742040  0.32262850  1  0.39517  0  0.00422  -0.062744  0  3.985967  0
C  C48  1  0.39986344  0.21459381  0.82637077  1  0.367784  0  -0.00285  -0.065887  0  4.015541  0
C  C49  1  0.67022105  0.27800987  0.18403155  1  0.385018  0  0.00908  -0.044739  0  3.940492  0
C  C50  1  0.33426082  0.00948552  0.11917687  1  0.413396  0  0.010467  -0.042632  0  3.934584  0
C  C51  1  0.31464218  0.09248676  0.10053162  1  0.01689  0  -0.038621  0.007825  0  4.121845  0
C  C52  1  0.69072266  0.27946210  0.28672136  1  0.023777  0  -0.038203  0.008382  0  4.123419  0
C  C53  1  0.50128315  0.85111816  0.32995893  1  0.045086  0  -0.042388  0.007433  0  4.152663  0
C  C54  1  0.50051169  0.32306892  0.87235751  1  -0.016371  0  -0.042858  -0.065185  0  4.036516  0
C  C55  1  0.39633873  0.87942236  0.72371251  1  0.381327  0  0.007814  -0.053059  0  3.952201  0
C  C56  1  0.60503883  0.80987661  0.00537567  1  0.415552  0  0.000413  -0.062921  0  3.981555  0
C  C57  1  0.09919651  0.67831229  0.78902292  1  0.410557  0  0.000807  -0.070183  0  4.001742  0
C  C58  1  0.90301148  0.18187337  0.08755099  1  0.393021  0  0.001772  -0.070846  0  4.006751  0
C  C59  1  0.91094934  0.09053455  0.19814696  1  0.423267  0  0.006619  -0.055698  0  3.976522  0
C  C60  1  0.09323522  0.78136193  0.68988628  1  0.404953  0  0.005666  -0.059945  0  3.979705  0
C  C61  1  0.59900745  0.98063431  0.82531148  1  0.381292  0  0.010738  -0.043926  0  3.935434  0
C  C62  1  0.40310203  0.70940404  0.90447074  1  0.370511  0  -0.001622  -0.063151  0  3.985414  0
C  C63  1  0.49784109  0.89943833  0.72237493  1  0.029336  0  -0.03946  0.007339  0  4.121225  0
C  C64  1  0.50384301  0.70468995  0.93069888  1  -0.027768  0  -0.035962  -0.053286  0  3.998234  0
C  C65  1  0.03050159  0.67203282  0.68184507  1  0.009623  0  -0.042636  0.006888  0  4.152612  0
C  C66  1  0.97323426  0.14499209  0.15124686  1  -0.008693  0  -0.041704  0.009212  0  4.147467  0
C  C67  1  0.61695531  0.52285646  0.89744700  1  -0.046683  0  -0.163676  -0.19461  0  3.867675  0
C  C68  1  0.61933327  0.62813253  0.91486001  1  -0.046754  0  -0.159069  -0.187383  0  3.855009  0
C  C69  1  0.38411301  0.40848225  0.78499598  1  0.184628  0  0.014447  -0.020593  0  3.688566  0
C  C70  1  0.49993039  0.45446894  0.98211974  1  -0.025343  0  -0.15757  -0.181749  0  3.86605  0
C  C71  1  0.50167975  0.42487738  0.88112864  1  0.05866  0  -0.00289  0.102896  0  3.817096  0
C  C72  1  0.50365384  0.60436971  0.90786845  1  0.069509  0  -0.007152  0.140764  0  3.82998  0
C  C73  1  0.39247246  0.51661103  0.79531380  1  0.007126  0  -0.154251  -0.235376  0  3.843439  0
C  C74  1  0.49755955  0.55662197  0.99573474  1  -0.026833  0  -0.161339  -0.189198  0  3.868342  0
C  C75  1  0.86757921  0.56951555  0.48380465  1  -0.092143  0  -0.109992  -0.101573  0  4.083613  0
C  C76  1  0.93065684  0.57415998  0.58720304  1  0.030598  0  -0.102427  -0.132135  0  4.0484  0
C  C77  1  0.78531195  0.47368718  0.38605730  1  -0.022074  0  -0.112672  -0.111334  0  4.082542  0
C  C78  1  0.74384682  0.36904118  0.38001258  1  -0.021444  0  -0.095447  -0.115093  0  4.029852  0
C  C79  1  0.59325349  0.87993997  0.52708261  1  0.032232  0  -0.110422  -0.10377  0  4.081804  0
C  C80  1  0.49659465  0.84419895  0.42388421  1  -0.08745  0  -0.102082  -0.129127  0  4.046361  0
C  C81  1  0.59352009  0.89384976  0.62422040  1  0.02351  0  -0.112293  -0.110999  0  4.079656  0
C  C82  1  0.49461354  0.85973080  0.62912114  1  -0.090901  0  -0.097221  -0.119064  0  4.03518  0
C  C83  1  0.14493532  0.11987472  0.21901096  1  -0.04497  0  -0.106529  -0.09893  0  4.073272  0
C  C84  1  0.07360973  0.15068143  0.15353805  1  0.00352  0  -0.101829  -0.131047  0  4.0495  0
C  C85  1  0.22741940  0.10421999  0.20562081  1  -0.022118  0  -0.109558  -0.107073  0  4.072761  0
C  C86  1  0.26325185  0.13448562  0.13793477  1  -0.041738  0  -0.098122  -0.119154  0  4.036478  0
N  N87  1  0.36341685  0.04587843  0.99098480  1  -0.769301  0  -0.284715  -0.185335  0  3.641005  0
N  N88  1  0.63842451  0.11949496  0.19060025  1  -0.830204  0  -0.28347  -0.183079  0  3.636262  0
N  N89  1  0.43959882  0.84201694  0.15718505  1  -0.778409  0  -0.272632  -0.178508  0  3.545182  0
N  N90  1  0.56343184  0.21040502  0.91110949  1  -0.741397  0  -0.273438  -0.17666  0  3.534683  0
N  N91  1  0.56549869  0.90208356  0.22002763  1  -0.799666  0  -0.2695  -0.175436  0  3.535223  0
N  N92  1  0.43785416  0.14782418  0.84953731  1  -0.838567  0  -0.27437  -0.17195  0  3.539547  0
N  N93  1  0.64008622  0.18244390  0.12862043  1  -0.73931  0  -0.279818  -0.175805  0  3.636895  0
N  N94  1  0.36225006  0.98258006  0.05254017  1  -0.816777  0  -0.279477  -0.175803  0  3.639511  0
N  N95  1  0.43498427  0.94537220  0.81826353  1  -0.81407  0  -0.283196  -0.184077  0  3.636597  0
N  N96  1  0.56636069  0.87115623  0.02272266  1  -0.713377  0  -0.283811  -0.179374  0  3.634327  0
N  N97  1  0.19437668  0.78177301  0.85454913  1  -0.789547  0  -0.271792  -0.177225  0  3.541218  0
N  N98  1  0.80763891  0.15181541  0.09561389  1  -0.790756  0  -0.274102  -0.179301  0  3.547774  0
N  N99  1  0.81227949  0.09414977  0.16419190  1  -0.790567  0  -0.270003  -0.176968  0  3.535084  0
N  N100  1  0.19059752  0.84586195  0.79235787  1  -0.810342  0  -0.270138  -0.175284  0  3.544149  0
N  N101  1  0.55945888  0.00733531  0.88051001  1  -0.769944  0  -0.279764  -0.175189  0  3.637209  0
N  N102  1  0.44232243  0.80944334  0.96074665  1  -0.847995  0  -0.282909  -0.177716  0  3.632714  0
N  N103  1  0.35853312  0.35902825  0.67624702  1  0.444285  0  0.048759  0.529064  0  4.144671  0
O  O104  1  0.42743722  0.41632930  0.65044182  1  -0.459396  0  -0.131266  -0.327805  0  1.892991  0
O  O105  1  0.27040531  0.26282794  0.62077928  1  -0.474474  0  -0.15563  -0.366796  0  1.879809  0
