# generated using pymatgen
data_Cu2H12C9SN4
_symmetry_space_group_name_H-M   'P 1'
_cell_length_a   6.83069026
_cell_length_b   12.46429198
_cell_length_c   13.76000000
_cell_angle_alpha   90.00000000
_cell_angle_beta   90.00000000
_cell_angle_gamma   97.31578497
_symmetry_Int_Tables_number   1
_chemical_formula_structural   Cu2H12C9SN4
_chemical_formula_sum   'Cu8 H48 C36 S4 N16'
_cell_volume   1161.98561973
_cell_formula_units_Z   4
loop_
 _symmetry_equiv_pos_site_id
 _symmetry_equiv_pos_as_xyz
  1  'x, y, z'
loop_
 _atom_site_type_symbol
 _atom_site_label
 _atom_site_symmetry_multiplicity
 _atom_site_fract_x
 _atom_site_fract_y
 _atom_site_fract_z
 _atom_site_occupancy
 _atom_site_hle17_bader_spin_density
 _atom_site_hle17_ddec_charge
 _atom_site_hle17_ddec_spin_density
 _atom_site_hle17_ddec_sum_bond_order
 _atom_site_hle17_magmom
 _atom_site_hse06_10hf_bader_spin_density
 _atom_site_hse06_10hf_ddec_charge
 _atom_site_hse06_10hf_ddec_spin_density
 _atom_site_hse06_10hf_ddec_sum_bond_order
 _atom_site_hse06_10hf_magmom
 _atom_site_hse06_bader_spin_density
 _atom_site_hse06_ddec_charge
 _atom_site_hse06_ddec_spin_density
 _atom_site_hse06_ddec_sum_bond_order
 _atom_site_hse06_magmom
 _atom_site_pbe_bader_charge
 _atom_site_pbe_bader_spin_density
 _atom_site_pbe_cm5_charge
 _atom_site_pbe_ddec_charge
 _atom_site_pbe_ddec_spin_density
 _atom_site_pbe_ddec_sum_bond_order
 _atom_site_pbe_magmom
Cu  Cu0  1  0.91133046  0.96402399  0.11366860  1  0  0.216955  0  2.564324  0  0  0.167694  0  3.04437  0  0  0.153152  0  3.005633  0  0.542333  0  0.352175  0.179667  0  3.069315  0
Cu  Cu1  1  0.58866804  0.53598267  0.61366570  1  0  0.216977  0  2.564552  0  0  0.167721  0  3.044613  0  0  0.15318  0  3.005887  0  0.542419  0  0.352162  0.179692  0  3.06957  0
Cu  Cu2  1  0.08866685  0.03597317  0.88633576  1  0  0.216948  0  2.564355  0  0  0.167691  0  3.044394  0  0  0.15315  0  3.005663  0  0.542375  0  0.352152  0.179664  0  3.069327  0
Cu  Cu3  1  0.41133881  0.46401773  0.38633794  1  0  0.216996  0  2.56454  0  0  0.167755  0  3.044587  0  0  0.153215  0  3.005855  0  0.542341  0  0.352171  0.179731  0  3.069527  0
Cu  Cu4  1  0.74425529  0.91399254  0.82918314  1  0  0.478643  0  2.226881  0  0  0.4514  0  2.67002  0  0  0.442486  0  2.637792  0  0.649494  0  0.517106  0.458848  0  2.690831  0
Cu  Cu5  1  0.75575649  0.58600198  0.32918096  1  0  0.478636  0  2.22696  0  0  0.451388  0  2.670125  0  0  0.442436  0  2.637881  0  0.649216  0  0.517104  0.458815  0  2.690937  0
Cu  Cu6  1  0.25574697  0.08600704  0.17081686  1  0  0.478619  0  2.226978  0  0  0.451373  0  2.670128  0  0  0.442439  0  2.637887  0  0.649588  0  0.517109  0.458815  0  2.690949  0
Cu  Cu7  1  0.24424540  0.41399599  0.67081686  1  0  0.478675  0  2.226853  0  0  0.451454  0  2.670011  0  0  0.442508  0  2.637773  0  0.649238  0  0.517116  0.458896  0  2.690838  0
H  H8  1  0.59545189  0.78362267  0.69455523  1  0  0.137367  0  0.975975  0  0  0.147155  0  1.042992  0  0  0.1491  0  1.042333  0  0.104629  0  0.091173  0.145798  0  1.043482  0
H  H9  1  0.90454714  0.71637995  0.19455887  1  0  0.137388  0  0.975983  0  0  0.147185  0  1.042998  0  0  0.149128  0  1.042334  0  0.104597  0  0.091166  0.145827  0  1.043492  0
H  H10  1  0.40454235  0.21638015  0.30544186  1  0  0.137389  0  0.976039  0  0  0.147168  0  1.043062  0  0  0.149112  0  1.042399  0  0.104604  0  0.091162  0.145811  0  1.043553  0
H  H11  1  0.09545479  0.28362449  0.80544404  1  0  0.13743  0  0.975969  0  0  0.147213  0  1.04297  0  0  0.149155  0  1.042311  0  0.104685  0  0.091188  0.145856  0  1.043464  0
H  H12  1  0.74083395  0.90621762  0.64069186  1  0  0.134127  0  0.961356  0  0  0.145893  0  1.025054  0  0  0.147603  0  1.024944  0  0.092411  0  0.096284  0.144768  0  1.025028  0
H  H13  1  0.75916876  0.59378823  0.14068895  1  0  0.134169  0  0.961353  0  0  0.145926  0  1.025063  0  0  0.147625  0  1.024958  0  0.092473  0  0.096315  0.144802  0  1.025037  0
H  H14  1  0.25917515  0.09379248  0.35931105  1  0  0.134156  0  0.961364  0  0  0.145933  0  1.025044  0  0  0.147617  0  1.024962  0  0.092602  0  0.096326  0.144808  0  1.025018  0
H  H15  1  0.24083317  0.40621621  0.85931177  1  0  0.134164  0  0.961378  0  0  0.145932  0  1.025081  0  0  0.147628  0  1.024983  0  0.092504  0  0.096319  0.144808  0  1.025057  0
H  H16  1  0.03912265  0.86751207  0.72563590  1  0  0.093812  0  0.962716  0  0  0.104236  0  1.024452  0  0  0.105603  0  1.024756  0  0.117876  0  0.097734  0.103289  0  1.024235  0
H  H17  1  0.46087514  0.63249135  0.22563227  1  0  0.093853  0  0.962663  0  0  0.104284  0  1.024387  0  0  0.105652  0  1.024689  0  0.117873  0  0.097782  0.103342  0  1.024161  0
H  H18  1  0.96087928  0.13249237  0.27436919  1  0  0.093825  0  0.96267  0  0  0.104235  0  1.024419  0  0  0.105605  0  1.024721  0  0.11786  0  0.097762  0.103294  0  1.024192  0
H  H19  1  0.53912806  0.36751228  0.77436701  1  0  0.093845  0  0.962665  0  0  0.104314  0  1.024369  0  0  0.105667  0  1.024688  0  0.117824  0  0.097764  0.103366  0  1.024157  0
H  H20  1  0.76871316  0.68063731  0.82481613  1  0  0.073986  0  0.929267  0  0  0.089062  0  0.993198  0  0  0.08921  0  0.993696  0  0.077284  0  0.104375  0.088849  0  0.992988  0
H  H21  1  0.73128238  0.81936288  0.32481686  1  0  0.073988  0  0.929307  0  0  0.089063  0  0.993238  0  0  0.089213  0  0.993731  0  0.077303  0  0.104389  0.088852  0  0.993027  0
H  H22  1  0.23128363  0.31936390  0.17518314  1  0  0.074042  0  0.92926  0  0  0.089109  0  0.99319  0  0  0.089258  0  0.993687  0  0.077289  0  0.104392  0.088882  0  0.992993  0
H  H23  1  0.26871880  0.18063832  0.67518532  1  0  0.074033  0  0.929285  0  0  0.089106  0  0.993212  0  0  0.089255  0  0.993712  0  0.077347  0  0.104404  0.08891  0  0.992985  0
H  H24  1  0.95865590  0.65382871  0.74507485  1  0  0.08931  0  0.923495  0  0  0.105964  0  0.981317  0  0  0.106116  0  0.982212  0  0.10187  0  0.112935  0.105912  0  0.980672  0
H  H25  1  0.54134148  0.84617309  0.24507558  1  0  0.089332  0  0.923435  0  0  0.105988  0  0.981264  0  0  0.106137  0  0.98216  0  0.101938  0  0.112951  0.105936  0  0.980619  0
H  H26  1  0.04134235  0.34617249  0.25492369  1  0  0.089312  0  0.923487  0  0  0.105961  0  0.981311  0  0  0.106111  0  0.982207  0  0.101887  0  0.112928  0.105908  0  0.980664  0
H  H27  1  0.45866154  0.15382973  0.75492442  1  0  0.089327  0  0.923483  0  0  0.105984  0  0.9813  0  0  0.106134  0  0.982195  0  0.101961  0  0.112943  0.10593  0  0.980658  0
H  H28  1  0.18706864  0.68742702  0.85450509  1  0  0.29574  0  0.955026  0  0  0.271495  0  1.028922  0  0  0.280498  0  1.021675  0  0.53716  0  0.299262  0.265179  0  1.03405  0
H  H29  1  0.31293189  0.81257560  0.35450654  1  0  0.295718  0  0.955057  0  0  0.271505  0  1.028922  0  0  0.280489  0  1.021692  0  0.537145  0  0.299258  0.265199  0  1.034042  0
H  H30  1  0.81292612  0.31257176  0.14549419  1  0  0.295728  0  0.954988  0  0  0.271516  0  1.028855  0  0  0.280497  0  1.021629  0  0.537145  0  0.299246  0.26521  0  1.033976  0
H  H31  1  0.68706966  0.18742722  0.64549419  1  0  0.295765  0  0.954996  0  0  0.271538  0  1.028869  0  0  0.28053  0  1.021637  0  0.53713  0  0.299275  0.265233  0  1.03399  0
H  H32  1  0.19492850  0.84079892  0.07361846  1  0  0.282814  0  0.916785  0  0  0.263334  0  0.986604  0  0  0.270455  0  0.981257  0  0.496412  0  0.299634  0.258332  0  0.990352  0
H  H33  1  0.30507255  0.65919965  0.57361701  1  0  0.282787  0  0.916807  0  0  0.26329  0  0.986619  0  0  0.270416  0  0.981273  0  0.496417  0  0.299618  0.258287  0  0.990371  0
H  H34  1  0.80506990  0.15919662  0.92638227  1  0  0.282735  0  0.916866  0  0  0.26324  0  0.986675  0  0  0.270369  0  0.981328  0  0.496378  0  0.299596  0.258237  0  0.990426  0
H  H35  1  0.69493302  0.34080155  0.42638154  1  0  0.282793  0  0.916799  0  0  0.263302  0  0.986624  0  0  0.270428  0  0.981277  0  0.49641  0  0.299609  0.258299  0  0.990372  0
H  H36  1  0.49632005  0.78215536  0.05271657  1  0  0.083725  0  0.923705  0  0  0.107837  0  0.973533  0  0  0.106685  0  0.97637  0  0.094887  0  0.110735  0.10846  0  0.971803  0
H  H37  1  0.00367699  0.71784482  0.55271730  1  0  0.083742  0  0.923673  0  0  0.107865  0  0.973501  0  0  0.106713  0  0.976335  0  0.094868  0  0.110744  0.108487  0  0.971769  0
H  H38  1  0.50367396  0.21784018  0.94728125  1  0  0.083754  0  0.923645  0  0  0.107878  0  0.973492  0  0  0.106727  0  0.976328  0  0.094822  0  0.110795  0.108501  0  0.97176  0
H  H39  1  0.99632858  0.28215638  0.44728416  1  0  0.083813  0  0.923639  0  0  0.10791  0  0.973502  0  0  0.106756  0  0.976341  0  0.09484  0  0.110797  0.108531  0  0.971771  0
H  H40  1  0.44102994  0.75481776  0.93052253  1  0  0.073969  0  0.943129  0  0  0.083217  0  1.02027  0  0  0.084847  0  1.01773  0  0.092855  0  0.106879  0.081893  0  1.022287  0
H  H41  1  0.05896582  0.74518323  0.43052035  1  0  0.074027  0  0.943042  0  0  0.08326  0  1.020207  0  0  0.084891  0  1.017665  0  0.092834  0  0.10689  0.081934  0  1.022227  0
H  H42  1  0.55896883  0.24517940  0.06947820  1  0  0.074015  0  0.943058  0  0  0.083247  0  1.020235  0  0  0.084877  0  1.017695  0  0.092839  0  0.106882  0.081923  0  1.02225  0
H  H43  1  0.94103187  0.25481554  0.56947892  1  0  0.074063  0  0.9431  0  0  0.083304  0  1.020258  0  0  0.084936  0  1.017716  0  0.09285  0  0.106907  0.081977  0  1.022278  0
H  H44  1  0.49836856  0.58388677  0.00695785  1  0  0.076167  0  0.964951  0  0  0.091775  0  1.022004  0  0  0.093097  0  1.022795  0  0.059662  0  0.099265  0.090812  0  1.021541  0
H  H45  1  0.00163433  0.91611342  0.50695640  1  0  0.076182  0  0.964989  0  0  0.091833  0  1.021987  0  0  0.093156  0  1.022779  0  0.059695  0  0.099263  0.090864  0  1.021524  0
H  H46  1  0.50163498  0.41611201  0.99304360  1  0  0.076104  0  0.964866  0  0  0.091783  0  1.021841  0  0  0.09311  0  1.022635  0  0.059773  0  0.09922  0.090813  0  1.021383  0
H  H47  1  0.99836043  0.08388536  0.49304288  1  0  0.076128  0  0.965037  0  0  0.091817  0  1.021991  0  0  0.093142  0  1.022784  0  0.059793  0  0.099231  0.090846  0  1.021531  0
H  H48  1  0.07436398  0.59257895  0.08157703  1  0  0.1234  0  0.983692  0  0  0.139385  0  1.041595  0  0  0.141606  0  1.041774  0  0.064995  0  0.092551  0.137771  0  1.04153  0
H  H49  1  0.42563853  0.90741961  0.58157776  1  0  0.12338  0  0.983694  0  0  0.139384  0  1.041578  0  0  0.141603  0  1.041759  0  0.06508  0  0.092523  0.137782  0  1.041499  0
H  H50  1  0.92563385  0.40741416  0.91842006  1  0  0.12338  0  0.983682  0  0  0.139397  0  1.041549  0  0  0.141617  0  1.041728  0  0.065072  0  0.09252  0.13779  0  1.041476  0
H  H51  1  0.57436137  0.09258240  0.41841715  1  0  0.123388  0  0.983637  0  0  0.139386  0  1.041531  0  0  0.141606  0  1.041709  0  0.065014  0  0.092516  0.13776  0  1.04148  0
H  H52  1  0.20988632  0.47296471  0.07597674  1  0  0.120908  0  0.979022  0  0  0.135336  0  1.039576  0  0  0.137815  0  1.039234  0  0.070479  0  0.091945  0.133503  0  1.039961  0
H  H53  1  0.29011517  0.02703346  0.57597384  1  0  0.12089  0  0.97907  0  0  0.135296  0  1.03965  0  0  0.137773  0  1.039312  0  0.070531  0  0.091931  0.133475  0  1.040029  0
H  H54  1  0.79011444  0.52702840  0.92402253  1  0  0.120964  0  0.979005  0  0  0.135368  0  1.039587  0  0  0.137845  0  1.039247  0  0.070439  0  0.091969  0.133544  0  1.039965  0
H  H55  1  0.70988619  0.97296855  0.42402253  1  0  0.12089  0  0.979057  0  0  0.135318  0  1.039606  0  0  0.137795  0  1.039267  0  0.070419  0  0.091952  0.133494  0  1.039982  0
C  C56  1  0.66155940  0.01242920  0.13267587  1  0  -0.032177  0  3.4295  0  0  -0.032901  0  3.774379  0  0  -0.018409  0  3.773869  0  0.719396  0  -0.039856  -0.043462  0  3.774764  0
C  C57  1  0.83843699  0.48757868  0.63266061  1  0  -0.032205  0  3.429536  0  0  -0.032921  0  3.774413  0  0  -0.018428  0  3.773909  0  0.719401  0  -0.039974  -0.043485  0  3.774804  0
C  C58  1  0.33844069  0.98757362  0.86732558  1  0  -0.032204  0  3.429682  0  0  -0.032931  0  3.774555  0  0  -0.01844  0  3.774054  0  0.719245  0  -0.039876  -0.043489  0  3.774928  0
C  C59  1  0.16156933  0.51242575  0.36734157  1  0  -0.032122  0  3.429367  0  0  -0.032872  0  3.774285  0  0  -0.018376  0  3.773775  0  0.719396  0  -0.039957  -0.043433  0  3.774666  0
C  C60  1  0.07400508  0.91652433  0.21268096  1  0  -0.142502  0  3.660435  0  0  -0.146216  0  4.042957  0  0  -0.125061  0  4.028383  0  0.621004  0  -0.079126  -0.161747  0  4.053484  0
C  C61  1  0.42599293  0.58345483  0.71268387  1  0  -0.142621  0  3.659992  0  0  -0.146362  0  4.042562  0  0  -0.125198  0  4.027993  0  0.620672  0  -0.079239  -0.161901  0  4.053097  0
C  C62  1  0.92600244  0.08346636  0.78731613  1  0  -0.142599  0  3.660361  0  0  -0.146326  0  4.042889  0  0  -0.125173  0  4.028328  0  0.620802  0  -0.079187  -0.161858  0  4.053411  0
C  C63  1  0.57400066  0.41653262  0.28731541  1  0  -0.142627  0  3.660565  0  0  -0.146356  0  4.043109  0  0  -0.125195  0  4.028533  0  0.620798  0  -0.079193  -0.161886  0  4.053632  0
C  C64  1  0.73102432  0.84027881  0.69327834  1  0  -0.298836  0  3.646719  0  0  -0.354181  0  3.929992  0  0  -0.352123  0  3.935789  0  -0.178332  0  -0.235537  -0.355392  0  3.925627  0
C  C65  1  0.76897400  0.65972704  0.19327544  1  0  -0.298891  0  3.646738  0  0  -0.354204  0  3.929927  0  0  -0.352135  0  3.935744  0  -0.178341  0  -0.235523  -0.355407  0  3.925554  0
C  C66  1  0.26898035  0.15972482  0.30672311  1  0  -0.298922  0  3.646896  0  0  -0.354244  0  3.930104  0  0  -0.352165  0  3.93593  0  -0.17858  0  -0.235606  -0.355455  0  3.92574  0
C  C67  1  0.23103195  0.34027578  0.80672674  1  0  -0.298974  0  3.646876  0  0  -0.354276  0  3.93013  0  0  -0.352198  0  3.935924  0  -0.178159  0  -0.235542  -0.35548  0  3.92576  0
C  C68  1  0.89845139  0.81854996  0.74178779  1  0  -0.086192  0  3.751782  0  0  -0.099776  0  4.033733  0  0  -0.096436  0  4.044288  0  -0.207525  0  -0.150936  -0.101932  0  4.026359  0
C  C69  1  0.60154636  0.68145346  0.24178488  1  0  -0.086176  0  3.75174  0  0  -0.099776  0  4.033729  0  0  -0.096426  0  4.044256  0  -0.207513  0  -0.150953  -0.101923  0  4.026346  0
C  C70  1  0.10155253  0.18145043  0.25821512  1  0  -0.086109  0  3.751725  0  0  -0.099686  0  4.033687  0  0  -0.096338  0  4.044214  0  -0.207429  0  -0.150902  -0.101842  0  4.026314  0
C  C71  1  0.39845373  0.31854936  0.75821802  1  0  -0.086158  0  3.751802  0  0  -0.099819  0  4.033807  0  0  -0.096452  0  4.044342  0  -0.207766  0  -0.150969  -0.101973  0  4.026439  0
C  C72  1  0.91337963  0.71448475  0.79566279  1  0  0.042963  0  3.675025  0  0  -0.016145  0  3.928565  0  0  -0.011382  0  3.940011  0  0.324164  0  -0.062634  -0.019256  0  3.920746  0
C  C73  1  0.58661902  0.78551625  0.29566279  1  0  0.04297  0  3.675029  0  0  -0.016148  0  3.928591  0  0  -0.011382  0  3.940026  0  0.323903  0  -0.062658  -0.019258  0  3.920775  0
C  C74  1  0.08661862  0.28551645  0.20433648  1  0  0.042917  0  3.675028  0  0  -0.016174  0  3.928555  0  0  -0.011413  0  3.939994  0  0.324021  0  -0.062635  -0.019273  0  3.920742  0
C  C75  1  0.41338527  0.21448576  0.70433794  1  0  0.042938  0  3.675027  0  0  -0.016175  0  3.928583  0  0  -0.011399  0  3.940022  0  0.323871  0  -0.062618  -0.019296  0  3.92077  0
C  C76  1  0.06081330  0.78570148  0.95071512  1  0  0.452627  0  3.799412  0  0  0.408863  0  4.087015  0  0  0.43301  0  4.096946  0  1.049645  0  0.254181  0.392817  0  4.079691  0
C  C77  1  0.43918411  0.71430032  0.45071439  1  0  0.452677  0  3.799293  0  0  0.408927  0  4.086857  0  0  0.433071  0  4.096796  0  1.049655  0  0.254217  0.392881  0  4.079537  0
C  C78  1  0.93918457  0.21429810  0.04928488  1  0  0.452624  0  3.799474  0  0  0.408831  0  4.087095  0  0  0.432979  0  4.097033  0  1.049619  0  0.254166  0.392786  0  4.079776  0
C  C79  1  0.56081872  0.28570169  0.54928416  1  0  0.452571  0  3.799579  0  0  0.408836  0  4.087091  0  0  0.432996  0  4.097031  0  1.049617  0  0.254156  0.392791  0  4.079775  0
C  C80  1  0.38383268  0.73902445  0.00479578  1  0  0.044083  0  3.686292  0  0  -0.01281  0  3.92791  0  0  -0.008355  0  3.941759  0  0.293797  0  -0.054149  -0.015569  0  3.918408  0
C  C81  1  0.11616417  0.76097493  0.50479506  1  0  0.044002  0  3.686243  0  0  -0.012924  0  3.927872  0  0  -0.00846  0  3.941723  0  0.293814  0  -0.054153  -0.015676  0  3.91836  0
C  C82  1  0.61616118  0.26097676  0.99520422  1  0  0.044094  0  3.68607  0  0  -0.012903  0  3.927836  0  0  -0.008439  0  3.941695  0  0.293854  0  -0.054153  -0.015659  0  3.918332  0
C  C83  1  0.88383900  0.23902223  0.49520494  1  0  0.043875  0  3.686286  0  0  -0.013106  0  3.928069  0  0  -0.008643  0  3.941918  0  0.293786  0  -0.054239  -0.015859  0  3.918557  0
C  C84  1  0.36532066  0.61989472  0.02513445  1  0  -0.032838  0  3.766584  0  0  -0.039923  0  4.024124  0  0  -0.041521  0  4.046582  0  -0.108752  0  -0.094561  -0.03886  0  4.008861  0
C  C85  1  0.13468167  0.88010304  0.52513372  1  0  -0.032876  0  3.766667  0  0  -0.039983  0  4.024201  0  0  -0.041584  0  4.046661  0  -0.108808  0  -0.094583  -0.038913  0  4.008933  0
C  C86  1  0.63468176  0.38009920  0.97486555  1  0  -0.032815  0  3.766526  0  0  -0.039908  0  4.024059  0  0  -0.041514  0  4.046525  0  -0.108586  0  -0.094568  -0.03884  0  4.008794  0
C  C87  1  0.86531804  0.11989816  0.47486628  1  0  -0.032804  0  3.76661  0  0  -0.039911  0  4.024137  0  0  -0.041514  0  4.046599  0  -0.108863  0  -0.094545  -0.038842  0  4.008864  0
C  C88  1  0.20880543  0.55896447  0.06243605  1  0  -0.276504  0  3.648349  0  0  -0.319375  0  3.882212  0  0  -0.324129  0  3.899341  0  -0.084756  0  -0.189031  -0.316028  0  3.870715  0
C  C89  1  0.29120020  0.94103491  0.56243605  1  0  -0.276425  0  3.648324  0  0  -0.319305  0  3.882216  0  0  -0.324056  0  3.899351  0  -0.084877  0  -0.188972  -0.31598  0  3.870698  0
C  C90  1  0.79119991  0.44102945  0.93756105  1  0  -0.276497  0  3.648205  0  0  -0.319403  0  3.882104  0  0  -0.324153  0  3.899236  0  -0.085014  0  -0.188993  -0.316073  0  3.870592  0
C  C91  1  0.70879989  0.05896791  0.43756105  1  0  -0.276415  0  3.648167  0  0  -0.319317  0  3.882063  0  0  -0.324068  0  3.899196  0  -0.084691  0  -0.188977  -0.315972  0  3.870566  0
S  S92  1  0.86927710  0.86214274  0.97328706  1  0  -0.386801  0  2.714142  0  0  -0.374772  0  3.197622  0  0  -0.372883  0  3.163694  0  -0.263801  0  -0.212657  -0.376946  0  3.22076  0
S  S93  1  0.63072962  0.63786148  0.47328634  1  0  -0.38684  0  2.714167  0  0  -0.374821  0  3.19764  0  0  -0.372926  0  3.163709  0  -0.263787  0  -0.212657  -0.376986  0  3.220772  0
S  S94  1  0.13072224  0.13785684  0.02671366  1  0  -0.386806  0  2.714155  0  0  -0.374774  0  3.197648  0  0  -0.37288  0  3.163715  0  -0.263855  0  -0.212666  -0.37695  0  3.220787  0
S  S95  1  0.36927925  0.36214133  0.52671294  1  0  -0.386818  0  2.714297  0  0  -0.374816  0  3.197777  0  0  -0.372922  0  3.163839  0  -0.26368  0  -0.212675  -0.37699  0  3.220926  0
N  N96  1  0.50288797  0.03668902  0.14560029  1  0  -0.408159  0  3.262935  0  0  -0.34827  0  3.579183  0  0  -0.363573  0  3.586182  0  -1.386485  0  -0.433389  -0.338288  0  3.574375  0
N  N97  1  0.99710376  0.46330510  0.64559956  1  0  -0.408177  0  3.262813  0  0  -0.348298  0  3.57906  0  0  -0.363599  0  3.586062  0  -1.386351  0  -0.433308  -0.338313  0  3.574255  0
N  N98  1  0.49710679  0.96330975  0.85440189  1  0  -0.408134  0  3.262977  0  0  -0.348252  0  3.579227  0  0  -0.363561  0  3.586238  0  -1.386421  0  -0.433364  -0.338272  0  3.57441  0
N  N99  1  0.00289960  0.53669286  0.35439753  1  0  -0.408257  0  3.262672  0  0  -0.348357  0  3.57893  0  0  -0.363657  0  3.585924  0  -1.386259  0  -0.433319  -0.338371  0  3.574111  0
N  N100  1  0.13921432  0.87220921  0.27874128  1  0  -0.38426  0  2.858673  0  0  -0.335269  0  3.109826  0  0  -0.351727  0  3.117528  0  -1.347783  0  -0.355223  -0.324108  0  3.105069  0
N  N101  1  0.36078314  0.62779906  0.77874201  1  0  -0.384165  0  2.857953  0  0  -0.335161  0  3.109109  0  0  -0.351624  0  3.116817  0  -1.347363  0  -0.35512  -0.323991  0  3.104349  0
N  N102  1  0.86079163  0.12779361  0.72126017  1  0  -0.384181  0  2.858564  0  0  -0.33518  0  3.109716  0  0  -0.35164  0  3.117426  0  -1.347488  0  -0.355167  -0.324022  0  3.104957  0
N  N103  1  0.63919334  0.37220295  0.22125727  1  0  -0.384171  0  2.858617  0  0  -0.335173  0  3.109764  0  0  -0.35163  0  3.117466  0  -1.347512  0  -0.355162  -0.324013  0  3.105003  0
N  N104  1  0.06367017  0.72495485  0.87159956  1  0  -0.392783  0  3.344983  0  0  -0.321485  0  3.580801  0  0  -0.343198  0  3.59368  0  -1.280817  0  -0.406721  -0.306926  0  3.571858  0
N  N105  1  0.43632686  0.77504534  0.37159884  1  0  -0.392802  0  3.344986  0  0  -0.321543  0  3.580789  0  0  -0.343227  0  3.593673  0  -1.28072  0  -0.406729  -0.306993  0  3.571833  0
N  N106  1  0.93632440  0.27504312  0.12839971  1  0  -0.392788  0  3.344977  0  0  -0.32152  0  3.580789  0  0  -0.343198  0  3.59367  0  -1.280707  0  -0.406678  -0.306959  0  3.571798  0
N  N107  1  0.56367322  0.22495748  0.62840116  1  0  -0.392823  0  3.345024  0  0  -0.32154  0  3.580789  0  0  -0.343261  0  3.593705  0  -1.280683  0  -0.40673  -0.30698  0  3.571807  0
N  N108  1  0.20464857  0.78887956  0.01696366  1  0  -0.379544  0  3.35149  0  0  -0.311533  0  3.58645  0  0  -0.332483  0  3.600265  0  -1.252154  0  -0.41243  -0.297405  0  3.576719  0
N  N109  1  0.29534809  0.71111901  0.51696221  1  0  -0.379549  0  3.351518  0  0  -0.311467  0  3.586434  0  0  -0.332445  0  3.600278  0  -1.252139  0  -0.412437  -0.297341  0  3.576701  0
N  N110  1  0.79535167  0.21111760  0.98303706  1  0  -0.379543  0  3.351422  0  0  -0.311422  0  3.586364  0  0  -0.332408  0  3.600215  0  -1.252102  0  -0.412443  -0.297298  0  3.576633  0
N  N111  1  0.70465290  0.28888138  0.48303706  1  0  -0.379527  0  3.351613  0  0  -0.311445  0  3.586497  0  0  -0.332421  0  3.600334  0  -1.25213  0  -0.412404  -0.297317  0  3.576764  0
