# generated using pymatgen
data_CoH22C32N4O7
_symmetry_space_group_name_H-M   'P 1'
_cell_length_a   10.03153119
_cell_length_b   14.69160403
_cell_length_c   25.01890633
_cell_angle_alpha   89.99610567
_cell_angle_beta   90.00164234
_cell_angle_gamma   105.11604869
_symmetry_Int_Tables_number   1
_chemical_formula_structural   CoH22C32N4O7
_chemical_formula_sum   'Co4 H88 C128 N16 O28'
_cell_volume   3559.68762255
_cell_formula_units_Z   4
loop_
 _symmetry_equiv_pos_site_id
 _symmetry_equiv_pos_as_xyz
  1  'x, y, z'
loop_
 _atom_site_type_symbol
 _atom_site_label
 _atom_site_symmetry_multiplicity
 _atom_site_fract_x
 _atom_site_fract_y
 _atom_site_fract_z
 _atom_site_occupancy
 _atom_site_pbe_bader_charge
 _atom_site_pbe_bader_spin_density
 _atom_site_pbe_cm5_charge
 _atom_site_pbe_ddec_charge
 _atom_site_pbe_ddec_spin_density
 _atom_site_pbe_ddec_sum_bond_order
 _atom_site_pbe_magmom
Co  Co0  1  0.52829501  0.63985733  0.97856620  1  1.297492  2.590858  0.671813  0.867974  2.832758  2.534469  2.571
Co  Co1  1  0.47171105  0.36013073  0.02142930  1  1.29814  2.590919  0.671738  0.867764  2.832865  2.534795  2.571
Co  Co2  1  0.97172472  0.86013780  0.47857366  1  1.29805  2.590744  0.67193  0.867875  2.832687  2.535649  2.571
Co  Co3  1  0.02831517  0.13987525  0.52142344  1  1.297658  2.590851  0.671895  0.867891  2.832838  2.535526  2.571
H  H4  1  0.31025748  0.62718925  0.06254076  1  0.101253  0.001592  0.116458  0.084745  0.000279  1.018973  0.001
H  H5  1  0.28667854  0.62261630  0.16155224  1  0.051322  0.001144  0.104328  0.113135  0.000526  0.998298  0.0
H  H6  1  0.72691296  0.65549596  0.17129952  1  0.117075  0.000665  0.10737  0.130983  0.000311  1.035587  0.0
H  H7  1  0.73154041  0.66009946  0.07173116  1  0.091851  0.001457  0.115995  0.084017  0.000358  1.007506  0.001
H  H8  1  0.31495767  0.60708901  0.31107523  1  0.044153  4.7e-05  0.104646  0.097634  2e-05  1.008084  0.0
H  H9  1  0.25401599  0.63921522  0.40338244  1  0.102689  5.9e-05  0.112926  0.132542  3.3e-05  0.989482  0.0
H  H10  1  0.68486365  0.71340147  0.44728461  1  0.183329  -6.6e-05  0.113524  0.149044  -0.000255  1.0461  0.0
H  H11  1  0.74671716  0.68365318  0.35421155  1  0.113774  -3.6e-05  0.107275  0.109815  -7.2e-05  1.010359  0.0
H  H12  1  0.39987053  0.79901933  0.56036976  1  0.086444  1.1e-05  0.111738  0.130182  0.0  0.99563  0.0
H  H13  1  0.46989414  0.77220166  0.65281478  1  0.046644  6.2e-05  0.103665  0.094097  2.8e-05  1.00691  0.0
H  H14  1  0.64065465  0.54924383  0.59589645  1  0.10083  -6e-06  0.107256  0.109573  -1.2e-05  1.010817  0.0
H  H15  1  0.57316001  0.57852046  0.50299174  1  0.080795  8.9e-05  0.107488  0.117924  5.6e-05  1.028889  0.0
H  H16  1  0.35107193  0.71342959  0.79396054  1  0.049347  0.001112  0.104725  0.113597  0.000505  1.00022  0.0
H  H17  1  0.36732516  0.70700421  0.89311417  1  0.109931  0.001422  0.116323  0.087263  0.000261  1.0213  0.001
H  H18  1  0.69639898  0.58757456  0.88537588  1  0.113378  0.001413  0.115109  0.086764  0.000297  1.017582  0.001
H  H19  1  0.69571939  0.58854262  0.78515845  1  0.122847  0.000663  0.108236  0.131693  0.000328  1.023004  0.0
H  H20  1  0.05715896  0.37506377  0.05555203  1  0.084318  0.000456  0.100111  0.104538  0.000189  1.031228  0.0
H  H21  1  0.81665952  0.39627542  0.05586730  1  0.08995  0.000162  0.105162  0.11423  -4e-05  1.013998  0.0
H  H22  1  0.70302557  0.13317780  0.97945583  1  0.09226  0.000435  0.097251  0.097991  0.000261  1.063474  0.0
H  H23  1  0.71606164  0.96529108  0.96711904  1  0.076638  0.000534  0.100193  0.104926  0.000282  1.011204  0.0
H  H24  1  0.39325321  0.63277700  0.24309658  1  0.451624  0.000119  0.316403  0.263209  0.0001  0.962494  0.0
H  H25  1  0.43401588  0.68233789  0.71280860  1  0.446966  0.000117  0.318381  0.265322  9.2e-05  0.953596  0.0
H  H26  1  0.68973879  0.37278255  0.93746314  1  0.10129  0.001594  0.116445  0.084819  0.00028  1.018739  0.001
H  H27  1  0.71330323  0.37737356  0.83845166  1  0.051333  0.001144  0.104336  0.11315  0.000526  0.998394  0.0
H  H28  1  0.27307431  0.34448133  0.82870717  1  0.117229  0.000665  0.107317  0.130956  0.000312  1.035501  0.0
H  H29  1  0.26843858  0.33986580  0.92827274  1  0.092278  0.00146  0.116067  0.084159  0.000359  1.007469  0.001
H  H30  1  0.68504514  0.39289831  0.68892387  1  0.043636  4.7e-05  0.104679  0.097678  2e-05  1.008134  0.0
H  H31  1  0.74598082  0.36078605  0.59661426  1  0.102141  5.9e-05  0.112936  0.132535  3.2e-05  0.989549  0.0
H  H32  1  0.31513021  0.28665872  0.55270769  1  0.183454  -6.6e-05  0.113454  0.149071  -0.000255  1.046098  0.0
H  H33  1  0.25328695  0.31639380  0.64578596  1  0.11348  -3.6e-05  0.107194  0.109849  -7.2e-05  1.010171  0.0
H  H34  1  0.60012001  0.20098116  0.43963534  1  0.086767  1.1e-05  0.11179  0.130291  0.0  0.995554  0.0
H  H35  1  0.53010416  0.22778981  0.34718831  1  0.04684  6.2e-05  0.103628  0.094076  2.8e-05  1.006915  0.0
H  H36  1  0.35936295  0.45075981  0.40409186  1  0.100828  -6e-06  0.107254  0.10946  -1.2e-05  1.010972  0.0
H  H37  1  0.42683081  0.42149477  0.49700217  1  0.08048  8.9e-05  0.107463  0.117869  5.6e-05  1.029005  0.0
H  H38  1  0.64892011  0.28656390  0.20602737  1  0.049607  0.001113  0.104739  0.113548  0.000506  1.000178  0.0
H  H39  1  0.63269869  0.29300302  0.10687733  1  0.109741  0.001426  0.116213  0.087179  0.000262  1.021218  0.001
H  H40  1  0.30359932  0.41241410  0.11460284  1  0.113108  0.001415  0.115126  0.086745  0.000297  1.017668  0.001
H  H41  1  0.30427540  0.41144741  0.21481827  1  0.122634  0.000663  0.108204  0.131664  0.000328  1.02302  0.0
H  H42  1  0.94285810  0.62490759  0.94445986  1  0.08523  0.000456  0.100185  0.104577  0.000189  1.031084  0.0
H  H43  1  0.18335954  0.60368754  0.94414259  1  0.089269  0.000161  0.105193  0.114343  -4e-05  1.013975  0.0
H  H44  1  0.29694544  0.86681824  0.02056085  1  0.091641  0.000435  0.097187  0.098086  0.000262  1.063489  0.0
H  H45  1  0.28393392  0.03471509  0.03290244  1  0.075893  0.000535  0.100185  0.10499  0.000282  1.011196  0.0
H  H46  1  0.60673358  0.36722134  0.75690932  1  0.451769  0.000119  0.316364  0.263178  9.9e-05  0.962681  0.0
H  H47  1  0.56596464  0.31764563  0.28717691  1  0.447133  0.000118  0.318349  0.265361  9.2e-05  0.953496  0.0
H  H48  1  0.18971652  0.87281885  0.56253066  1  0.101511  0.001593  0.116486  0.084824  0.000279  1.019013  0.001
H  H49  1  0.21331545  0.87738107  0.66154262  1  0.051912  0.001144  0.104277  0.113104  0.000527  0.998168  0.0
H  H50  1  0.77307098  0.84448088  0.67129549  1  0.11758  0.000665  0.107293  0.130942  0.000312  1.035678  0.0
H  H51  1  0.76843356  0.83990795  0.57172686  1  0.09183  0.001457  0.116059  0.084028  0.000358  1.007751  0.001
H  H52  1  0.18504677  0.89284700  0.81107267  1  0.043447  4.7e-05  0.104671  0.097663  2e-05  1.007948  0.0
H  H53  1  0.24598100  0.86076588  0.90339184  1  0.10213  5.9e-05  0.112995  0.132612  3.3e-05  0.989405  0.0
H  H54  1  0.81512740  0.78665080  0.94728817  1  0.183501  -6.6e-05  0.113444  0.149021  -0.000255  1.046122  0.0
H  H55  1  0.75328756  0.81634082  0.85419922  1  0.113704  -3.6e-05  0.107326  0.109884  -7.2e-05  1.010249  0.0
H  H56  1  0.10013748  0.70100347  0.06038692  1  0.086334  1.1e-05  0.111617  0.130072  1e-06  0.99552  0.0
H  H57  1  0.03014167  0.72780002  0.15283367  1  0.046302  6.2e-05  0.10356  0.094092  2.8e-05  1.006927  0.0
H  H58  1  0.85940195  0.95078370  0.09592499  1  0.102024  -6e-06  0.107215  0.109446  -1.2e-05  1.011064  0.0
H  H59  1  0.92685051  0.92153574  0.00301342  1  0.080566  8.8e-05  0.107477  0.117881  5.6e-05  1.028886  0.0
H  H60  1  0.14892155  0.78657694  0.29399563  1  0.0497  0.001113  0.104842  0.113636  0.000506  1.000181  0.0
H  H61  1  0.13269859  0.79300643  0.39314442  1  0.109251  0.001425  0.116192  0.087134  0.000262  1.021181  0.001
H  H62  1  0.80359489  0.91239970  0.38540252  1  0.113515  0.001414  0.115154  0.086676  0.000297  1.017795  0.001
H  H63  1  0.80424744  0.91143961  0.28518553  1  0.122574  0.000664  0.108158  0.131586  0.000328  1.02297  0.0
H  H64  1  0.44285023  0.12491856  0.55552152  1  0.084726  0.000457  0.100144  0.104416  0.000189  1.031194  0.0
H  H65  1  0.68337343  0.10372716  0.55582628  1  0.089378  0.000161  0.105145  0.114267  -4e-05  1.014175  0.0
H  H66  1  0.79694673  0.36682122  0.47943785  1  0.091702  0.000436  0.097162  0.098075  0.000262  1.063391  0.0
H  H67  1  0.78393223  0.53473446  0.46712174  1  0.07638  0.000534  0.100262  0.105029  0.000282  1.011215  0.0
H  H68  1  0.10675275  0.86722130  0.74308535  1  0.451598  0.000119  0.316444  0.263303  0.0001  0.962421  0.0
H  H69  1  0.06598315  0.81764402  0.21284870  1  0.446196  0.000118  0.318322  0.265441  9.2e-05  0.953349  0.0
H  H70  1  0.81026073  0.12715551  0.43746565  1  0.101547  0.001592  0.116469  0.084682  0.000278  1.019128  0.001
H  H71  1  0.78667156  0.12259552  0.33845528  1  0.051827  0.001144  0.104313  0.113178  0.000527  0.998454  0.0
H  H72  1  0.22691255  0.15551391  0.32870840  1  0.117387  0.000665  0.107347  0.131012  0.000312  1.035659  0.0
H  H73  1  0.23155173  0.16008897  0.42827304  1  0.091638  0.001455  0.116003  0.083997  0.000357  1.008035  0.001
H  H74  1  0.81496706  0.10714327  0.18893362  1  0.043992  4.7e-05  0.104704  0.097799  2e-05  1.007879  0.0
H  H75  1  0.75400479  0.13923245  0.09661965  1  0.102527  5.9e-05  0.112937  0.132571  3.3e-05  0.989318  0.0
H  H76  1  0.18484916  0.21338600  0.05271333  1  0.18355  -6.6e-05  0.113443  0.148904  -0.000255  1.046288  0.0
H  H77  1  0.24670977  0.18367871  0.14579309  1  0.114143  -3.6e-05  0.107286  0.109876  -7.2e-05  1.010267  0.0
H  H78  1  0.89983729  0.29898910  0.93961098  1  0.086317  1.1e-05  0.111558  0.130127  1e-06  0.995437  0.0
H  H79  1  0.96985212  0.27218999  0.84716742  1  0.046451  6.2e-05  0.103587  0.094199  2.8e-05  1.006807  0.0
H  H80  1  0.14065297  0.04923235  0.90409849  1  0.100888  -6e-06  0.10725  0.109461  -1.2e-05  1.010833  0.0
H  H81  1  0.07316286  0.07849522  0.99700047  1  0.080427  8.9e-05  0.107434  0.117826  5.6e-05  1.029047  0.0
H  H82  1  0.85107927  0.21342720  0.70601147  1  0.050043  0.001113  0.104806  0.113584  0.000506  1.000239  0.0
H  H83  1  0.86729797  0.20699414  0.60686467  1  0.109395  0.001422  0.116202  0.087107  0.000261  1.021283  0.001
H  H84  1  0.19639264  0.08759233  0.61459738  1  0.113302  0.001412  0.115137  0.086742  0.000296  1.017874  0.001
H  H85  1  0.19575638  0.08855894  0.71481517  1  0.1226  0.000663  0.108193  0.131755  0.000328  1.023037  0.0
H  H86  1  0.55715158  0.87507997  0.44445240  1  0.084725  0.000456  0.100215  0.104578  0.000189  1.031014  0.0
H  H87  1  0.31663315  0.89627354  0.44414684  1  0.089031  0.000161  0.10515  0.114223  -4e-05  1.013872  0.0
H  H88  1  0.20303856  0.63317570  0.52056645  1  0.091709  0.000436  0.097132  0.098087  0.000262  1.063534  0.0
H  H89  1  0.21607660  0.46526416  0.53287496  1  0.076859  0.000534  0.100224  0.104938  0.000282  1.011003  0.0
H  H90  1  0.89322828  0.13278048  0.25691655  1  0.451868  0.000119  0.316504  0.263435  0.0001  0.96237  0.0
H  H91  1  0.93400363  0.18234589  0.78716079  1  0.446591  0.000118  0.318298  0.265465  9.2e-05  0.953237  0.0
C  C92  1  0.39988080  0.63228936  0.08808425  1  0.490355  -0.007268  0.043218  0.108322  -0.008168  3.979094  -0.005
C  C93  1  0.38777073  0.63044161  0.14320174  1  -0.003167  0.004911  -0.100807  -0.251356  0.002304  3.985728  0.004
C  C94  1  0.50594209  0.63787355  0.17494865  1  0.343812  -0.008977  0.116389  0.292094  -0.009826  4.038378  -0.006
C  C95  1  0.63271098  0.64865367  0.14860948  1  0.053093  0.005029  -0.092848  -0.22551  0.002322  3.910016  0.004
C  C96  1  0.63424832  0.65038301  0.09315979  1  0.496955  -0.007418  0.051104  0.130312  -0.007952  3.940941  -0.005
C  C97  1  0.58855447  0.64055180  0.26966904  1  1.377721  -0.002229  0.239613  0.484134  -0.002683  4.10727  -0.001
C  C98  1  0.53794912  0.64748627  0.32528855  1  -0.025896  0.000126  -0.027867  -0.071706  -3.4e-05  4.018744  0.0
C  C99  1  0.39837397  0.63378379  0.33958162  1  -0.071459  -0.000472  -0.087039  -0.093513  -0.000507  4.029139  0.0
C  C100  1  0.36156307  0.64965739  0.39165132  1  0.012633  0.000148  -0.097607  -0.192465  6.7e-05  3.978933  0.0
C  C101  1  0.46522138  0.67936978  0.43008185  1  0.37169  -0.000666  0.093558  0.268944  -0.000735  4.031171  0.0
C  C102  1  0.60410788  0.69052030  0.41747555  1  -0.077538  0.000127  -0.099094  -0.212113  -1.7e-05  3.96674  0.0
C  C103  1  0.63884602  0.67390232  0.36524558  1  0.03007  -0.000795  -0.074897  -0.052597  -0.000835  3.958328  0.0
C  C104  1  0.47847396  0.68878202  0.52692890  1  0.438981  -0.000616  0.100695  0.281268  -0.000707  4.005672  0.0
C  C105  1  0.45124087  0.74394349  0.56916690  1  -0.014689  0.000194  -0.095092  -0.187989  7.2e-05  3.978661  0.0
C  C106  1  0.48909207  0.72670346  0.62077643  1  -0.052517  -0.000443  -0.088876  -0.101124  -0.000463  4.037235  0.0
C  C107  1  0.55512002  0.65495535  0.63118037  1  -0.043348  7.9e-05  -0.027362  -0.075752  -7.6e-05  4.028955  0.0
C  C108  1  0.58703323  0.60353086  0.58794507  1  -0.015109  -0.000642  -0.071284  -0.047657  -0.000673  3.947244  0.0
C  C109  1  0.54895823  0.61959406  0.53602340  1  0.025216  0.00026  -0.094745  -0.197207  0.000106  3.966783  0.0
C  C110  1  0.59202250  0.63055381  0.68614989  1  1.360525  -0.002201  0.243862  0.487301  -0.002632  4.111479  -0.001
C  C111  1  0.52294766  0.65093699  0.78107651  1  0.362787  -0.008638  0.117426  0.297819  -0.009454  4.027749  -0.006
C  C112  1  0.42947129  0.68435695  0.81254950  1  0.012708  0.005152  -0.098014  -0.245157  0.002447  3.973129  0.004
C  C113  1  0.43762365  0.68089131  0.86770671  1  0.478745  -0.006905  0.042031  0.10024  -0.00752  3.979661  -0.005
C  C114  1  0.62109615  0.61440500  0.86328922  1  0.435583  -0.006499  0.047354  0.108821  -0.007177  3.963418  -0.004
C  C115  1  0.62121196  0.61485867  0.80775161  1  0.057188  0.004758  -0.094472  -0.23031  0.002259  3.929791  0.004
C  C116  1  0.27520174  0.47295167  0.99851381  1  1.529384  0.000257  0.214306  0.56658  -0.001449  4.201454  0.002
C  C117  1  0.13349455  0.48730577  0.99940764  1  -0.081164  0.005478  -0.022452  -0.049624  0.002445  3.998933  0.005
C  C118  1  0.03073201  0.42959505  0.03151737  1  0.007997  0.000266  -0.090497  -0.10211  -0.000459  3.98876  0.0
C  C119  1  0.89796907  0.44176437  0.03199451  1  -0.022563  -0.000283  -0.086221  -0.092337  -0.000834  3.962026  0.0
C  C120  1  0.61528048  0.07396227  0.98823547  1  0.016678  0.000295  -0.091217  -0.106661  -0.000236  3.991118  0.0
C  C121  1  0.62230251  0.98141641  0.98164400  1  -0.077647  0.000264  -0.086973  -0.094967  -0.000294  3.973497  0.0
C  C122  1  0.50663968  0.90700483  0.99334398  1  -0.043816  0.000902  -0.018405  -0.023228  0.000144  3.987787  0.001
C  C123  1  0.51200129  0.80765945  0.98616422  1  1.500883  -0.006023  0.192191  0.541471  -0.007664  4.224894  -0.006
C  C124  1  0.60010596  0.36767530  0.91191765  1  0.489867  -0.00726  0.043509  0.108501  -0.008163  3.97914  -0.005
C  C125  1  0.61221755  0.36953850  0.85680056  1  -0.003405  0.00491  -0.100971  -0.25166  0.002304  3.986337  0.004
C  C126  1  0.49404819  0.36210659  0.82505484  1  0.343864  -0.008969  0.116457  0.29226  -0.009817  4.03827  -0.006
C  C127  1  0.36728355  0.35132161  0.85139002  1  0.052797  0.005029  -0.092849  -0.225421  0.002322  3.909964  0.004
C  C128  1  0.36572842  0.34957871  0.90683851  1  0.496328  -0.007415  0.051052  0.129924  -0.007949  3.940906  -0.005
C  C129  1  0.41146137  0.35944691  0.73033446  1  1.377649  -0.002224  0.239841  0.484785  -0.002677  4.107324  -0.001
C  C130  1  0.46206173  0.35253484  0.67471654  1  -0.026584  0.000126  -0.02778  -0.071775  -3.3e-05  4.018295  0.0
C  C131  1  0.60162985  0.36622038  0.66041668  1  -0.071111  -0.000471  -0.087088  -0.093655  -0.000506  4.02933  0.0
C  C132  1  0.63843799  0.35034464  0.60834739  1  0.013066  0.000148  -0.097653  -0.192521  6.7e-05  3.978963  0.0
C  C133  1  0.53478021  0.32065612  0.56991285  1  0.372371  -0.000665  0.093643  0.269329  -0.000734  4.030869  0.0
C  C134  1  0.39589221  0.30951260  0.58252075  1  -0.078481  0.000127  -0.099096  -0.212479  -1.7e-05  3.966574  0.0
C  C135  1  0.36115283  0.32613548  0.63475312  1  0.032106  -0.000794  -0.074928  -0.052527  -0.000834  3.957511  0.0
C  C136  1  0.52151585  0.31123320  0.47306301  1  0.438984  -0.000616  0.100731  0.281142  -0.000707  4.004869  0.0
C  C137  1  0.54874290  0.25604920  0.43083340  1  -0.014842  0.000194  -0.095081  -0.188005  7.2e-05  3.978641  0.0
C  C138  1  0.51090547  0.27328589  0.37922227  1  -0.052498  -0.000443  -0.088872  -0.101035  -0.000464  4.037469  0.0
C  C139  1  0.44488905  0.34503555  0.36880354  1  -0.044115  7.9e-05  -0.027516  -0.075949  -7.6e-05  4.029114  0.0
C  C140  1  0.41296733  0.39646415  0.41203924  1  -0.015338  -0.000642  -0.071286  -0.047434  -0.000674  3.947214  0.0
C  C141  1  0.45102432  0.38042037  0.46396731  1  0.0258  0.00026  -0.094738  -0.197185  0.000106  3.96625  0.0
C  C142  1  0.40798231  0.36943634  0.31383482  1  1.360532  -0.002201  0.244073  0.487416  -0.002631  4.111588  -0.001
C  C143  1  0.47704914  0.34905587  0.21891420  1  0.363341  -0.008633  0.117537  0.297978  -0.009449  4.027743  -0.006
C  C144  1  0.57052301  0.31564289  0.18744160  1  0.011735  0.005153  -0.098064  -0.245218  0.002448  3.973034  0.004
C  C145  1  0.56239746  0.31911940  0.13228440  1  0.479141  -0.006905  0.042065  0.100269  -0.007519  3.979638  -0.005
C  C146  1  0.37891192  0.38559712  0.13669749  1  0.435283  -0.006496  0.047127  0.108711  -0.007173  3.963848  -0.004
C  C147  1  0.37878659  0.38513070  0.19223390  1  0.058249  0.004757  -0.094286  -0.23027  0.002259  3.929814  0.004
C  C148  1  0.72483537  0.52704240  0.00148889  1  1.526702  0.000248  0.214308  0.566664  -0.001461  4.202063  0.002
C  C149  1  0.86653829  0.51267070  0.00059826  1  -0.094748  0.005499  -0.022684  -0.050166  0.002455  3.999182  0.005
C  C150  1  0.96929205  0.57037079  0.96848693  1  0.007623  0.000258  -0.09021  -0.101439  -0.000465  3.988587  0.0
C  C151  1  0.10204272  0.55819499  0.96801458  1  -0.037953  -0.000265  -0.086504  -0.093043  -0.000827  3.962909  0.0
C  C152  1  0.38471308  0.92604388  0.01178961  1  0.017058  0.000295  -0.091221  -0.106683  -0.000236  3.991383  0.0
C  C153  1  0.37768379  0.01858894  0.01837708  1  -0.077535  0.000261  -0.086933  -0.095286  -0.000296  3.973762  0.0
C  C154  1  0.49334837  0.09300265  0.00668110  1  -0.044527  0.0009  -0.018585  -0.022965  0.000143  3.987669  0.001
C  C155  1  0.48799001  0.19234035  0.01385167  1  1.501807  -0.00602  0.192192  0.541282  -0.007663  4.225084  -0.006
C  C156  1  0.10009298  0.86772432  0.58807333  1  0.489487  -0.007281  0.043109  0.108047  -0.008181  3.979318  -0.005
C  C157  1  0.11221271  0.86956327  0.64319208  1  -0.004155  0.004915  -0.10073  -0.251309  0.002306  3.985464  0.004
C  C158  1  0.99404423  0.86212046  0.67494684  1  0.344627  -0.008992  0.116545  0.292187  -0.009843  4.038262  -0.006
C  C159  1  0.86726904  0.85133897  0.64860145  1  0.052713  0.005038  -0.092879  -0.22554  0.002326  3.909497  0.004
C  C160  1  0.86572102  0.84961564  0.59314942  1  0.500172  -0.007428  0.051129  0.13045  -0.007966  3.940517  -0.005
C  C161  1  0.91144341  0.85939184  0.76966279  1  1.376217  -0.002235  0.239911  0.484664  -0.002689  4.106603  -0.001
C  C162  1  0.96204644  0.85248206  0.82528036  1  -0.025507  0.000126  -0.027719  -0.071452  -3.4e-05  4.018296  0.0
C  C163  1  0.10162936  0.86619675  0.83958077  1  -0.069692  -0.000474  -0.087065  -0.093734  -0.000509  4.028975  0.0
C  C164  1  0.13843758  0.85033067  0.89165351  1  0.013503  0.000148  -0.097677  -0.192385  6.7e-05  3.978594  0.0
C  C165  1  0.03477471  0.82065676  0.93009205  1  0.37186  -0.000669  0.093564  0.269068  -0.000738  4.030586  0.0
C  C166  1  0.89589226  0.80950733  0.91747911  1  -0.078084  0.000129  -0.098987  -0.212136  -1.7e-05  3.966313  0.0
C  C167  1  0.86115178  0.82609809  0.86524049  1  0.029918  -0.000798  -0.075157  -0.052821  -0.000838  3.957926  0.0
C  C168  1  0.02152630  0.81125352  0.02695076  1  0.438566  -0.000618  0.100892  0.281375  -0.000709  4.005069  0.0
C  C169  1  0.04876640  0.75607553  0.06918807  1  -0.013661  0.000194  -0.095059  -0.187928  7.2e-05  3.978349  0.0
C  C170  1  0.01092900  0.77329948  0.12080048  1  -0.052868  -0.000445  -0.088731  -0.10111  -0.000465  4.037336  0.0
C  C171  1  0.94490205  0.84504396  0.13121130  1  -0.045552  8e-05  -0.027396  -0.075705  -7.6e-05  4.028726  0.0
C  C172  1  0.91300258  0.89649027  0.08797239  1  -0.015774  -0.000643  -0.071572  -0.048116  -0.000675  3.947875  0.0
C  C173  1  0.95105026  0.88045003  0.03604660  1  0.02647  0.00026  -0.094715  -0.196891  0.000106  3.966284  0.0
C  C174  1  0.90797892  0.86943283  0.18617704  1  1.361428  -0.002205  0.244209  0.487877  -0.002636  4.110552  -0.001
C  C175  1  0.97704036  0.84906632  0.28110405  1  0.362822  -0.008649  0.117501  0.297763  -0.009465  4.027702  -0.006
C  C176  1  0.07053102  0.81565675  0.31258294  1  0.01298  0.005156  -0.098023  -0.244989  0.002449  3.973301  0.004
C  C177  1  0.06240812  0.81912999  0.36773552  1  0.47875  -0.00691  0.042062  0.100103  -0.007524  3.979974  -0.005
C  C178  1  0.87891285  0.88558805  0.36331938  1  0.432784  -0.006508  0.047235  0.108937  -0.007184  3.9637  -0.004
C  C179  1  0.87877484  0.88513885  0.30778139  1  0.058836  0.00476  -0.094308  -0.230149  0.00226  3.929622  0.004
C  C180  1  0.22483453  0.02702888  0.49850015  1  1.525721  0.000276  0.214398  0.566614  -0.001439  4.200493  0.002
C  C181  1  0.36652221  0.01267021  0.49939137  1  -0.078982  0.005447  -0.022521  -0.049926  0.002426  3.999806  0.005
C  C182  1  0.46928772  0.07037956  0.53149413  1  0.007884  0.000271  -0.090132  -0.101327  -0.000455  3.988638  0.0
C  C183  1  0.60203885  0.05822299  0.53196317  1  -0.038544  -0.000283  -0.086535  -0.09292  -0.000844  3.963052  0.0
C  C184  1  0.88471312  0.42604727  0.48821573  1  0.01689  0.000295  -0.091211  -0.106882  -0.000236  3.991425  0.0
C  C185  1  0.87768302  0.51859128  0.48163722  1  -0.077774  0.000261  -0.087043  -0.095092  -0.000297  3.973841  0.0
C  C186  1  0.99334294  0.59299801  0.49334514  1  -0.044204  0.000901  -0.018381  -0.02288  0.000143  3.987523  0.001
C  C187  1  0.98797860  0.69233994  0.48618094  1  1.500557  -0.006029  0.19213  0.541068  -0.007672  4.22487  -0.006
C  C188  1  0.89988480  0.13227952  0.41192577  1  0.490111  -0.007281  0.043278  0.108363  -0.008182  3.979163  -0.005
C  C189  1  0.88775705  0.13043485  0.35680702  1  -0.003663  0.004917  -0.100839  -0.251421  0.002306  3.985648  0.004
C  C190  1  0.00593507  0.13789603  0.32505666  1  0.343962  -0.008993  0.116468  0.292125  -0.009843  4.037837  -0.006
C  C191  1  0.13272528  0.14867210  0.35139525  1  0.052881  0.005032  -0.09292  -0.225523  0.002323  3.909695  0.004
C  C192  1  0.13428556  0.15039348  0.40684369  1  0.496601  -0.007429  0.051132  0.130335  -0.007964  3.94032  -0.005
C  C193  1  0.08855867  0.14062423  0.23034390  1  1.377051  -0.002233  0.240089  0.485171  -0.002687  4.106111  -0.001
C  C194  1  0.03796440  0.14753343  0.17471674  1  -0.025664  0.000126  -0.027788  -0.071457  -3.4e-05  4.018088  0.0
C  C195  1  0.89838072  0.13381381  0.16042473  1  -0.070698  -0.000473  -0.087075  -0.093888  -0.000508  4.029138  0.0
C  C196  1  0.86155623  0.14967057  0.10835358  1  0.012669  0.000148  -0.097699  -0.192359  6.7e-05  3.978546  0.0
C  C197  1  0.96520585  0.17936325  0.06991385  1  0.371981  -0.000668  0.093552  0.268804  -0.000737  4.031444  0.0
C  C198  1  0.10408955  0.19051902  0.08252199  1  -0.077583  0.000128  -0.099057  -0.211857  -1.7e-05  3.966748  0.0
C  C199  1  0.13885357  0.17393277  0.13475421  1  0.029362  -0.000797  -0.07499  -0.052927  -0.000836  3.958003  0.0
C  C200  1  0.97846375  0.18875398  0.97305913  1  0.438639  -0.000619  0.100837  0.281398  -0.000709  4.005126  0.0
C  C201  1  0.95122765  0.24392080  0.93081742  1  -0.013724  0.000194  -0.094999  -0.188024  7.2e-05  3.978137  0.0
C  C202  1  0.98906429  0.22668631  0.87920381  1  -0.052414  -0.000445  -0.088758  -0.101228  -0.000466  4.037046  0.0
C  C203  1  0.05511252  0.15494561  0.86880579  1  -0.044884  7.9e-05  -0.027364  -0.075685  -7.6e-05  4.029013  0.0
C  C204  1  0.08702529  0.10352544  0.91204350  1  -0.015138  -0.000644  -0.071302  -0.047524  -0.000676  3.94762  0.0
C  C205  1  0.04896110  0.11957248  0.96396609  1  0.026339  0.00026  -0.094789  -0.19718  0.000107  3.966476  0.0
C  C206  1  0.09205193  0.13055765  0.81383605  1  1.361383  -0.00221  0.243933  0.48716  -0.002642  4.110064  -0.001
C  C207  1  0.02296171  0.15093853  0.71891064  1  0.363406  -0.008649  0.117485  0.297877  -0.009467  4.027639  -0.006
C  C208  1  0.92947406  0.18435094  0.68742855  1  0.01193  0.005156  -0.098043  -0.245063  0.002449  3.973191  0.004
C  C209  1  0.93758544  0.18087616  0.63227358  1  0.478687  -0.006911  0.042014  0.100229  -0.007524  3.979702  -0.005
C  C210  1  0.12109422  0.11440845  0.63668691  1  0.433609  -0.006507  0.047166  0.108667  -0.007182  3.963726  -0.004
C  C211  1  0.12123649  0.11486401  0.69222650  1  0.058591  0.004759  -0.094371  -0.230365  0.00226  3.929568  0.004
C  C212  1  0.77516329  0.97297522  0.50148096  1  1.525068  0.000239  0.214395  0.5664  -0.001476  4.199959  0.002
C  C213  1  0.63347734  0.98731917  0.50058135  1  -0.082516  0.005475  -0.02259  -0.049943  0.002442  4.000051  0.005
C  C214  1  0.53073088  0.92962691  0.46847700  1  0.01192  0.000246  -0.090222  -0.101467  -0.000473  3.988609  0.0
C  C215  1  0.39796523  0.94178469  0.46801275  1  -0.036902  -0.000265  -0.086379  -0.092738  -0.000827  3.962542  0.0
C  C216  1  0.11528744  0.57395896  0.51178057  1  0.016865  0.000293  -0.091169  -0.10696  -0.000238  3.991114  0.0
C  C217  1  0.12231128  0.48140856  0.51835709  1  -0.07807  0.000264  -0.087016  -0.094956  -0.000295  3.973466  0.0
C  C218  1  0.00664912  0.40701233  0.50665396  1  -0.043583  0.000897  -0.018403  -0.023064  0.000141  3.987837  0.001
C  C219  1  0.01201546  0.30766761  0.51382495  1  1.499855  -0.006024  0.192241  0.541395  -0.007667  4.224409  -0.006
N  N220  1  0.52092656  0.64094997  0.06266000  1  -1.194166  0.049936  -0.329691  -0.25702  0.026686  3.575568  0.046
N  N221  1  0.49011309  0.63593893  0.23009250  1  -1.286632  -0.00095  -0.396429  -0.374132  -0.000679  3.579147  0.0
N  N222  1  0.51249269  0.65638011  0.72592764  1  -1.256282  -0.000922  -0.39511  -0.370609  -0.000676  3.567279  0.0
N  N223  1  0.53209696  0.64650552  0.89355918  1  -1.221585  0.050279  -0.32832  -0.25013  0.026447  3.548561  0.047
N  N224  1  0.47905269  0.35901880  0.93732991  1  -1.193487  0.049952  -0.329732  -0.256773  0.026695  3.575558  0.046
N  N225  1  0.50988347  0.36405883  0.76990860  1  -1.286923  -0.00095  -0.396484  -0.374308  -0.000679  3.579312  0.0
N  N226  1  0.48750035  0.34361060  0.27406027  1  -1.256365  -0.00092  -0.395133  -0.370616  -0.000675  3.567624  0.0
N  N227  1  0.46792188  0.35349323  0.10644272  1  -1.222175  0.050309  -0.328228  -0.249989  0.026461  3.548986  0.047
N  N228  1  0.97904213  0.85906399  0.56265054  1  -1.197592  0.049944  -0.329816  -0.256984  0.026694  3.575901  0.046
N  N229  1  0.00989121  0.86404044  0.73008749  1  -1.286533  -0.000951  -0.396538  -0.374371  -0.00068  3.57952  0.0
N  N230  1  0.98750642  0.84360911  0.22595872  1  -1.254944  -0.000921  -0.395058  -0.370745  -0.000676  3.567079  0.0
N  N231  1  0.96792322  0.85348782  0.39358364  1  -1.221354  0.050313  -0.328573  -0.250166  0.026466  3.549029  0.047
N  N232  1  0.02094568  0.14095120  0.43734536  1  -1.19427  0.04996  -0.329799  -0.256945  0.0267  3.574925  0.046
N  N233  1  0.99009659  0.13597195  0.26991121  1  -1.286952  -0.000952  -0.396587  -0.374679  -0.000681  3.579455  0.0
N  N234  1  0.01250240  0.15638951  0.77405117  1  -1.255136  -0.000921  -0.395035  -0.370673  -0.000676  3.567046  0.0
N  N235  1  0.03207659  0.14651068  0.60641905  1  -1.221098  0.050309  -0.328435  -0.250139  0.026463  3.548546  0.047
O  O236  1  0.70986778  0.64246929  0.25957892  1  -1.130049  -0.002084  -0.294093  -0.47012  -0.002122  2.08872  -0.002
O  O237  1  0.42164836  0.70389706  0.47895135  1  -1.10064  -5.8e-05  -0.134268  -0.197977  -5e-05  2.634771  0.0
O  O238  1  0.68238196  0.58938745  0.69541582  1  -1.125885  -0.002055  -0.295647  -0.476334  -0.002095  2.092221  -0.002
O  O239  1  0.29435498  0.40138412  0.02352508  1  -1.155575  0.086279  -0.306981  -0.544663  0.045287  2.395822  0.072
O  O240  1  0.36838071  0.53080336  0.97218709  1  -1.155574  0.091516  -0.314619  -0.565268  0.047456  2.515582  0.076
O  O241  1  0.62881689  0.78868763  0.98141645  1  -1.147874  0.08159  -0.311401  -0.543528  0.042484  2.267178  0.07
O  O242  1  0.40025832  0.74150474  0.98489666  1  -1.138849  0.075917  -0.315619  -0.555133  0.039143  2.23037  0.066
O  O243  1  0.29016761  0.35754512  0.74041818  1  -1.129986  -0.00208  -0.294253  -0.470459  -0.002118  2.088694  -0.002
O  O244  1  0.57833894  0.29610269  0.52104854  1  -1.100903  -5.7e-05  -0.134313  -0.198097  -5e-05  2.634375  0.0
O  O245  1  0.31764140  0.41062399  0.30457848  1  -1.125883  -0.002055  -0.295723  -0.476399  -0.002094  2.092179  -0.002
O  O246  1  0.70566635  0.59859642  0.97647282  1  -1.154857  0.086235  -0.307073  -0.54461  0.045261  2.395331  0.072
O  O247  1  0.63165063  0.46917450  0.02779802  1  -1.155074  0.091536  -0.31453  -0.56536  0.047471  2.516202  0.076
O  O248  1  0.37117139  0.21130652  0.01859264  1  -1.148275  0.081593  -0.311337  -0.543406  0.042486  2.267403  0.07
O  O249  1  0.59974599  0.25848681  0.01511283  1  -1.139078  0.075905  -0.315677  -0.555101  0.039139  2.230245  0.066
O  O250  1  0.79012452  0.85745506  0.75956618  1  -1.129356  -0.002089  -0.294289  -0.47042  -0.002127  2.088044  -0.002
O  O251  1  0.07833241  0.79612176  0.97897022  1  -1.100781  -5.8e-05  -0.134255  -0.198217  -5.1e-05  2.634509  0.0
O  O252  1  0.81762125  0.91060520  0.19542990  1  -1.125868  -0.002058  -0.295827  -0.47663  -0.002098  2.091842  -0.002
O  O253  1  0.20564423  0.09859322  0.52353248  1  -1.154398  0.086364  -0.307055  -0.544635  0.04533  2.394277  0.072
O  O254  1  0.13161310  0.96919182  0.47216994  1  -1.155141  0.091545  -0.314692  -0.565326  0.047464  2.515253  0.076
O  O255  1  0.87117163  0.71131451  0.48142350  1  -1.14749  0.081598  -0.311421  -0.543447  0.04249  2.267285  0.07
O  O256  1  0.09972337  0.75850431  0.48492831  1  -1.138529  0.075961  -0.315556  -0.554902  0.039172  2.230287  0.066
O  O257  1  0.20986730  0.14256018  0.24043932  1  -1.129579  -0.002087  -0.294386  -0.470691  -0.002125  2.088095  -0.002
O  O258  1  0.92164837  0.20387931  0.02103728  1  -1.100965  -5.8e-05  -0.134206  -0.197989  -5.1e-05  2.635001  0.0
O  O259  1  0.18243013  0.08938133  0.80457280  1  -1.126639  -0.002062  -0.295569  -0.476194  -0.002102  2.091196  -0.002
O  O260  1  0.79437960  0.90139156  0.47646622  1  -1.154619  0.086334  -0.306979  -0.54457  0.04532  2.394157  0.072
O  O261  1  0.86839226  0.03085026  0.52780238  1  -1.15478  0.091608  -0.314763  -0.565318  0.047504  2.514901  0.076
O  O262  1  0.12883095  0.28869456  0.51858040  1  -1.14731  0.081616  -0.311431  -0.543519  0.042497  2.267235  0.07
O  O263  1  0.90027069  0.24150605  0.51507758  1  -1.138486  0.075941  -0.315581  -0.555026  0.039159  2.230137  0.066
