# generated using pymatgen
data_SmH9(C2O3)3
_symmetry_space_group_name_H-M   'P 1'
_cell_length_a   6.01651977
_cell_length_b   10.12196941
_cell_length_c   9.19062012
_cell_angle_alpha   78.47063518
_cell_angle_beta   69.76547637
_cell_angle_gamma   82.44957943
_symmetry_Int_Tables_number   1
_chemical_formula_structural   SmH9(C2O3)3
_chemical_formula_sum   'Sm2 H18 C12 O18'
_cell_volume   513.37971299
_cell_formula_units_Z   2
loop_
 _symmetry_equiv_pos_site_id
 _symmetry_equiv_pos_as_xyz
  1  'x, y, z'
loop_
 _atom_site_type_symbol
 _atom_site_label
 _atom_site_symmetry_multiplicity
 _atom_site_fract_x
 _atom_site_fract_y
 _atom_site_fract_z
 _atom_site_occupancy
 _atom_site_hle17_bader_spin_density
 _atom_site_hle17_ddec_charge
 _atom_site_hle17_ddec_spin_density
 _atom_site_hle17_ddec_sum_bond_order
 _atom_site_hle17_magmom
 _atom_site_hse06_10hf_bader_spin_density
 _atom_site_hse06_10hf_ddec_charge
 _atom_site_hse06_10hf_ddec_spin_density
 _atom_site_hse06_10hf_ddec_sum_bond_order
 _atom_site_hse06_10hf_magmom
 _atom_site_hse06_bader_spin_density
 _atom_site_hse06_ddec_charge
 _atom_site_hse06_ddec_spin_density
 _atom_site_hse06_ddec_sum_bond_order
 _atom_site_hse06_magmom
 _atom_site_pbe_bader_spin_density
 _atom_site_pbe_cm5_charge
 _atom_site_pbe_ddec_charge
 _atom_site_pbe_ddec_spin_density
 _atom_site_pbe_ddec_sum_bond_order
 _atom_site_pbe_magmom
Sm  Sm0  1  0.47960761  0.88833411  0.23018517  1  0  2.282378  0  1.561633  0  0  2.11951  0  2.023076  0  0  2.232879  0  1.854466  0  0  1.476909  2.087283  0  2.052507  0
Sm  Sm1  1  0.52041422  0.11167622  0.76980747  1  0  2.282397  0  1.561559  0  0  2.119678  0  2.022767  0  0  2.232899  0  1.854391  0  0  1.476824  2.087398  0  2.052302  0
H  H2  1  0.53120135  0.38864739  0.10397039  1  0  0.136263  0  0.904038  0  0  0.150779  0  0.952383  0  0  0.153947  0  0.950617  0  0  0.127924  0.148436  0  0.953816  0
H  H3  1  0.46880265  0.61134697  0.89601984  1  0  0.136136  0  0.903863  0  0  0.15066  0  0.952199  0  0  0.153828  0  0.950431  0  0  0.127868  0.148315  0  0.953633  0
H  H4  1  0.91260444  0.47191371  0.93539868  1  0  0.119585  0  0.957473  0  0  0.128528  0  1.016793  0  0  0.131766  0  1.015843  0  0  0.110978  0.12633  0  1.017295  0
H  H5  1  0.08741495  0.52810342  0.06458590  1  0  0.119532  0  0.957684  0  0  0.128484  0  1.016996  0  0  0.131726  0  1.016039  0  0  0.110964  0.126288  0  1.017498  0
H  H6  1  0.09617351  0.45547706  0.63987769  1  0  0.123144  0  0.962992  0  0  0.129979  0  1.027049  0  0  0.133827  0  1.024935  0  0  0.110091  0.127371  0  1.028303  0
H  H7  1  0.90379026  0.54452410  0.36010419  1  0  0.123016  0  0.963129  0  0  0.129833  0  1.027234  0  0  0.13367  0  1.025113  0  0  0.110047  0.127224  0  1.028483  0
H  H8  1  0.88951310  0.77379968  0.38728578  1  0  0.447972  0  0.847451  0  0  0.417217  0  0.91014  0  0  0.428351  0  0.894297  0  0  0.303111  0.409381  0  0.921407  0
H  H9  1  0.11044885  0.22621073  0.61271571  1  0  0.447753  0  0.847693  0  0  0.417075  0  0.910276  0  0  0.428181  0  0.894473  0  0  0.302979  0.409262  0  0.921523  0
H  H10  1  0.61148329  0.73805785  0.47619065  1  0  0.428663  0  0.876236  0  0  0.396311  0  0.942985  0  0  0.406837  0  0.928054  0  0  0.299272  0.388307  0  0.954631  0
H  H11  1  0.38852318  0.26196651  0.52380829  1  0  0.428698  0  0.876132  0  0  0.396302  0  0.942933  0  0  0.40684  0  0.927987  0  0  0.299162  0.388296  0  0.954581  0
H  H12  1  0.28042421  0.04468798  0.50778125  1  0  0.437258  0  0.855668  0  0  0.40924  0  0.920338  0  0  0.419961  0  0.904954  0  0  0.307654  0.401574  0  0.93157  0
H  H13  1  0.71958367  0.95532179  0.49221277  1  0  0.437221  0  0.855765  0  0  0.409264  0  0.920309  0  0  0.419982  0  0.904929  0  0  0.307715  0.401599  0  0.931541  0
H  H14  1  0.32247261  0.89540604  0.58379007  1  0  0.437503  0  0.861651  0  0  0.408529  0  0.925748  0  0  0.419196  0  0.910245  0  0  0.311724  0.40105  0  0.936711  0
H  H15  1  0.67752466  0.10459505  0.41620816  1  0  0.437528  0  0.861723  0  0  0.408538  0  0.925758  0  0  0.419202  0  0.91026  0  0  0.31172  0.401058  0  0.936721  0
H  H16  1  0.00459283  0.04951714  0.33031331  1  0  0.442739  0  0.850382  0  0  0.417927  0  0.903261  0  0  0.42832  0  0.888096  0  0  0.309458  0.410743  0  0.91383  0
H  H17  1  0.99541488  0.95047703  0.66967526  1  0  0.442685  0  0.850409  0  0  0.417883  0  0.903277  0  0  0.428278  0  0.888111  0  0  0.309407  0.410698  0  0.913847  0
H  H18  1  0.09136798  0.07440788  0.13914206  1  0  0.455212  0  0.837099  0  0  0.423538  0  0.901089  0  0  0.434003  0  0.886148  0  0  0.311467  0.416328  0  0.911529  0
H  H19  1  0.90864253  0.92557936  0.86085236  1  0  0.455195  0  0.83712  0  0  0.423547  0  0.901056  0  0  0.434006  0  0.88613  0  0  0.311484  0.416354  0  0.911479  0
C  C20  1  0.63077368  0.17247436  0.10710287  1  0  0.762964  0  3.843633  0  0  0.715472  0  4.132261  0  0  0.751226  0  4.124474  0  0  0.236125  0.690983  0  4.141781  0
C  C21  1  0.36927354  0.82751324  0.89289848  1  0  0.762928  0  3.843078  0  0  0.715388  0  4.131868  0  0  0.751134  0  4.124086  0  0  0.236029  0.690905  0  4.141372  0
C  C22  1  0.68215947  0.31759575  0.06048839  1  0  -0.107159  0  3.581172  0  0  -0.132118  0  3.841745  0  0  -0.131152  0  3.84961  0  0  -0.051325  -0.132235  0  3.835617  0
C  C23  1  0.31779446  0.68238861  0.93953817  1  0  -0.107169  0  3.581583  0  0  -0.132032  0  3.842109  0  0  -0.131069  0  3.849986  0  0  -0.051245  -0.132147  0  3.835969  0
C  C24  1  0.89323206  0.36372492  0.97011079  1  0  -0.185793  0  3.676492  0  0  -0.205383  0  3.93734  0  0  -0.21278  0  3.950232  0  0  -0.086281  -0.200511  0  3.927932  0
C  C25  1  0.10675054  0.63627686  0.02989297  1  0  -0.185571  0  3.677462  0  0  -0.205193  0  3.938305  0  0  -0.212586  0  3.951194  0  0  -0.086206  -0.200325  0  3.928894  0
C  C26  1  0.11199029  0.27629709  0.91420391  1  0  0.669583  0  3.935878  0  0  0.62886  0  4.221085  0  0  0.66188  0  4.219262  0  0  0.191298  0.60571  0  4.226841  0
C  C27  1  0.88803552  0.72370052  0.08582121  1  0  0.6696  0  3.93635  0  0  0.628743  0  4.221684  0  0  0.661759  0  4.219865  0  0  0.191125  0.605594  0  4.227448  0
C  C28  1  0.21605543  0.63807290  0.47304699  1  0  0.70829  0  3.86584  0  0  0.665495  0  4.153337  0  0  0.699422  0  4.147307  0  0  0.215403  0.642438  0  4.159699  0
C  C29  1  0.78395551  0.36194184  0.52692652  1  0  0.708542  0  3.865556  0  0  0.665488  0  4.153426  0  0  0.699426  0  4.147381  0  0  0.215412  0.642431  0  4.159785  0
C  C30  1  0.07170292  0.51741511  0.53424015  1  0  -0.157351  0  3.615709  0  0  -0.173494  0  3.861647  0  0  -0.178392  0  3.874788  0  0  -0.078998  -0.169976  0  3.851709  0
C  C31  1  0.92829934  0.48260448  0.46574329  1  0  -0.157373  0  3.616013  0  0  -0.173406  0  3.861988  0  0  -0.178296  0  3.875127  0  0  -0.07884  -0.169885  0  3.852044  0
O  O32  1  0.61837717  0.10942238  0.24366872  1  0  -0.708627  0  2.027721  0  0  -0.648305  0  2.262898  0  0  -0.680579  0  2.249525  0  0  -0.353372  -0.630662  0  2.270765  0
O  O33  1  0.38162820  0.89058323  0.75634223  1  0  -0.708435  0  2.027413  0  0  -0.64819  0  2.262696  0  0  -0.680442  0  2.249319  0  0  -0.353256  -0.630562  0  2.270612  0
O  O34  1  0.58273387  0.11422702  0.01201471  1  0  -0.780573  0  2.122705  0  0  -0.722756  0  2.386417  0  0  -0.764224  0  2.374617  0  0  -0.40841  -0.704547  0  2.393643  0
O  O35  1  0.41729514  0.88577305  0.98800042  1  0  -0.780758  0  2.122376  0  0  -0.722788  0  2.385912  0  0  -0.764255  0  2.374094  0  0  -0.40853  -0.704584  0  2.393135  0
O  O36  1  0.10633890  0.14626294  0.94924495  1  0  -0.71282  0  2.001532  0  0  -0.651185  0  2.230268  0  0  -0.682344  0  2.220155  0  0  -0.365487  -0.634115  0  2.236796  0
O  O37  1  0.89363555  0.85371776  0.05076169  1  0  -0.712801  0  2.001579  0  0  -0.651193  0  2.230541  0  0  -0.682368  0  2.220441  0  0  -0.365542  -0.63413  0  2.237063  0
O  O38  1  0.30440147  0.33098030  0.83040413  1  0  -0.680024  0  1.932457  0  0  -0.635601  0  2.165498  0  0  -0.666516  0  2.15667  0  0  -0.371806  -0.619199  0  2.170818  0
O  O39  1  0.69562549  0.66902990  0.16958880  1  0  -0.679923  0  1.932694  0  0  -0.635481  0  2.165885  0  0  -0.666409  0  2.157056  0  0  -0.371676  -0.619092  0  2.171203  0
O  O40  1  0.36842104  0.64772512  0.53529705  1  0  -0.609541  0  1.91901  0  0  -0.55993  0  2.133478  0  0  -0.585265  0  2.126065  0  0  -0.301145  -0.543387  0  2.139802  0
O  O41  1  0.63154350  0.35226892  0.46472503  1  0  -0.609733  0  1.919373  0  0  -0.559919  0  2.133866  0  0  -0.585234  0  2.126407  0  0  -0.301093  -0.543373  0  2.140191  0
O  O42  1  0.17769880  0.72720644  0.35918795  1  0  -0.765534  0  2.014663  0  0  -0.703469  0  2.25458  0  0  -0.738608  0  2.242212  0  0  -0.39988  -0.684812  0  2.261266  0
O  O43  1  0.82228611  0.27280012  0.64081080  1  0  -0.765544  0  2.014385  0  0  -0.703448  0  2.254412  0  0  -0.738566  0  2.242045  0  0  -0.399957  -0.684786  0  2.261106  0
O  O44  1  0.71973795  0.81239000  0.41579246  1  0  -0.931746  0  1.926313  0  0  -0.872844  0  2.113967  0  0  -0.901217  0  2.079178  0  0  -0.61368  -0.857605  0  2.135918  0
O  O45  1  0.28026439  0.18757471  0.58421621  1  0  -0.931644  0  1.926271  0  0  -0.872838  0  2.114019  0  0  -0.901184  0  2.079295  0  0  -0.613421  -0.857609  0  2.135908  0
O  O46  1  0.26252552  0.94940153  0.50046213  1  0  -0.893774  0  1.911429  0  0  -0.839256  0  2.105497  0  0  -0.866196  0  2.070794  0  0  -0.618925  -0.825479  0  2.127224  0
O  O47  1  0.73746983  0.05059911  0.49952668  1  0  -0.893759  0  1.911641  0  0  -0.839285  0  2.105546  0  0  -0.866207  0  2.070851  0  0  -0.618938  -0.825512  0  2.127293  0
O  O48  1  0.13811107  0.03779531  0.23380978  1  0  -0.918594  0  1.873751  0  0  -0.86709  0  2.067478  0  0  -0.894353  0  2.031622  0  0  -0.662085  -0.853424  0  2.088277  0
O  O49  1  0.86188052  0.96218797  0.76619657  1  0  -0.918541  0  1.873821  0  0  -0.867064  0  2.067501  0  0  -0.894303  0  2.031649  0  0  -0.66205  -0.853397  0  2.088263  0
