# generated using pymatgen
data_SmP3H54C30(NO6)3
_symmetry_space_group_name_H-M   'P 1'
_cell_length_a   10.13753490
_cell_length_b   10.50524139
_cell_length_c   23.89678813
_cell_angle_alpha   93.31312269
_cell_angle_beta   93.36371266
_cell_angle_gamma   111.77197967
_symmetry_Int_Tables_number   1
_chemical_formula_structural   SmP3H54C30(NO6)3
_chemical_formula_sum   'Sm2 P6 H108 C60 N6 O36'
_cell_volume   2350.62978277
_cell_formula_units_Z   2
loop_
 _symmetry_equiv_pos_site_id
 _symmetry_equiv_pos_as_xyz
  1  'x, y, z'
loop_
 _atom_site_type_symbol
 _atom_site_label
 _atom_site_symmetry_multiplicity
 _atom_site_fract_x
 _atom_site_fract_y
 _atom_site_fract_z
 _atom_site_occupancy
 _atom_site_pbe_bader_charge
 _atom_site_pbe_bader_spin_density
 _atom_site_pbe_cm5_charge
 _atom_site_pbe_ddec_charge
 _atom_site_pbe_ddec_spin_density
 _atom_site_pbe_ddec_sum_bond_order
 _atom_site_pbe_magmom
Sm  Sm0  1  0.09271614  0.32797986  0.73394769  1  2.204789  0  1.546852  2.034647  0  2.212852  0
Sm  Sm1  1  0.90727915  0.67201492  0.26605491  1  2.204899  0  1.546843  2.034675  0  2.212773  0
P  P2  1  0.10282344  0.05887512  0.27524412  1  3.270151  0  0.419468  1.249974  0  5.153628  0
P  P3  1  0.89717327  0.94112072  0.72475562  1  3.270021  0  0.41941  1.249781  0  5.153776  0
P  P4  1  0.95623650  0.30157616  0.58415268  1  3.239787  0  0.420898  1.256114  0  5.128716  0
P  P5  1  0.04377080  0.69842882  0.41584883  1  3.239755  0  0.420819  1.25603  0  5.128811  0
P  P6  1  0.36961601  0.32777236  0.84130216  1  3.223682  0  0.417659  1.246722  0  5.143026  0
P  P7  1  0.63037899  0.67222662  0.15869720  1  3.223697  0  0.417701  1.246813  0  5.142954  0
H  H8  1  0.77482857  0.11871261  0.32275497  1  0.052943  0  0.090189  0.121768  0  1.03709  0
H  H9  1  0.22517734  0.88129135  0.67724689  1  0.037068  0  0.090196  0.121802  0  1.037073  0
H  H10  1  0.68215749  0.99951224  0.36944084  1  0.020402  0  0.088009  0.118331  0  1.055244  0
H  H11  1  0.31784587  0.00049278  0.63056141  1  0.020346  0  0.088035  0.118403  0  1.055189  0
H  H12  1  0.79272931  0.95761042  0.32350452  1  0.096674  0  0.098044  0.150127  0  1.011983  0
H  H13  1  0.20727323  0.04239255  0.67649765  1  0.096601  0  0.098062  0.150153  0  1.011928  0
H  H14  1  0.13828531  0.28688194  0.30411784  1  0.105731  0  0.115048  0.150315  0  1.021276  0
H  H15  1  0.86171910  0.71311585  0.69588298  1  0.106423  0  0.115059  0.150334  0  1.021263  0
H  H16  1  0.95762644  0.18410519  0.29050321  1  0.111613  0  0.11321  0.150944  0  1.036728  0
H  H17  1  0.04237652  0.81589881  0.70949858  1  0.111574  0  0.113226  0.150932  0  1.036761  0
H  H18  1  0.35987093  0.42025882  0.41968765  1  0.049698  0  0.089035  0.119791  0  1.030182  0
H  H19  1  0.64013177  0.57974210  0.58031279  1  0.04986  0  0.089033  0.119764  0  1.030228  0
H  H20  1  0.31137047  0.33598458  0.35136872  1  0.040892  0  0.089485  0.122586  0  1.04832  0
H  H21  1  0.68863378  0.66401527  0.64863257  1  0.040849  0  0.089486  0.122622  0  1.048246  0
H  H22  1  0.38258224  0.26437288  0.40390923  1  0.032886  0  0.091853  0.130437  0  0.990744  0
H  H23  1  0.61742087  0.73562906  0.59609209  1  0.032937  0  0.091851  0.130425  0  0.990691  0
H  H24  1  0.26485822  0.28894641  0.55586706  1  0.050405  0  0.087731  0.117884  0  1.066266  0
H  H25  1  0.73514432  0.71105656  0.44413469  1  0.050451  0  0.087736  0.117903  0  1.066271  0
H  H26  1  0.31144611  0.42228168  0.51079824  1  0.003566  0  0.091655  0.12845  0  1.004396  0
H  H27  1  0.68856062  0.57772434  0.48920329  1  0.003584  0  0.091675  0.128466  0  1.004423  0
H  H28  1  0.36970484  0.28484597  0.49975543  1  0.018067  0  0.08741  0.116984  0  1.013895  0
H  H29  1  0.63030122  0.71515594  0.50024554  1  0.018161  0  0.087419  0.116983  0  1.013927  0
H  H30  1  0.09334952  0.16782192  0.57764212  1  0.10456  0  0.120436  0.165528  0  1.012991  0
H  H31  1  0.90665778  0.83218306  0.42235939  1  0.10474  0  0.120399  0.165412  0  1.012943  0
H  H32  1  0.91242946  0.06641571  0.56410714  1  0.101616  0  0.116251  0.154763  0  1.009148  0
H  H33  1  0.08757742  0.93358822  0.43589559  1  0.101487  0  0.116275  0.154769  0  1.009064  0
H  H34  1  0.75113212  0.99354755  0.51405926  1  0.033684  0  0.088905  0.124317  0  1.030404  0
H  H35  1  0.24887459  0.00645844  0.48594477  1  0.033799  0  0.08889  0.124331  0  1.030375  0
H  H36  1  0.69361666  0.92146251  0.44429847  1  0.030853  0  0.092922  0.129916  0  1.021305  0
H  H37  1  0.30638825  0.07854145  0.55570462  1  0.030716  0  0.092935  0.129908  0  1.021367  0
H  H38  1  0.67821711  0.07842562  0.46726965  1  0.028608  0  0.089104  0.121492  0  1.018319  0
H  H39  1  0.32178879  0.92157833  0.53273264  1  0.028589  0  0.089104  0.121488  0  1.018302  0
H  H40  1  0.63106636  0.34066291  0.56015252  1  0.053903  0  0.106388  0.067469  0  0.978397  0
H  H41  1  0.36894779  0.65934927  0.43984602  1  0.053945  0  0.106342  0.067497  0  0.978329  0
H  H42  1  0.75747238  0.40739353  0.61982717  1  0.075007  0  0.112684  0.078605  0  0.960096  0
H  H43  1  0.24253789  0.59261146  0.38017191  1  0.074949  0  0.112728  0.078662  0  0.960069  0
H  H44  1  0.53331536  0.22047585  0.64385460  1  0.048956  0  0.095506  0.13606  0  1.018173  0
H  H45  1  0.46668995  0.77953646  0.35614330  1  0.049126  0  0.095481  0.136018  0  1.018158  0
H  H46  1  0.68478671  0.17384742  0.65464984  1  0.053093  0  0.096239  0.138902  0  1.013433  0
H  H47  1  0.31521398  0.82616080  0.34534951  1  0.053043  0  0.096218  0.138854  0  1.013429  0
H  H48  1  0.56169499  0.10247586  0.59378904  1  0.02543  0  0.088677  0.12201  0  1.009092  0
H  H49  1  0.43830933  0.89753647  0.40620926  1  0.025729  0  0.08869  0.122046  0  1.009051  0
H  H50  1  0.07337327  0.57265026  0.62575541  1  0.081308  0  0.107849  0.073725  0  1.011415  0
H  H51  1  0.92663446  0.42735580  0.37424280  1  0.081429  0  0.107831  0.07371  0  1.011389  0
H  H52  1  0.03607972  0.61381826  0.55624384  1  0.081777  0  0.100206  0.060846  0  1.024643  0
H  H53  1  0.96392693  0.38618264  0.44375419  1  0.08177  0  0.100237  0.060892  0  1.024648  0
H  H54  1  0.32306378  0.60674591  0.60382723  1  0.052516  0  0.091667  0.129235  0  1.02358  0
H  H55  1  0.67694716  0.39326322  0.39617114  1  0.05214  0  0.091655  0.129165  0  1.023581  0
H  H56  1  0.28679204  0.75763441  0.59573639  1  0.058084  0  0.09337  0.127941  0  1.036668  0
H  H57  1  0.71321037  0.24237069  0.40426207  1  0.05815  0  0.093373  0.127913  0  1.036615  0
H  H58  1  0.28612007  0.65181672  0.53498132  1  0.026548  0  0.087457  0.120687  0  1.030667  0
H  H59  1  0.71388637  0.34819350  0.46501655  1  0.026602  0  0.087422  0.120619  0  1.030659  0
H  H60  1  0.93040090  0.11875693  0.17746028  1  0.104092  0  0.101787  0.067932  0  1.010307  0
H  H61  1  0.06959038  0.88123277  0.82253957  1  0.104708  0  0.101797  0.067935  0  1.010464  0
H  H62  1  0.91345864  0.94278636  0.17978076  1  0.064472  0  0.108215  0.066004  0  1.02781  0
H  H63  1  0.08654370  0.05720629  0.82021945  1  0.064555  0  0.108215  0.066039  0  1.027741  0
H  H64  1  0.10908324  0.14962513  0.10533334  1  0.009418  0  0.089784  0.118794  0  1.021101  0
H  H65  1  0.89091093  0.85037178  0.89466636  1  0.009367  0  0.089762  0.11871  0  1.021098  0
H  H66  1  0.94222581  0.01833241  0.08113508  1  0.02965  0  0.096123  0.132057  0  1.004612  0
H  H67  1  0.05777032  0.98166446  0.91886551  1  0.029612  0  0.096066  0.131907  0  1.004537  0
H  H68  1  0.08609776  0.97251075  0.10670621  1  0.04373  0  0.092786  0.132952  0  1.004558  0
H  H69  1  0.91389823  0.02748822  0.89329275  1  0.043444  0  0.092761  0.132886  0  1.004583  0
H  H70  1  0.34684388  0.07180522  0.21979851  1  0.079401  0  0.10666  0.068012  0  0.986865  0
H  H71  1  0.65315016  0.92819380  0.78019916  1  0.079472  0  0.106704  0.068043  0  0.986852  0
H  H72  1  0.33586169  0.94407511  0.26742671  1  0.052433  0  0.10256  0.061191  0  1.01867  0
H  H73  1  0.66413644  0.05592179  0.73257016  1  0.052508  0  0.102571  0.061205  0  1.01864  0
H  H74  1  0.53528865  0.25077875  0.28725714  1  0.052205  0  0.09488  0.14352  0  1.002832  0
H  H75  1  0.46470793  0.74921922  0.71273930  1  0.052184  0  0.094861  0.143469  0  1.002836  0
H  H76  1  0.58956027  0.11366906  0.26647971  1  0.061796  0  0.093103  0.128067  0  1.026852  0
H  H77  1  0.41043729  0.88632890  0.73351634  1  0.062668  0  0.093095  0.127988  0  1.026881  0
H  H78  1  0.52465429  0.12106580  0.33365923  1  0.034657  0  0.089731  0.121855  0  1.016647  0
H  H79  1  0.47534410  0.87893422  0.66633648  1  0.034483  0  0.089719  0.12185  0  1.016581  0
H  H80  1  0.49868442  0.02220573  0.90300257  1  0.038957  0  0.094221  0.131216  0  0.989673  0
H  H81  1  0.50131411  0.97779218  0.09699559  1  0.038899  0  0.094223  0.131266  0  0.989641  0
H  H82  1  0.42498782  0.89501626  0.84498993  1  0.046626  0  0.095764  0.132087  0  1.01486  0
H  H83  1  0.57500915  0.10498269  0.15500948  1  0.046703  0  0.095735  0.132069  0  1.014826  0
H  H84  1  0.30962038  0.93596645  0.88908535  1  0.035109  0  0.092237  0.125753  0  1.001907  0
H  H85  1  0.69038037  0.06403453  0.11091338  1  0.035096  0  0.092276  0.125811  0  1.001827  0
H  H86  1  0.51136219  0.13386581  0.81360089  1  0.05421  0  0.10212  0.060671  0  1.014769  0
H  H87  1  0.48863184  0.86613319  0.18639803  1  0.054159  0  0.102151  0.060665  0  1.014793  0
H  H88  1  0.32222938  0.04995479  0.79809194  1  0.049649  0  0.104975  0.065915  0  0.988976  0
H  H89  1  0.67776537  0.95004109  0.20190691  1  0.049726  0  0.104968  0.065893  0  0.988951  0
H  H90  1  0.67167213  0.63092538  0.76633342  1  0.033673  0  0.092704  0.130265  0  1.000732  0
H  H91  1  0.32832460  0.36907051  0.23366338  1  0.033706  0  0.092687  0.130285  0  1.0007  0
H  H92  1  0.78916945  0.54493827  0.74921346  1  0.057837  0  0.096052  0.133752  0  1.009801  0
H  H93  1  0.21082433  0.45505764  0.25078411  1  0.057837  0  0.096027  0.13373  0  1.00982  0
H  H94  1  0.78531083  0.60309330  0.82009839  1  0.027293  0  0.094746  0.132737  0  0.983477  0
H  H95  1  0.21468393  0.39690261  0.17989879  1  0.027432  0  0.094764  0.132822  0  0.983415  0
H  H96  1  0.53495245  0.37805388  0.74917039  1  0.066752  0  0.104039  0.063936  0  0.996321  0
H  H97  1  0.46504075  0.62194306  0.25082845  1  0.066861  0  0.104041  0.06395  0  0.996269  0
H  H98  1  0.65399396  0.34681418  0.79997000  1  0.093814  0  0.099714  0.061642  0  1.03728  0
H  H99  1  0.34600064  0.65318379  0.20002765  1  0.093847  0  0.099672  0.061575  0  1.0373  0
H  H100  1  0.28596711  0.49053870  0.87893429  1  0.139067  0  0.121918  0.173097  0  1.002553  0
H  H101  1  0.71403306  0.50946329  0.12106612  1  0.13938  0  0.121899  0.173066  0  1.002523  0
H  H102  1  0.20236366  0.33046234  0.90424600  1  0.095907  0  0.121099  0.170319  0  0.982769  0
H  H103  1  0.79763569  0.66953760  0.09575433  1  0.095892  0  0.121098  0.170312  0  0.9828  0
H  H104  1  0.21689161  0.19405210  0.94947038  1  0.034602  0  0.087179  0.115478  0  1.054907  0
H  H105  1  0.78310913  0.80594884  0.05053044  1  0.034574  0  0.087178  0.115472  0  1.054941  0
H  H106  1  0.21912191  0.20311771  0.02374702  1  0.019912  0  0.089087  0.119366  0  1.020594  0
H  H107  1  0.78087676  0.79687809  0.97625360  1  0.019943  0  0.089071  0.119378  0  1.02063  0
H  H108  1  0.33820589  0.14458549  0.98951227  1  0.037891  0  0.092602  0.126201  0  0.998184  0
H  H109  1  0.66179484  0.85541547  0.01048812  1  0.037903  0  0.092596  0.12618  0  0.9982  0
H  H110  1  0.63190706  0.71657207  0.89547339  1  0.049318  0  0.09067  0.122874  0  1.010608  0
H  H111  1  0.36809217  0.28342267  0.10452805  1  0.049294  0  0.090637  0.122834  0  1.010596  0
H  H112  1  0.52310827  0.78675877  0.93076749  1  0.009445  0  0.090008  0.121394  0  1.00887  0
H  H113  1  0.47689361  0.21324011  0.06923204  1  0.009402  0  0.090006  0.121371  0  1.008865  0
H  H114  1  0.44708307  0.65124448  0.87694459  1  0.039817  0  0.090481  0.125426  0  1.034195  0
H  H115  1  0.55291561  0.34875134  0.12305519  1  0.039832  0  0.090455  0.125369  0  1.034196  0
C  C116  1  0.04451629  0.17665420  0.37500817  1  -0.060174  0  -0.014431  0.04378  0  3.940211  0
C  C117  1  0.95548682  0.82334773  0.62499357  1  -0.059696  0  -0.014428  0.04374  0  3.940104  0
C  C118  1  0.16426413  0.24075220  0.41396451  1  -0.045954  0  -0.018658  0.041349  0  3.950519  0
C  C119  1  0.83574096  0.75924972  0.58603644  1  -0.04627  0  -0.018661  0.04145  0  3.950534  0
C  C120  1  0.14803652  0.23510155  0.47218465  1  -0.033756  0  -0.017536  0.045777  0  3.929951  0
C  C121  1  0.85196670  0.76490556  0.52781724  1  -0.034177  0  -0.017605  0.045639  0  3.930102  0
C  C122  1  0.01255103  0.16354329  0.49081272  1  -0.006664  0  -0.013196  0.041772  0  3.931779  0
C  C123  1  0.98745323  0.83645658  0.50918773  1  -0.006278  0  -0.013165  0.041806  0  3.931729  0
C  C124  1  0.89282200  0.09702578  0.45158696  1  0.034047  0  -0.015822  0.047427  0  3.915275  0
C  C125  1  0.10718488  0.90297815  0.54841577  1  0.034027  0  -0.015777  0.047475  0  3.915213  0
C  C126  1  0.90910086  0.10478464  0.39351935  1  -0.017813  0  -0.014648  0.05515  0  3.923142  0
C  C127  1  0.09090080  0.89522351  0.60648295  1  -0.018269  0  -0.014594  0.055288  0  3.9231  0
C  C128  1  0.78314867  0.04155063  0.35041283  1  -0.099317  0  -0.24742  -0.419808  0  3.954932  0
C  C129  1  0.21685625  0.95845335  0.64958902  1  -0.083228  0  -0.247506  -0.420023  0  3.954851  0
C  C130  1  0.05739265  0.18831731  0.31269796  1  -0.560195  0  -0.157154  -0.486065  0  3.942975  0
C  C131  1  0.94261037  0.81167948  0.68730154  1  -0.560867  0  -0.157174  -0.486068  0  3.94305  0
C  C132  1  0.31021028  0.31908405  0.39598454  1  -0.040847  0  -0.246977  -0.404803  0  3.998507  0
C  C133  1  0.68979635  0.68091682  0.60401600  1  -0.040936  0  -0.246994  -0.404874  0  3.998613  0
C  C134  1  0.27887862  0.31026914  0.51197321  1  -0.01914  0  -0.244676  -0.40175  0  3.983623  0
C  C135  1  0.72112450  0.68973280  0.48802811  1  -0.019204  0  -0.244668  -0.401731  0  3.983684  0
C  C136  1  0.99566820  0.16123622  0.55322452  1  -0.558014  0  -0.152571  -0.492691  0  3.945791  0
C  C137  1  0.00433802  0.83876362  0.44677598  1  -0.557967  0  -0.152558  -0.492604  0  3.945615  0
C  C138  1  0.74706104  0.01865125  0.47037425  1  -0.061054  0  -0.244486  -0.405857  0  3.969727  0
C  C139  1  0.25294625  0.98135372  0.52962852  1  -0.061065  0  -0.244511  -0.405909  0  3.969856  0
C  C140  1  0.69952385  0.31512442  0.59120515  1  0.387345  0  -0.050114  0.138913  0  3.84299  0
C  C141  1  0.30048610  0.68488470  0.40879404  1  0.387753  0  -0.050114  0.138781  0  3.842919  0
C  C142  1  0.61492679  0.19498142  0.62284389  1  -0.058267  0  -0.247231  -0.410606  0  3.937578  0
C  C143  1  0.38507670  0.80502884  0.37715474  1  -0.059044  0  -0.247205  -0.410534  0  3.937547  0
C  C144  1  0.10163951  0.57274007  0.58208925  1  0.347078  0  -0.056848  0.122765  0  3.821164  0
C  C145  1  0.89836796  0.42726289  0.41790969  1  0.346864  0  -0.056905  0.122617  0  3.821265  0
C  C146  1  0.25917881  0.65089825  0.57878243  1  -0.059066  0  -0.248853  -0.399335  0  3.933588  0
C  C147  1  0.74082977  0.34910989  0.42121501  1  -0.058686  0  -0.248775  -0.399077  0  3.933458  0
C  C148  1  0.98411484  0.04614298  0.17086658  1  0.345042  0  -0.058757  0.117801  0  3.840148  0
C  C149  1  0.01588203  0.95385081  0.82913185  1  0.344412  0  -0.05877  0.1177  0  3.840266  0
C  C150  1  0.03405452  0.04664061  0.11258461  1  -0.002985  0  -0.244107  -0.394082  0  3.948307  0
C  C151  1  0.96594146  0.95335834  0.88741519  1  -0.002608  0  -0.243981  -0.39371  0  3.948044  0
C  C152  1  0.36307523  0.05465790  0.26414003  1  0.393533  0  -0.057669  0.121031  0  3.859987  0
C  C153  1  0.63692052  0.94533800  0.73585717  1  0.393345  0  -0.057683  0.120948  0  3.860056  0
C  C154  1  0.51157251  0.14047174  0.28945350  1  -0.082603  0  -0.247066  -0.397622  0  3.930906  0
C  C155  1  0.48842227  0.85952420  0.71054159  1  -0.083357  0  -0.247047  -0.397459  0  3.93088  0
C  C156  1  0.41075771  0.97948993  0.86979412  1  -0.033785  0  -0.244187  -0.39984  0  3.968944  0
C  C157  1  0.58923968  0.02051006  0.13020449  1  -0.033833  0  -0.244183  -0.399933  0  3.968842  0
C  C158  1  0.40899244  0.08916193  0.83199418  1  0.395806  0  -0.056899  0.123039  0  3.850653  0
C  C159  1  0.59100257  0.91083705  0.16800477  1  0.395808  0  -0.056921  0.123092  0  3.850645  0
C  C160  1  0.71922583  0.55866834  0.78046440  1  -0.044147  0  -0.244242  -0.390795  0  3.939684  0
C  C161  1  0.28076835  0.44132860  0.21953363  1  -0.044354  0  -0.24421  -0.39092  0  3.939709  0
C  C162  1  0.60626505  0.42033247  0.78777662  1  0.360699  0  -0.058803  0.123992  0  3.847072  0
C  C163  1  0.39372914  0.57966447  0.21222099  1  0.360591  0  -0.058789  0.124032  0  3.847039  0
C  C164  1  0.30754789  0.40627733  0.89738749  1  -0.535259  0  -0.149161  -0.487643  0  3.927041  0
C  C165  1  0.69245326  0.59372465  0.10261253  1  -0.53556  0  -0.149121  -0.487598  0  3.92698  0
C  C166  1  0.28672874  0.22016858  0.98839250  1  -0.053411  0  -0.241799  -0.394935  0  3.99157  0
C  C167  1  0.71327075  0.77982928  0.01160820  1  -0.053437  0  -0.241785  -0.39494  0  3.991712  0
C  C168  1  0.39619302  0.36503447  0.99331914  1  0.011979  0  -0.016811  0.050167  0  3.934224  0
C  C169  1  0.60380533  0.63496547  0.00668201  1  0.01208  0  -0.016784  0.050183  0  3.934261  0
C  C170  1  0.40717302  0.45470135  0.95058562  1  -0.02617  0  -0.015348  0.040831  0  3.949654  0
C  C171  1  0.59282451  0.54529654  0.04941503  1  -0.02621  0  -0.015345  0.040857  0  3.949685  0
C  C172  1  0.51095152  0.58965156  0.95705539  1  -0.017237  0  -0.015994  0.051243  0  3.931894  0
C  C173  1  0.48904781  0.41034835  0.04294661  1  -0.017139  0  -0.016009  0.051209  0  3.931944  0
C  C174  1  0.52757457  0.68985028  0.91273094  1  -0.047501  0  -0.240975  -0.392423  0  3.971304  0
C  C175  1  0.47242452  0.31014656  0.08726930  1  -0.047496  0  -0.240919  -0.392302  0  3.97121  0
N  N176  1  0.86949738  0.24822026  0.81347713  1  0.828656  0  0.08464  0.720314  0  4.429977  0
N  N177  1  0.13049095  0.75176948  0.18652264  1  0.82795  0  0.084388  0.719961  0  4.429452  0
N  N178  1  0.14139379  0.61814077  0.76851933  1  0.836916  0  0.088602  0.732546  0  4.418091  0
N  N179  1  0.85859394  0.38184996  0.23148422  1  0.836771  0  0.088559  0.732528  0  4.417866  0
N  N180  1  0.34340582  0.40087441  0.66805662  1  0.833949  0  0.081124  0.713846  0  4.444035  0
N  N181  1  0.65658860  0.59912558  0.33194485  1  0.833995  0  0.081133  0.713914  0  4.444004  0
O  O182  1  0.96346001  0.31278998  0.64729450  1  -1.438064  0  -0.445444  -0.822329  0  2.317661  0
O  O183  1  0.03654420  0.68721713  0.35270615  1  -1.438031  0  -0.445474  -0.822361  0  2.317669  0
O  O184  1  0.80095116  0.28128073  0.55789786  1  -1.30503  0  -0.21141  -0.410033  0  2.461035  0
O  O185  1  0.19905532  0.71872221  0.44210273  1  -1.305194  0  -0.211337  -0.409938  0  2.460918  0
O  O186  1  0.06799128  0.43027721  0.55934292  1  -1.307193  0  -0.202395  -0.399264  0  2.495132  0
O  O187  1  0.93201914  0.56972569  0.44065694  1  -1.30712  0  -0.202335  -0.399176  0  2.495213  0
O  O188  1  0.00562840  0.91435921  0.28295649  1  -1.464913  0  -0.440032  -0.813076  0  2.294963  0
O  O189  1  0.99436677  0.08563773  0.71704073  1  -1.464777  0  -0.439992  -0.812961  0  2.295018  0
O  O190  1  0.11072200  0.09112229  0.21109578  1  -1.305242  0  -0.209388  -0.414521  0  2.492852  0
O  O191  1  0.88927719  0.90887972  0.78890461  1  -1.305142  0  -0.20937  -0.414484  0  2.492902  0
O  O192  1  0.26467547  0.09699719  0.29591509  1  -1.304018  0  -0.202484  -0.397673  0  2.499129  0
O  O193  1  0.73532140  0.90299659  0.70408375  1  -1.30396  0  -0.202494  -0.397594  0  2.4992  0
O  O194  1  0.27306796  0.28588387  0.78746337  1  -1.461742  0  -0.45165  -0.840002  0  2.315537  0
O  O195  1  0.72692424  0.71411307  0.21253628  1  -1.461671  0  -0.451649  -0.840066  0  2.315504  0
O  O196  1  0.38716369  0.19798507  0.86679102  1  -1.300464  0  -0.206742  -0.400262  0  2.469395  0
O  O197  1  0.61283607  0.80201590  0.13320852  1  -1.300488  0  -0.20674  -0.400313  0  2.469477  0
O  O198  1  0.52189479  0.43852396  0.83309927  1  -1.307761  0  -0.202115  -0.395317  0  2.476376  0
O  O199  1  0.47810177  0.56147396  0.16690010  1  -1.307831  0  -0.202144  -0.395298  0  2.476371  0
O  O200  1  0.84770251  0.28415129  0.76396695  1  -0.593436  0  -0.247005  -0.538155  0  1.999162  0
O  O201  1  0.15229403  0.71584660  0.23603409  1  -0.593426  0  -0.246923  -0.537965  0  1.998824  0
O  O202  1  0.77289319  0.20744068  0.84506971  1  -0.466749  0  -0.148542  -0.37353  0  1.904811  0
O  O203  1  0.22709131  0.79255430  0.15492970  1  -0.466679  0  -0.14842  -0.373446  0  1.904681  0
O  O204  1  0.99682887  0.25634369  0.82734927  1  -0.583461  0  -0.236193  -0.522455  0  2.039584  0
O  O205  1  0.00315102  0.74362754  0.17265061  1  -0.582894  0  -0.236137  -0.522326  0  2.039357  0
O  O206  1  0.06152108  0.55439516  0.72399047  1  -0.568446  0  -0.235589  -0.518187  0  2.013551  0
O  O207  1  0.93847743  0.44560270  0.27601062  1  -0.568451  0  -0.235597  -0.518231  0  2.013539  0
O  O208  1  0.18581827  0.54506414  0.80026321  1  -0.588104  0  -0.239604  -0.528658  0  2.006733  0
O  O209  1  0.81415796  0.45492258  0.19974162  1  -0.587913  0  -0.239691  -0.528708  0  2.006652  0
O  O210  1  0.17421859  0.74314298  0.78010143  1  -0.499397  0  -0.147026  -0.387076  0  1.970527  0
O  O211  1  0.82577445  0.25684867  0.21990437  1  -0.499449  0  -0.146885  -0.386965  0  1.970413  0
O  O212  1  0.31765765  0.49175576  0.69905562  1  -0.59013  0  -0.240771  -0.528055  0  2.017027  0
O  O213  1  0.68233987  0.50824211  0.30094586  1  -0.589976  0  -0.240793  -0.528083  0  2.017036  0
O  O214  1  0.45599561  0.42846388  0.64534637  1  -0.480297  0  -0.140995  -0.371881  0  1.961375  0
O  O215  1  0.54399768  0.57153822  0.35465304  1  -0.480436  0  -0.140981  -0.371909  0  1.961482  0
O  O216  1  0.24555707  0.27939684  0.66213279  1  -0.586345  0  -0.23405  -0.512128  0  2.039097  0
O  O217  1  0.75444267  0.72060408  0.33787009  1  -0.586263  0  -0.234043  -0.512126  0  2.038962  0
