# generated using pymatgen
data_CuH9C11NCl2O5
_symmetry_space_group_name_H-M   'P 1'
_cell_length_a   9.27645769
_cell_length_b   10.87191848
_cell_length_c   10.88340154
_cell_angle_alpha   92.25285861
_cell_angle_beta   105.23376973
_cell_angle_gamma   112.28656290
_symmetry_Int_Tables_number   1
_chemical_formula_structural   CuH9C11NCl2O5
_chemical_formula_sum   'Cu2 H18 C22 N2 Cl4 O10'
_cell_volume   967.99878102
_cell_formula_units_Z   2
loop_
 _symmetry_equiv_pos_site_id
 _symmetry_equiv_pos_as_xyz
  1  'x, y, z'
loop_
 _atom_site_type_symbol
 _atom_site_label
 _atom_site_symmetry_multiplicity
 _atom_site_fract_x
 _atom_site_fract_y
 _atom_site_fract_z
 _atom_site_occupancy
 _atom_site_pbe_bader_charge
 _atom_site_pbe_bader_spin_density
 _atom_site_pbe_cm5_charge
 _atom_site_pbe_ddec_charge
 _atom_site_pbe_ddec_spin_density
 _atom_site_pbe_ddec_sum_bond_order
 _atom_site_pbe_magmom
Cu  Cu0  1  0.84076612  0.94846375  0.96360808  1  1.086899  0.546107  0.686907  0.834575  0.69697  2.32432  0.543
Cu  Cu1  1  0.15924745  0.05153617  0.03639825  1  1.101205  -0.546104  0.686932  0.834586  -0.696975  2.324425  -0.543
H  H2  1  0.90893069  0.57935485  0.79428172  1  0.109131  -7.2e-05  0.103814  0.113542  -3.1e-05  1.022703  0.0
H  H3  1  0.09106225  0.42063692  0.20571493  1  0.109163  7.2e-05  0.10382  0.11358  3.2e-05  1.022713  0.0
H  H4  1  0.16298083  0.20028029  0.66959780  1  0.136754  0.000167  0.113928  0.134046  6.7e-05  0.985968  0.0
H  H5  1  0.83703069  0.79971761  0.33040523  1  0.136889  -0.000167  0.11392  0.134017  -6.6e-05  0.985904  0.0
H  H6  1  0.57951056  0.70769068  0.77289826  1  0.078786  -5.6e-05  0.114114  0.039559  -4.7e-05  1.005539  0.0
H  H7  1  0.42047953  0.29230208  0.22709502  1  0.07871  5.7e-05  0.114065  0.039509  4.7e-05  1.005614  0.0
H  H8  1  0.32166116  0.87125023  0.81911803  1  0.124701  -2e-05  0.120362  0.155625  -5e-06  0.978465  0.0
H  H9  1  0.67834103  0.12876066  0.18088143  1  0.124469  2e-05  0.120366  0.15564  6e-06  0.978494  0.0
H  H10  1  0.14415114  0.71761810  0.75766103  1  0.04978  1.8e-05  0.092771  0.10015  1.3e-05  1.033557  0.0
H  H11  1  0.85584494  0.28239176  0.24233881  1  0.049755  -1.8e-05  0.092791  0.100148  -1.2e-05  1.033533  0.0
H  H12  1  0.21442923  0.82925957  0.64986969  1  0.047129  -9e-06  0.097873  0.110225  -1e-05  0.995113  0.0
H  H13  1  0.78556701  0.17074828  0.35012828  1  0.046943  9e-06  0.097844  0.110178  1e-05  0.995175  0.0
H  H14  1  0.38118592  0.56756207  0.61819391  1  0.066282  -1e-05  0.101114  0.107878  -3e-06  1.017799  0.0
H  H15  1  0.61880774  0.43244275  0.38180336  1  0.06597  1e-05  0.101076  0.107858  3e-06  1.017768  0.0
H  H16  1  0.24555738  0.63343193  0.52531199  1  0.0708  -1e-05  0.090955  0.101826  -2e-06  1.026534  0.0
H  H17  1  0.75443342  0.36657388  0.47468372  1  0.070443  1e-05  0.090944  0.101808  2e-06  1.026589  0.0
H  H18  1  0.18366926  0.52464228  0.63784073  1  0.075194  -7e-06  0.091157  0.1  -3e-06  1.024687  0.0
H  H19  1  0.81632052  0.47536152  0.36215836  1  0.075159  7e-06  0.091192  0.100012  3e-06  1.024736  0.0
C  C20  1  0.00772770  0.23552296  0.99979890  1  1.579355  0.000167  0.211655  0.578641  0.000183  4.206265  0.0
C  C21  1  0.99227092  0.76447387  0.00020753  1  1.579516  -0.000162  0.211623  0.578524  -0.000181  4.206473  0.0
C  C22  1  0.00634088  0.37305844  0.99831179  1  0.067102  -0.000888  -0.00652  -0.037301  -0.000627  3.933854  -0.001
C  C23  1  0.99362611  0.62692618  0.00168869  1  0.067351  0.000887  -0.006589  -0.037303  0.000628  3.933948  0.001
C  C24  1  0.95660679  0.41903979  0.88282143  1  0.027949  -0.000296  0.018374  0.125833  -0.000154  4.024839  0.0
C  C25  1  0.04338425  0.58095498  0.11717397  1  0.027794  0.000299  0.018418  0.125934  0.000155  4.024892  0.0
C  C26  1  0.94918116  0.54463196  0.88445775  1  0.022945  -0.001285  -0.087104  -0.160973  -0.00081  3.966126  -0.001
C  C27  1  0.05080149  0.45536177  0.11554117  1  0.022823  0.001288  -0.087117  -0.161022  0.000812  3.966197  0.001
C  C28  1  0.00039344  0.00920968  0.23353898  1  1.595035  -0.000236  0.211127  0.576793  -0.000164  4.199328  0.0
C  C29  1  0.99963299  0.99079834  0.76647063  1  1.595679  0.000239  0.211109  0.576813  0.000165  4.199904  0.0
C  C30  1  0.00121806  0.00863171  0.37148236  1  -0.003672  0.000343  -0.007445  -0.047571  0.000285  3.938808  0.0
C  C31  1  0.99879394  0.99137423  0.62852473  1  -0.003647  -0.000345  -0.007479  -0.04762  -0.000287  3.938789  0.0
C  C32  1  0.09265668  0.12172437  0.46779800  1  -0.009631  0.001212  0.017991  0.122156  0.000727  4.029495  0.001
C  C33  1  0.90735977  0.87827456  0.53220897  1  -0.009537  -0.001212  0.018007  0.122163  -0.000727  4.029412  -0.001
C  C34  1  0.09169645  0.11265726  0.59483564  1  0.093363  0.001321  -0.085699  -0.161426  0.000844  3.966308  0.001
C  C35  1  0.90832101  0.88734368  0.40516888  1  0.092775  -0.001321  -0.085669  -0.161388  -0.000844  3.966144  -0.001
C  C36  1  0.51219871  0.76552605  0.79676681  1  1.413801  -0.000416  0.173786  0.313834  -0.000344  4.092816  0.0
C  C37  1  0.48780215  0.23447279  0.20322826  1  1.414018  0.000416  0.173797  0.313851  0.000344  4.092943  0.0
C  C38  1  0.25333333  0.78894575  0.73783537  1  0.260416  2.5e-05  -0.135052  -0.263898  1e-05  3.887976  0.0
C  C39  1  0.74666259  0.21105909  0.26216150  1  0.260823  -2.4e-05  -0.135104  -0.263972  -9e-06  3.88788  0.0
C  C40  1  0.28785590  0.60570961  0.62018389  1  0.237844  -2.2e-05  -0.134496  -0.274972  -1.4e-05  3.963795  0.0
C  C41  1  0.71213393  0.39429419  0.37981153  1  0.238666  2.2e-05  -0.13447  -0.274998  1.4e-05  3.963834  0.0
N  N42  1  0.35679172  0.72135422  0.72095057  1  -1.212878  -0.00022  -0.285083  0.026703  -0.000121  3.707637  0.0
N  N43  1  0.64320532  0.27865062  0.27904656  1  -1.212937  0.00022  -0.285043  0.026918  0.000121  3.707305  0.0
Cl  Cl44  1  0.90808954  0.32155980  0.73601121  1  -0.213301  -0.000324  0.010126  -0.062435  -0.000221  1.507663  0.0
Cl  Cl45  1  0.09189560  0.67843193  0.26397995  1  -0.213231  0.000326  0.01012  -0.062464  0.000222  1.50769  0.0
Cl  Cl46  1  0.20440267  0.27691395  0.43198231  1  -0.213347  8.5e-05  0.007405  -0.06411  6.9e-05  1.515983  0.0
Cl  Cl47  1  0.79560898  0.72308194  0.56802161  1  -0.213247  -8.4e-05  0.007413  -0.064092  -6.8e-05  1.51602  0.0
O  O48  1  0.86794088  0.13889763  0.96869111  1  -1.080635  0.080871  -0.298901  -0.497045  0.052559  2.339887  0.073
O  O49  1  0.13205693  0.86109718  0.03130219  1  -1.080881  -0.080873  -0.298903  -0.497037  -0.052557  2.340017  -0.073
O  O50  1  0.14734644  0.23113246  0.03401644  1  -1.086176  -0.082356  -0.30609  -0.51307  -0.053611  2.335361  -0.075
O  O51  1  0.85264942  0.76885633  0.96598814  1  -1.086236  0.082366  -0.306065  -0.513025  0.053619  2.335442  0.075
O  O52  1  0.86005405  0.96052261  0.15024752  1  -1.084514  0.081498  -0.300153  -0.492861  0.052941  2.317308  0.074
O  O53  1  0.13996543  0.03948035  0.84976214  1  -1.085057  -0.081502  -0.300131  -0.492817  -0.05294  2.317532  -0.074
O  O54  1  0.13924247  0.05455282  0.21453548  1  -1.09123  -0.079191  -0.307754  -0.528325  -0.051346  2.397771  -0.072
O  O55  1  0.86078330  0.94543511  0.78546410  1  -1.091385  0.079173  -0.307739  -0.528329  0.051336  2.397992  0.072
O  O56  1  0.57732883  0.86272008  0.88605482  1  -1.154842  -0.001233  -0.309157  -0.437418  -0.000555  2.303103  0.0
O  O57  1  0.42266756  0.13728577  0.11394312  1  -1.155032  0.001229  -0.309134  -0.437451  0.000552  2.303353  0.0
