# generated using pymatgen
data_CuMo4H28C40N8O13
_symmetry_space_group_name_H-M   'P 1'
_cell_length_a   8.15830067
_cell_length_b   9.19922979
_cell_length_c   13.84765962
_cell_angle_alpha   78.42665720
_cell_angle_beta   84.48506475
_cell_angle_gamma   77.19551429
_symmetry_Int_Tables_number   1
_chemical_formula_structural   CuMo4H28C40N8O13
_chemical_formula_sum   'Cu1 Mo4 H28 C40 N8 O13'
_cell_volume   991.36754027
_cell_formula_units_Z   1
loop_
 _symmetry_equiv_pos_site_id
 _symmetry_equiv_pos_as_xyz
  1  'x, y, z'
loop_
 _atom_site_type_symbol
 _atom_site_label
 _atom_site_symmetry_multiplicity
 _atom_site_fract_x
 _atom_site_fract_y
 _atom_site_fract_z
 _atom_site_occupancy
 _atom_site_hle17_ddec_charge
 _atom_site_hle17_ddec_spin_density
 _atom_site_hle17_ddec_sum_bond_order
 _atom_site_hle17_magmom
 _atom_site_hse06_10hf_ddec_charge
 _atom_site_hse06_10hf_ddec_spin_density
 _atom_site_hse06_10hf_ddec_sum_bond_order
 _atom_site_hse06_10hf_magmom
 _atom_site_hse06_ddec_charge
 _atom_site_hse06_ddec_spin_density
 _atom_site_hse06_ddec_sum_bond_order
 _atom_site_hse06_magmom
 _atom_site_pbe_cm5_charge
 _atom_site_pbe_ddec_charge
 _atom_site_pbe_ddec_spin_density
 _atom_site_pbe_ddec_sum_bond_order
 _atom_site_pbe_magmom
Cu  Cu0  1  0.49999973  0.49999795  0.50000006  1  1.03439  -0.718569  1.780546  -0.534  1.040237  -0.790928  2.159015  -0.646  1.112312  -0.858169  2.10522  -0.733  0.767517  0.992444  -0.738309  2.201199  -0.583
Mo  Mo1  1  0.16035837  0.81952894  0.42489574  1  2.207188  0.000459  4.142903  -0.005  2.199406  -0.010187  4.735453  -0.017  2.307072  -0.007151  4.689788  -0.014  1.5382  2.122434  -0.012487  4.770312  -0.019
Mo  Mo2  1  0.83964347  0.18047266  0.57510563  1  2.207222  0.000464  4.142886  -0.005  2.19946  -0.010183  4.735421  -0.017  2.307121  -0.007153  4.689765  -0.014  1.538254  2.122486  -0.012486  4.770273  -0.019
Mo  Mo3  1  0.30100870  0.11727875  0.55087030  1  2.221666  0.003322  4.093086  0.003  2.230713  0.001847  4.620984  0.001  2.332379  0.001755  4.585498  0.001  1.55424  2.16057  0.001429  4.648042  0.001
Mo  Mo4  1  0.69899336  0.88272172  0.44912904  1  2.221746  0.003325  4.093001  0.003  2.230801  0.001848  4.620863  0.001  2.332464  0.001772  4.585382  0.001  1.554302  2.160668  0.001429  4.647922  0.001
H  H5  1  0.37522852  0.08413673  0.30786311  1  0.083484  4e-06  0.957062  0.0  0.089558  7e-06  1.026337  0.0  0.092435  4e-06  1.02299  0.0  0.114675  0.087764  8e-06  1.028114  0.0
H  H6  1  0.62477097  0.91586940  0.69213564  1  0.083467  9e-06  0.957002  0.0  0.089527  6e-06  1.026318  0.0  0.092402  5e-06  1.022974  0.0  0.114682  0.087732  8e-06  1.028086  0.0
H  H7  1  0.33553795  0.24132677  0.14057995  1  0.109421  6e-06  0.980662  0.0  0.116313  2e-06  1.049374  0.0  0.12006  2e-06  1.047733  0.0  0.106987  0.113902  1e-06  1.050194  0.0
H  H8  1  0.66446627  0.75868052  0.85942195  1  0.109434  7e-06  0.980669  0.0  0.116368  2e-06  1.04931  0.0  0.120116  3e-06  1.047667  0.0  0.107005  0.113945  1e-06  1.050137  0.0
H  H9  1  0.04200304  0.60396046  0.27873117  1  0.116062  1e-06  0.953696  0.0  0.12086  -5e-06  1.02216  0.0  0.125406  -3e-06  1.019078  0.0  0.111168  0.118335  -1e-06  1.022948  0.0
H  H10  1  0.95798455  0.39603879  0.72126997  1  0.11609  2e-06  0.953662  0.0  0.120821  -5e-06  1.0222  0.0  0.125365  -3e-06  1.019123  0.0  0.111163  0.118296  -1e-06  1.022987  0.0
H  H11  1  0.09705344  0.43151353  0.44139019  1  0.089631  1e-06  0.93463  0.0  0.100332  8e-06  0.993016  0.0  0.103124  7e-06  0.990024  0.0  0.117408  0.098277  4e-06  0.9953  0.0
H  H12  1  0.90293443  0.56848458  0.55861182  1  0.089795  2e-06  0.934562  0.0  0.10032  8e-06  0.993134  0.0  0.103109  7e-06  0.990144  0.0  0.117384  0.098265  4e-06  0.995419  0.0
H  H13  1  0.35161531  0.40571033  0.01504287  1  0.112332  -3.4e-05  0.972221  0.0  0.114351  -1.2e-05  1.049775  0.0  0.119114  -5e-06  1.046288  0.0  0.105132  0.111273  -1.9e-05  1.051584  0.0
H  H14  1  0.64838824  0.59428901  0.98495581  1  0.11232  -3.4e-05  0.972184  0.0  0.114321  -1.1e-05  1.049772  0.0  0.119092  -5e-06  1.046277  0.0  0.105118  0.111244  -1.9e-05  1.05158  0.0
H  H15  1  0.03837834  0.80236996  0.85331723  1  0.107258  -8.3e-05  0.964424  0.0  0.119081  -4.1e-05  1.024284  0.0  0.122074  -3e-05  1.02324  0.0  0.109332  0.117003  -5e-05  1.02492  0.0
H  H16  1  0.96162699  0.19762712  0.14668236  1  0.107277  -8.2e-05  0.964398  0.0  0.119129  -4.1e-05  1.024222  0.0  0.122123  -3e-05  1.023174  0.0  0.109366  0.117054  -5e-05  1.024861  0.0
H  H17  1  0.36774622  0.32724031  0.86799695  1  0.114644  -0.000627  0.967285  -0.001  0.121066  -0.000459  1.034822  -0.001  0.123627  -0.000312  1.034768  0.0  0.110857  0.11934  -0.000581  1.034881  -0.001
H  H18  1  0.63224803  0.67275671  0.13200263  1  0.114663  -0.000628  0.967305  -0.001  0.121072  -0.000459  1.034843  -0.001  0.123635  -0.000312  1.034789  0.0  0.110881  0.119347  -0.00058  1.034903  -0.001
H  H19  1  0.49596447  0.29420850  0.70117655  1  0.092611  -0.001087  0.953154  -0.002  0.098626  -0.000798  1.019374  -0.002  0.100111  -0.000526  1.017312  -0.001  0.121187  0.097464  -0.001033  1.020996  -0.002
H  H20  1  0.50402951  0.70578965  0.29882290  1  0.092643  -0.001087  0.95308  -0.002  0.098657  -0.000798  1.019299  -0.002  0.100143  -0.000526  1.017235  -0.001  0.121199  0.097497  -0.001034  1.020923  -0.002
H  H21  1  0.38572850  0.75823456  0.59650087  1  0.081614  -0.001124  0.988966  -0.002  0.082998  -0.000796  1.065459  -0.002  0.08462  -0.000484  1.063226  -0.001  0.11489  0.081797  -0.001072  1.067098  -0.002
H  H22  1  0.61427586  0.24176137  0.40349821  1  0.081577  -0.001122  0.989017  -0.002  0.082975  -0.000796  1.065495  -0.002  0.084597  -0.000484  1.063263  -0.001  0.114888  0.081775  -0.001072  1.067136  -0.002
H  H23  1  0.25320403  0.81103346  0.75528239  1  0.120434  -0.000569  0.978281  -0.001  0.130011  -0.000413  1.038521  0.0  0.133164  -0.000276  1.037129  0.0  0.109562  0.128011  -0.000524  1.039325  -0.001
H  H24  1  0.74679884  0.18896360  0.24471735  1  0.120498  -0.00057  0.97821  -0.001  0.130046  -0.000413  1.038481  0.0  0.133199  -0.000275  1.03709  0.0  0.109601  0.12805  -0.000524  1.039286  -0.001
H  H25  1  0.85790271  0.98447362  0.85541587  1  0.113372  -1.1e-05  0.96855  0.0  0.125939  -1.9e-05  1.025297  0.0  0.129284  -1.2e-05  1.023568  0.0  0.10307  0.123397  -2.4e-05  1.02681  0.0
H  H26  1  0.14209524  0.01552342  0.14458419  1  0.113422  -1e-05  0.968486  0.0  0.125973  -1.9e-05  1.025257  0.0  0.129319  -1.2e-05  1.023526  0.0  0.103081  0.123434  -2.4e-05  1.026774  0.0
H  H27  1  0.63122673  0.20009861  0.86863234  1  0.063465  -3e-06  0.957629  0.0  0.073931  5e-06  1.021718  0.0  0.07592  0.0  1.020449  0.0  0.104912  0.072383  7e-06  1.022668  0.0
H  H28  1  0.36877562  0.79990072  0.13136786  1  0.063444  -4e-06  0.957711  0.0  0.07391  5e-06  1.021786  0.0  0.075902  0.0  1.020514  0.0  0.104932  0.072363  7e-06  1.022738  0.0
H  H29  1  0.57180748  0.06785692  0.17241435  1  0.06711  -1.4e-05  0.971773  0.0  0.078318  -7e-06  1.034652  0.0  0.080295  -6e-06  1.032983  0.0  0.104817  0.076677  -6e-06  1.036192  0.0
H  H30  1  0.42820391  0.93215155  0.82759055  1  0.06711  -1.2e-05  0.971844  0.0  0.078341  -7e-06  1.034678  0.0  0.080317  -6e-06  1.033011  0.0  0.104855  0.076697  -6e-06  1.036215  0.0
H  H31  1  0.80721779  0.84744614  0.17311829  1  0.11538  -0.0  0.956141  0.0  0.122172  -2e-06  1.020818  0.0  0.12621  -3e-06  1.018118  0.0  0.107604  0.119337  -3e-06  1.022626  0.0
H  H32  1  0.19279430  0.15255893  0.82688124  1  0.115429  -0.0  0.956147  0.0  0.12222  -2e-06  1.020832  0.0  0.126258  -3e-06  1.018129  0.0  0.10763  0.119381  -3e-06  1.022642  0.0
C  C33  1  0.30203976  0.19981293  0.29864258  1  0.13927  0.000182  3.708399  0.0  0.112797  2.4e-05  3.965878  0.0  0.121276  3.5e-05  3.982344  0.0  0.044152  0.107492  -4.1e-05  3.953714  0.0
C  C34  1  0.69795520  0.80018636  0.70135738  1  0.139314  0.000149  3.708279  0.0  0.112817  2.6e-05  3.965834  0.0  0.121296  3.6e-05  3.9823  0.0  0.044137  0.107512  -4.1e-05  3.953662  0.0
C  C35  1  0.27945123  0.28902865  0.20502171  1  -0.158774  -0.000161  3.686284  0.0  -0.173863  -4e-06  3.927616  0.0  -0.181621  -1.5e-05  3.947959  0.0  -0.083492  -0.169164  -7.7e-05  3.913877  0.0
C  C36  1  0.72054664  0.71097406  0.79497904  1  -0.158858  -0.000142  3.686392  0.0  -0.173959  -5e-06  3.927757  0.0  -0.181718  -1.9e-05  3.948098  0.0  -0.083492  -0.169248  -7.7e-05  3.914015  0.0
C  C37  1  0.18501057  0.43795784  0.19537700  1  0.075332  0.000261  3.737589  0.0  0.088249  4.6e-05  3.963087  0.0  0.093021  5.9e-05  3.983889  0.0  0.013996  0.08537  6e-06  3.949071  0.0
C  C38  1  0.81498333  0.56204599  0.80462313  1  0.075411  0.000233  3.737561  0.0  0.088305  4.3e-05  3.963088  0.0  0.09308  6.8e-05  3.983887  0.0  0.013942  0.085422  6e-06  3.949069  0.0
C  C39  1  0.11627348  0.48918178  0.28245866  1  -0.13992  -0.000161  3.68348  0.0  -0.160778  -8e-06  3.933732  0.0  -0.167765  -5e-06  3.952434  0.0  -0.079959  -0.156039  -6e-05  3.919681  0.0
C  C40  1  0.88372138  0.51082319  0.71754125  1  -0.14001  -0.000142  3.683573  0.0  -0.160814  -6e-06  3.933799  0.0  -0.167803  -9e-06  3.9525  0.0  -0.079952  -0.156075  -6e-05  3.919745  0.0
C  C41  1  0.14578532  0.39327025  0.37275154  1  0.145052  0.000191  3.693833  0.0  0.117342  7.8e-05  3.950259  0.0  0.125675  7.1e-05  3.966415  0.0  0.043278  0.111964  7.7e-05  3.93919  0.0
C  C42  1  0.85420866  0.60672790  0.62724791  1  0.144939  0.000161  3.693934  0.0  0.117396  7.6e-05  3.950271  0.0  0.125731  7.2e-05  3.966425  0.0  0.043306  0.112014  7.7e-05  3.939204  0.0
C  C43  1  0.15416936  0.53877872  0.09800207  1  0.204544  -0.000811  3.774402  -0.001  0.205526  -0.000161  4.020506  0.0  0.210987  -0.000193  4.039958  0.0  0.120593  0.201485  -0.000118  4.007478  0.0
C  C44  1  0.84583272  0.46122175  0.90199799  1  0.204523  -0.000804  3.774321  -0.001  0.20552  -0.000163  4.02042  0.0  0.210981  -0.000188  4.039871  0.0  0.12063  0.201483  -0.000118  4.007388  0.0
C  C45  1  0.24789464  0.50451298  0.01185990  1  -0.167347  0.002378  3.61388  0.001  -0.192897  0.000748  3.859188  0.0  -0.198505  0.000917  3.877163  0.001  -0.073971  -0.187877  0.000646  3.846364  0.0
C  C46  1  0.75210507  0.49548180  0.98813964  1  -0.167306  0.002364  3.613977  0.001  -0.192812  0.000755  3.859281  0.0  -0.198428  0.000903  3.877251  0.001  -0.073953  -0.187792  0.000645  3.846454  0.0
C  C47  1  0.20671533  0.60063914  0.92167483  1  0.102526  -0.001595  3.7605  -0.002  0.115983  -0.000338  3.993659  -0.001  0.118913  -0.000328  4.014132  -0.001  0.009567  0.113397  -0.000378  3.979792  -0.001
C  C48  1  0.79328066  0.39935561  0.07832350  1  0.102488  -0.001589  3.760616  -0.002  0.115882  -0.00034  3.993885  -0.001  0.118811  -0.000324  4.014361  -0.001  0.009587  0.113296  -0.000378  3.980019  -0.001
C  C49  1  0.07589043  0.72774623  0.92244136  1  -0.174368  0.002642  3.663286  0.002  -0.205295  0.000744  3.913688  0.0  -0.211284  0.000906  3.934119  0.001  -0.075601  -0.20053  0.000572  3.900372  0.0
C  C50  1  0.92410584  0.27224739  0.07755782  1  -0.174383  0.002631  3.663278  0.002  -0.205317  0.000743  3.913723  0.0  -0.211302  0.000904  3.934153  0.001  -0.075622  -0.200554  0.000572  3.900413  0.0
C  C51  1  0.99165670  0.75677953  0.01163402  1  0.210355  -0.000747  3.785649  -0.001  0.21134  -0.000123  4.033331  0.0  0.217541  -0.000165  4.052732  0.0  0.122732  0.205831  -8e-05  4.022533  0.0
C  C52  1  0.00834686  0.24321981  0.98836538  1  0.210372  -0.000743  3.785809  -0.001  0.211361  -0.000125  4.033482  0.0  0.217556  -0.000164  4.052887  0.0  0.12272  0.205851  -8e-05  4.022687  0.0
C  C53  1  0.29436809  0.57240744  0.82681847  1  0.107378  0.01228  3.73784  0.008  0.118009  0.004209  3.965901  0.003  0.122888  0.004746  3.986999  0.003  0.016563  0.115091  0.003836  3.951627  0.002
C  C54  1  0.70562986  0.42758960  0.17318160  1  0.107417  0.012242  3.737906  0.008  0.118036  0.004204  3.966004  0.003  0.122914  0.004739  3.987104  0.003  0.016545  0.115119  0.003836  3.951731  0.002
C  C55  1  0.36955264  0.42638709  0.81005115  1  -0.14886  -0.010631  3.666765  -0.012  -0.167609  -0.003955  3.913206  -0.005  -0.175871  -0.003428  3.933937  -0.004  -0.075133  -0.162352  -0.00443  3.899265  -0.005
C  C56  1  0.63044107  0.57361219  0.18994815  1  -0.148844  -0.010602  3.666723  -0.012  -0.167564  -0.003951  3.913161  -0.005  -0.175825  -0.003424  3.933891  -0.004  -0.075151  -0.162306  -0.004429  3.899221  -0.005
C  C57  1  0.44078437  0.40661727  0.71693253  1  0.141627  0.00932  3.661153  0.006  0.11669  0.001327  3.910684  0.0  0.126309  0.003223  3.928765  0.002  0.05211  0.110403  1.2e-05  3.89803  -0.001
C  C58  1  0.55921355  0.59337977  0.28306609  1  0.141534  0.009288  3.661106  0.006  0.116602  0.001325  3.91063  0.0  0.126219  0.003215  3.928714  0.002  0.052099  0.110318  1.1e-05  3.897976  -0.001
C  C59  1  0.37737188  0.66545387  0.65795639  1  0.136453  0.010896  3.70162  0.007  0.107998  0.002327  3.958822  0.001  0.117264  0.004226  3.97796  0.003  0.045123  0.101909  0.000905  3.945673  0.0
C  C60  1  0.62262553  0.33454543  0.34204341  1  0.136537  0.010859  3.701757  0.007  0.108055  0.002331  3.958975  0.001  0.117323  0.004219  3.978112  0.003  0.04515  0.101964  0.000906  3.945832  0.0
C  C61  1  0.30192631  0.69348316  0.74822104  1  -0.15419  -0.010832  3.686008  -0.012  -0.172743  -0.003912  3.928745  -0.005  -0.181985  -0.003358  3.950687  -0.004  -0.080806  -0.166864  -0.004441  3.913931  -0.005
C  C62  1  0.69807276  0.30651956  0.25177819  1  -0.154305  -0.010803  3.686081  -0.012  -0.172821  -0.003911  3.928852  -0.005  -0.182062  -0.003353  3.950792  -0.004  -0.080831  -0.166941  -0.004441  3.914041  -0.005
C  C63  1  0.85313116  0.89138037  0.01418571  1  0.054223  0.000204  3.760447  0.0  0.065447  3.7e-05  3.992876  0.0  0.067868  5.9e-05  4.015374  0.0  0.005073  0.063656  1e-06  3.978349  0.0
C  C64  1  0.14686533  0.10861779  0.98581574  1  0.054192  0.00022  3.760416  0.0  0.065412  4e-05  3.992848  0.0  0.067837  6.8e-05  4.015346  0.0  0.005073  0.063622  1e-06  3.978323  0.0
C  C65  1  0.80032954  0.99506654  0.92852360  1  -0.151441  -0.000312  3.692726  0.0  -0.17085  -7e-05  3.938489  0.0  -0.177785  -5.8e-05  3.959867  0.0  -0.087129  -0.166372  -5.1e-05  3.924519  0.0
C  C66  1  0.19967478  0.00493507  0.07147905  1  -0.151446  -0.000322  3.692563  0.0  -0.170844  -6.8e-05  3.93831  0.0  -0.177783  -6.4e-05  3.959692  0.0  -0.087138  -0.166372  -5.1e-05  3.924349  0.0
C  C67  1  0.66901028  0.11885903  0.93568012  1  0.126371  0.000198  3.743849  0.0  0.1025  3.7e-05  4.003633  0.0  0.108031  3.7e-05  4.021682  0.0  0.037721  0.098991  -6e-06  3.991733  0.0
C  C68  1  0.33099556  0.88114145  0.06432331  1  0.126405  0.000215  3.74383  0.0  0.102547  3.9e-05  4.003588  0.0  0.108075  4e-05  4.021638  0.0  0.037728  0.099035  -6e-06  3.991694  0.0
C  C69  1  0.63743482  0.04670180  0.10264704  1  0.110905  0.000195  3.752429  0.0  0.089  2e-05  4.009062  0.0  0.09383  3.9e-05  4.027857  0.0  0.033733  0.08561  -1.5e-05  3.996796  0.0
C  C70  1  0.36256827  0.95329981  0.89735497  1  0.110883  0.000202  3.752628  0.0  0.08895  2.5e-05  4.009299  0.0  0.093779  3.6e-05  4.028096  0.0  0.033702  0.085563  -1.5e-05  3.997025  0.0
C  C71  1  0.76944526  0.92120347  0.10361729  1  -0.149452  -0.000216  3.70057  0.0  -0.167812  -5e-05  3.947485  0.0  -0.174064  -5.5e-05  3.967538  0.0  -0.087151  -0.163308  -7.2e-05  3.93403  0.0
C  C72  1  0.23055955  0.07879588  0.89638275  1  -0.149494  -0.000225  3.700568  0.0  -0.167857  -5.4e-05  3.947495  0.0  -0.174107  -5.7e-05  3.967543  0.0  -0.08717  -0.163346  -7.2e-05  3.934024  0.0
N  N73  1  0.23724064  0.25017474  0.38179031  1  -0.368137  -0.000394  3.254625  -0.001  -0.320513  -0.000172  3.521838  0.0  -0.340458  -7.6e-05  3.544044  0.0  -0.33828  -0.306872  -0.000145  3.506566  0.0
N  N74  1  0.76275307  0.74982454  0.61820900  1  -0.368138  -0.000379  3.254596  -0.001  -0.32051  -0.000172  3.521749  0.0  -0.340454  -7.5e-05  3.543953  0.0  -0.33827  -0.306871  -0.000144  3.506481  0.0
N  N75  1  0.44200520  0.52446020  0.64139306  1  -0.290278  -0.088549  3.288422  -0.113  -0.244427  -0.053913  3.570166  -0.074  -0.274923  -0.042177  3.591976  -0.062  -0.340258  -0.224665  -0.061743  3.555138  -0.081
N  N76  1  0.55799124  0.47553796  0.35860623  1  -0.290272  -0.088529  3.288514  -0.113  -0.244428  -0.053914  3.570287  -0.074  -0.274925  -0.042171  3.592097  -0.062  -0.340302  -0.224666  -0.061741  3.555259  -0.081
N  N77  1  0.58534185  0.14621690  0.02068504  1  -0.335798  -0.000204  3.086131  0.0  -0.300165  -4.1e-05  3.363472  0.0  -0.311597  -4.5e-05  3.38065  0.0  -0.329413  -0.293047  -3.7e-05  3.35219  0.0
N  N78  1  0.41466220  0.85378584  0.97931676  1  -0.335794  -0.000211  3.086083  0.0  -0.300168  -4.4e-05  3.363446  0.0  -0.311601  -4.2e-05  3.380626  0.0  -0.329454  -0.293049  -3.7e-05  3.352159  0.0
N  N79  1  0.03024128  0.66265906  0.09771223  1  -0.363364  0.001832  3.043527  0.001  -0.334014  0.000557  3.305674  0.0  -0.345485  0.000681  3.321256  0.0  -0.300561  -0.325816  0.000398  3.295729  0.0
N  N80  1  0.96976255  0.33733914  0.90228730  1  -0.363368  0.001824  3.043443  0.001  -0.334009  0.000559  3.305561  0.0  -0.345481  0.000674  3.321155  0.0  -0.300585  -0.325812  0.000398  3.29562  0.0
O  O81  1  0.37477912  0.28006628  0.54867793  1  -0.735763  0.000583  1.573737  -0.002  -0.754991  0.00074  1.86581  -0.001  -0.783751  0.001073  1.854182  -0.001  -0.51767  -0.735305  0.000337  1.872938  -0.001
O  O82  1  0.62522984  0.71993082  0.45131854  1  -0.735781  0.000581  1.573659  -0.002  -0.755003  0.00074  1.865719  -0.001  -0.783766  0.00107  1.854104  -0.001  -0.517715  -0.735317  0.000337  1.872846  -0.001
O  O83  1  0.49999890  0.99999821  0.49999989  1  -0.926041  0.000173  1.860922  0.0  -0.928092  0.000137  2.182128  0.0  -0.974155  8.9e-05  2.177798  0.0  -0.604804  -0.896682  -4.6e-05  2.185615  0.0
O  O84  1  0.30855471  0.02913350  0.67271756  1  -0.678168  -6e-06  1.455887  0.0  -0.672609  3.2e-05  1.697727  0.0  -0.697922  3.9e-05  1.688285  0.0  -0.506182  -0.655759  -2.9e-05  1.705113  0.0
O  O85  1  0.69145054  0.97086926  0.32728272  1  -0.678246  -1e-05  1.45591  0.0  -0.672676  3.1e-05  1.697743  0.0  -0.697991  3.1e-05  1.688307  0.0  -0.506211  -0.655828  -2.9e-05  1.705134  0.0
O  O86  1  0.19301605  0.94914300  0.49785593  1  -0.905621  -0.009284  1.712004  -0.013  -0.905099  -0.004945  2.023506  -0.008  -0.944592  -0.003087  2.011585  -0.005  -0.580039  -0.87734  -0.006927  2.032122  -0.01
O  O87  1  0.80698486  0.05085746  0.50214710  1  -0.905636  -0.009283  1.712015  -0.013  -0.905134  -0.004946  2.023536  -0.008  -0.944626  -0.003086  2.011619  -0.005  -0.580054  -0.877383  -0.006926  2.03216  -0.01
O  O88  1  0.21554876  0.88348099  0.30287554  1  -0.739779  -0.007791  1.405464  -0.011  -0.731329  -0.003823  1.655868  -0.006  -0.759962  -0.002324  1.642406  -0.004  -0.534168  -0.710162  -0.006086  1.663991  -0.009
O  O89  1  0.78444815  0.11652058  0.69712542  1  -0.739756  -0.007794  1.405427  -0.011  -0.731322  -0.003825  1.655834  -0.006  -0.759951  -0.002322  1.642372  -0.004  -0.534192  -0.710151  -0.006087  1.663948  -0.009
O  O90  1  0.94314033  0.79167872  0.43686420  1  -0.918806  0.000167  1.787745  0.0  -0.909036  -3e-05  2.08992  0.0  -0.951112  0.000227  2.077899  0.0  -0.601846  -0.878919  -0.000251  2.098172  0.0
O  O91  1  0.05686152  0.20832288  0.56313789  1  -0.918876  0.000163  1.787802  0.0  -0.90913  -2.7e-05  2.09  0.0  -0.951206  0.000227  2.077974  0.0  -0.601899  -0.879009  -0.000251  2.098245  0.0
O  O92  1  0.28643388  0.63831273  0.46426224  1  -0.843828  -0.050646  1.733337  -0.07  -0.846583  -0.033118  2.064636  -0.049  -0.888875  -0.024945  2.048295  -0.04  -0.568361  -0.816639  -0.038277  2.074509  -0.054
O  O93  1  0.71356792  0.36168887  0.53573696  1  -0.8438  -0.050646  1.733291  -0.07  -0.846547  -0.033118  2.064577  -0.049  -0.888836  -0.024946  2.048232  -0.04  -0.568348  -0.816606  -0.038277  2.074451  -0.054
