# generated using pymatgen
data_Zn3H8C12N2(OF)4
_symmetry_space_group_name_H-M   'P 1'
_cell_length_a   8.19449276
_cell_length_b   11.66355958
_cell_length_c   11.66355925
_cell_angle_alpha   70.69689305
_cell_angle_beta   75.44883826
_cell_angle_gamma   75.44895576
_symmetry_Int_Tables_number   1
_chemical_formula_structural   Zn3H8C12N2(OF)4
_chemical_formula_sum   'Zn6 H16 C24 N4 O8 F8'
_cell_volume   1000.94241234
_cell_formula_units_Z   2
loop_
 _symmetry_equiv_pos_site_id
 _symmetry_equiv_pos_as_xyz
  1  'x, y, z'
loop_
 _atom_site_type_symbol
 _atom_site_label
 _atom_site_symmetry_multiplicity
 _atom_site_fract_x
 _atom_site_fract_y
 _atom_site_fract_z
 _atom_site_occupancy
 _atom_site_pbe_bader_charge
 _atom_site_pbe_bader_spin_density
 _atom_site_pbe_cm5_charge
 _atom_site_pbe_ddec_charge
 _atom_site_pbe_ddec_spin_density
 _atom_site_pbe_ddec_sum_bond_order
 _atom_site_pbe_magmom
Zn  Zn0  1  0.55856395  0.92437140  0.89779569  1  1.405526  0  0.6481  0.95679  0  2.302438  0
Zn  Zn1  1  0.94143620  0.10220488  0.07562892  1  1.405568  0  0.648088  0.95697  0  2.30247  0
Zn  Zn2  1  0.44143578  0.07562836  0.10220601  1  1.405573  0  0.648095  0.957009  0  2.302431  0
Zn  Zn3  1  0.05856353  0.89779488  0.92437192  1  1.405513  0  0.64809  0.956756  0  2.302454  0
Zn  Zn4  1  0.24999992  0.86714204  0.13285737  1  1.407583  0  0.636103  1.001407  0  2.224685  0
Zn  Zn5  1  0.74999981  0.13285772  0.86714262  1  1.407594  0  0.636112  1.001568  0  2.22466  0
H  H6  1  0.23709489  0.29595654  0.95408619  1  0.15538  0  0.126406  0.112369  0  0.971192  0
H  H7  1  0.49380874  0.24158855  0.23659760  1  0.109307  0  0.119544  0.091769  0  0.988139  0
H  H8  1  0.40939654  0.46775443  0.22912806  1  0.111517  0  0.115811  0.13033  0  0.984376  0
H  H9  1  0.14549124  0.52467157  0.93382741  1  0.102889  0  0.110242  0.119604  0  1.010169  0
H  H10  1  0.26290409  0.04591434  0.70404235  1  0.155433  0  0.126402  0.112384  0  0.971207  0
H  H11  1  0.00619351  0.76340073  0.75841282  1  0.109332  0  0.119541  0.091756  0  0.988186  0
H  H12  1  0.09060484  0.77086927  0.53224655  1  0.111501  0  0.115832  0.130344  0  0.984374  0
H  H13  1  0.35450567  0.06617274  0.47532724  1  0.102897  0  0.110257  0.119643  0  1.010178  0
H  H14  1  0.76290988  0.70404322  0.04591204  1  0.155285  0  0.126381  0.11235  0  0.971167  0
H  H15  1  0.50618972  0.75841121  0.76340518  1  0.109319  0  0.119548  0.091745  0  0.988218  0
H  H16  1  0.59060193  0.53224533  0.77087386  1  0.111415  0  0.115804  0.130322  0  0.984433  0
H  H17  1  0.85451329  0.47532911  0.06617056  1  0.102868  0  0.11026  0.119646  0  1.010186  0
H  H18  1  0.73709588  0.95408450  0.29595704  1  0.155367  0  0.126422  0.112398  0  0.971144  0
H  H19  1  0.99380646  0.23659811  0.24158828  1  0.109351  0  0.11954  0.091764  0  0.988199  0
H  H20  1  0.90939410  0.22912864  0.46775504  1  0.111552  0  0.115819  0.130333  0  0.984426  0
H  H21  1  0.64549051  0.93382609  0.52467282  1  0.102862  0  0.110242  0.119618  0  1.010187  0
C  C22  1  0.27238982  0.33831032  0.01262967  1  0.428326  0  0.05674  0.103365  0  3.912383  0
C  C23  1  0.41519568  0.30778861  0.17188363  1  0.414463  0  0.049289  0.09514  0  3.939467  0
C  C24  1  0.36882896  0.43214583  0.16754841  1  0.07068  0  -0.075797  -0.14447  0  3.947389  0
C  C25  1  0.22161529  0.46380628  0.00231711  1  0.014239  0  -0.076467  -0.142116  0  3.946871  0
C  C26  1  0.26927635  0.51214314  0.08128171  1  -0.05097  0  0.004393  0.014016  0  3.93656  0
C  C27  1  0.21608407  0.64850431  0.07075516  1  1.600065  0  0.221573  0.595188  0  4.168869  0
C  C28  1  0.22761056  0.98737013  0.66168893  1  0.42831  0  0.056672  0.103254  0  3.912367  0
C  C29  1  0.08480174  0.82811625  0.69220968  1  0.41435  0  0.049264  0.095132  0  3.939607  0
C  C30  1  0.13117320  0.83244906  0.56785563  1  0.070683  0  -0.075836  -0.144579  0  3.947533  0
C  C31  1  0.27838470  0.99768214  0.53619226  1  0.014289  0  -0.076508  -0.142206  0  3.946989  0
C  C32  1  0.23072197  0.91871711  0.48785624  1  -0.051016  0  0.00442  0.014145  0  3.936523  0
C  C33  1  0.28391753  0.92924379  0.35149520  1  1.600205  0  0.221528  0.59512  0  4.16899  0
C  C34  1  0.72761345  0.66169036  0.98736937  1  0.428613  0  0.056748  0.1034  0  3.912205  0
C  C35  1  0.58480302  0.69221022  0.82811684  1  0.414398  0  0.049276  0.095139  0  3.939512  0
C  C36  1  0.63117305  0.56785486  0.83245171  1  0.070783  0  -0.075805  -0.1445  0  3.947459  0
C  C37  1  0.77838948  0.53619348  0.99768112  1  0.014103  0  -0.076483  -0.142218  0  3.946897  0
C  C38  1  0.73072361  0.48785569  0.91871768  1  -0.05102  0  0.004388  0.014061  0  3.936533  0
C  C39  1  0.78391565  0.35149545  0.92924568  1  1.59962  0  0.221515  0.595148  0  4.168998  0
C  C40  1  0.77238917  0.01262963  0.33831020  1  0.428352  0  0.056738  0.103379  0  3.912322  0
C  C41  1  0.91519396  0.17188443  0.30779070  1  0.414373  0  0.049278  0.09511  0  3.939536  0
C  C42  1  0.86882424  0.16754978  0.43214592  1  0.070622  0  -0.075805  -0.144535  0  3.947467  0
C  C43  1  0.72161377  0.00231761  0.46380709  1  0.014267  0  -0.076518  -0.142221  0  3.946964  0
C  C44  1  0.76927523  0.08128265  0.51214419  1  -0.05099  0  0.004417  0.014139  0  3.936482  0
C  C45  1  0.71608244  0.07075505  0.64850504  1  1.599624  0  0.221516  0.595094  0  4.168968  0
N  N46  1  0.36715217  0.26175457  0.09637208  1  -1.237553  0  -0.321293  -0.237321  0  3.56161  0
N  N47  1  0.13284796  0.90362645  0.73824385  1  -1.237424  0  -0.321167  -0.237177  0  3.561499  0
N  N48  1  0.63284732  0.73824612  0.90362763  1  -1.237508  0  -0.321274  -0.23731  0  3.561543  0
N  N49  1  0.86715327  0.09637239  0.26175531  1  -1.237397  0  -0.321259  -0.237234  0  3.561536  0
O  O50  1  0.27630041  0.68719111  0.13846105  1  -1.14866  0  -0.307162  -0.537372  0  2.29225  0
O  O51  1  0.11724430  0.70993668  0.99414096  1  -1.1708  0  -0.31077  -0.558757  0  2.348219  0
O  O52  1  0.22369884  0.86153869  0.31280911  1  -1.148669  0  -0.30713  -0.537358  0  2.292341  0
O  O53  1  0.38275494  0.00586007  0.29006301  1  -1.170931  0  -0.310774  -0.558743  0  2.34818  0
O  O54  1  0.72369908  0.31280958  0.86154038  1  -1.148651  0  -0.307124  -0.537299  0  2.292253  0
O  O55  1  0.88275747  0.29006494  0.00586061  1  -1.170362  0  -0.310743  -0.558734  0  2.348158  0
O  O56  1  0.77629962  0.13846107  0.68719110  1  -1.148652  0  -0.307151  -0.537335  0  2.292251  0
O  O57  1  0.61724250  0.99413877  0.70993768  1  -1.170394  0  -0.31074  -0.558744  0  2.348237  0
F  F58  1  0.49992775  0.89051925  0.09144428  1  -0.748715  0  -0.335806  -0.533819  0  1.163144  0
F  F59  1  0.30570272  0.91129574  0.92959629  1  -0.759457  0  -0.342828  -0.565332  0  1.211354  0
F  F60  1  0.00007073  0.90855663  0.10948122  1  -0.748762  0  -0.335821  -0.533807  0  1.163144  0
F  F61  1  0.19429633  0.07040395  0.08870470  1  -0.759459  0  -0.34283  -0.565333  0  1.211325  0
F  F62  1  0.50007072  0.10948052  0.90855764  1  -0.748834  0  -0.335815  -0.533805  0  1.163115  0
F  F63  1  0.69429558  0.08870957  0.07040382  1  -0.759493  0  -0.342851  -0.56625  0  1.212258  0
F  F64  1  0.99992876  0.09144406  0.89051936  1  -0.748869  0  -0.335795  -0.533802  0  1.163134  0
F  F65  1  0.80570364  0.92959489  0.91129641  1  -0.759406  0  -0.342841  -0.565328  0  1.211294  0
