# generated using pymatgen
data_DyH19C24S(NO2)4
_symmetry_space_group_name_H-M   'P 1'
_cell_length_a   8.79913799
_cell_length_b   8.96575621
_cell_length_c   14.46857577
_cell_angle_alpha   95.45540082
_cell_angle_beta   91.50186790
_cell_angle_gamma   99.16683516
_symmetry_Int_Tables_number   1
_chemical_formula_structural   DyH19C24S(NO2)4
_chemical_formula_sum   'Dy2 H38 C48 S2 N8 O16'
_cell_volume   1120.76385528
_cell_formula_units_Z   2
loop_
 _symmetry_equiv_pos_site_id
 _symmetry_equiv_pos_as_xyz
  1  'x, y, z'
loop_
 _atom_site_type_symbol
 _atom_site_label
 _atom_site_symmetry_multiplicity
 _atom_site_fract_x
 _atom_site_fract_y
 _atom_site_fract_z
 _atom_site_occupancy
 _atom_site_pbe_bader_spin_density
 _atom_site_pbe_cm5_charge
 _atom_site_pbe_ddec_charge
 _atom_site_pbe_ddec_spin_density
 _atom_site_pbe_ddec_sum_bond_order
 _atom_site_pbe_magmom
Dy  Dy0  1  0.05709080  0.05937517  0.15648703  1  0  1.528931  1.978151  0  2.216369  0
Dy  Dy1  1  0.94290892  0.94062470  0.84351234  1  0  1.528907  1.978083  0  2.216382  0
H  H2  1  0.79592355  0.56231557  0.54914487  1  0  0.321824  0.276344  0  0.957956  0
H  H3  1  0.20407921  0.43768202  0.45085303  1  0  0.321832  0.276326  0  0.958002  0
H  H4  1  0.19090777  0.73925592  0.19438460  1  0  0.124414  0.084158  0  1.03318  0
H  H5  1  0.80909414  0.26075072  0.80561240  1  0  0.124424  0.084166  0  1.033167  0
H  H6  1  0.15424470  0.51506460  0.28591413  1  0  0.10767  0.127563  0  1.047471  0
H  H7  1  0.84575951  0.48494208  0.71408428  1  0  0.107673  0.127574  0  1.047414  0
H  H8  1  0.98415321  0.52126834  0.42379669  1  0  0.09554  0.078677  0  1.062176  0
H  H9  1  0.01585350  0.47873266  0.57620076  1  0  0.09551  0.078641  0  1.062237  0
H  H10  1  0.66458533  0.16774163  0.51792448  1  0  0.118897  0.127664  0  0.967106  0
H  H11  1  0.33541951  0.83226171  0.48207791  1  0  0.11887  0.127669  0  0.967193  0
H  H12  1  0.73993905  0.37802853  0.41383579  1  0  0.098111  0.094387  0  1.04706  0
H  H13  1  0.26006523  0.62197138  0.58616502  1  0  0.098102  0.094365  0  1.047036  0
H  H14  1  0.90681011  0.33057901  0.28080336  1  0  0.122267  0.090188  0  1.010866  0
H  H15  1  0.09319040  0.66941860  0.71919659  1  0  0.122263  0.090178  0  1.010881  0
H  H16  1  0.58484394  0.44143051  0.58016112  1  0  0.097874  0.090653  0  1.029756  0
H  H17  1  0.41515431  0.55856712  0.41984156  1  0  0.09786  0.090646  0  1.029764  0
H  H18  1  0.41616390  0.28465660  0.67854906  1  0  0.107556  0.122191  0  1.001101  0
H  H19  1  0.58383340  0.71534217  0.32145367  1  0  0.107549  0.122193  0  1.001063  0
H  H20  1  0.27574547  0.41082164  0.80367801  1  0  0.105911  0.110362  0  0.992129  0
H  H21  1  0.72424990  0.58917937  0.19632412  1  0  0.105882  0.110367  0  0.992188  0
H  H22  1  0.32512512  0.69372056  0.83431662  1  0  0.107926  0.112582  0  1.071785  0
H  H23  1  0.67487515  0.30628272  0.16568363  1  0  0.10792  0.112519  0  1.071797  0
H  H24  1  0.41483401  0.45148605  0.04306982  1  0  0.099421  0.115225  0  0.993459  0
H  H25  1  0.58516819  0.54851499  0.95693172  1  0  0.099429  0.115244  0  0.993407  0
H  H26  1  0.36715139  0.54502305  0.14981157  1  0  0.09737  0.114301  0  1.001785  0
H  H27  1  0.63284756  0.45497908  0.85018860  1  0  0.097375  0.114308  0  1.001774  0
H  H28  1  0.17126301  0.49158440  0.96684380  1  0  0.09507  0.089995  0  0.979811  0
H  H29  1  0.82873882  0.50841435  0.03315622  1  0  0.095075  0.08999  0  0.979817  0
H  H30  1  0.10447743  0.55902601  0.07408160  1  0  0.092799  0.079264  0  1.002177  0
H  H31  1  0.89552211  0.44097272  0.92591770  1  0  0.092804  0.079255  0  1.00217  0
H  H32  1  0.33393065  0.78104792  0.08470001  1  0  0.102971  0.12089  0  0.996461  0
H  H33  1  0.66606943  0.21895422  0.91530018  1  0  0.102963  0.120867  0  0.996441  0
H  H34  1  0.37359063  0.72054769  0.96956348  1  0  0.103478  0.128894  0  0.997645  0
H  H35  1  0.62640585  0.27945328  0.03043521  1  0  0.103458  0.128881  0  0.997617  0
H  H36  1  0.79083350  0.85253753  0.06442894  1  0  0.302127  0.411905  0  0.912471  0
H  H37  1  0.20916510  0.14746236  0.93557317  1  0  0.30216  0.411919  0  0.912433  0
H  H38  1  0.71358151  0.95645845  0.13756089  1  0  0.30042  0.407694  0  0.915217  0
H  H39  1  0.28641577  0.04354029  0.86244045  1  0  0.300377  0.407677  0  0.915235  0
C  C40  1  0.11715593  0.73670403  0.25353107  1  0  0.065916  0.134281  0  3.918771  0
C  C41  1  0.88284545  0.26329922  0.74646643  1  0  0.06585  0.134214  0  3.918887  0
C  C42  1  0.09910383  0.61298621  0.30715776  1  0  -0.086687  -0.134245  0  3.956336  0
C  C43  1  0.90090095  0.38701704  0.69283840  1  0  -0.086659  -0.134245  0  3.956378  0
C  C44  1  0.00518221  0.61705833  0.38210571  1  0  -0.081723  -0.097247  0  4.004192  0
C  C45  1  0.99481732  0.38294038  0.61789221  1  0  -0.081709  -0.097251  0  4.0044  0
C  C46  1  0.93265175  0.74425225  0.40391866  1  0  -0.001114  -0.019462  0  4.043358  0
C  C47  1  0.06734778  0.25574646  0.59607926  1  0  -0.001107  -0.019407  0  4.043325  0
C  C48  1  0.83116175  0.76247459  0.47742931  1  0  0.090438  0.081306  0  4.058213  0
C  C49  1  0.16883629  0.23752186  0.52256985  1  0  0.090496  0.081413  0  4.058136  0
C  C50  1  0.76320732  0.89279353  0.49566762  1  0  0.09492  0.095268  0  4.068769  0
C  C51  1  0.23679564  0.10720523  0.50433243  1  0  0.094898  0.095197  0  4.068857  0
C  C52  1  0.79775675  0.01903050  0.44212814  1  0  0.012005  0.008671  0  3.968173  0
C  C53  1  0.20224526  0.98096941  0.55787333  1  0  0.011988  0.008709  0  3.968216  0
C  C54  1  0.74103615  0.15637950  0.46048017  1  0  -0.053112  -0.032878  0  3.895838  0
C  C55  1  0.25896681  0.84361926  0.53951987  1  0  -0.053112  -0.032973  0  3.895929  0
C  C56  1  0.78334706  0.27061967  0.40409661  1  0  -0.093707  -0.154125  0  4.017386  0
C  C57  1  0.21665345  0.72937795  0.59590403  1  0  -0.093662  -0.154006  0  4.017366  0
C  C58  1  0.87624358  0.24463030  0.32849338  1  0  0.057016  0.114554  0  3.960812  0
C  C59  1  0.12375859  0.75537070  0.67150539  1  0  0.057028  0.114528  0  3.961014  0
C  C60  1  0.89341865  0.00250040  0.36554747  1  0  0.126083  0.140295  0  3.968378  0
C  C61  1  0.10658108  0.99749947  0.63445259  1  0  0.126077  0.140187  0  3.968522  0
C  C62  1  0.95867620  0.86486653  0.34565913  1  0  0.129248  0.14309  0  3.963088  0
C  C63  1  0.04132354  0.13513335  0.65434162  1  0  0.129249  0.143091  0  3.963171  0
C  C64  1  0.66631394  0.73823341  0.59193255  1  0  0.22752  0.300612  0  3.990953  0
C  C65  1  0.33368848  0.26176195  0.40806799  1  0  0.227458  0.300503  0  3.990902  0
C  C66  1  0.56491166  0.65744210  0.65570545  1  0  0.000999  0.007902  0  3.98787  0
C  C67  1  0.43509114  0.34255554  0.34429591  1  0  0.001011  0.007944  0  3.987737  0
C  C68  1  0.53296489  0.49767923  0.63858414  1  0  -0.093582  -0.133087  0  3.990047  0
C  C69  1  0.46703564  0.50231842  0.36141858  1  0  -0.093573  -0.1331  0  3.989978  0
C  C70  1  0.43315676  0.40813664  0.69188408  1  0  -0.088387  -0.076245  0  3.991964  0
C  C71  1  0.56684168  0.59186213  0.30811936  1  0  -0.088372  -0.07622  0  3.991924  0
C  C72  1  0.35657037  0.47903547  0.76232634  1  0  -0.084488  -0.069076  0  3.970301  0
C  C73  1  0.64342842  0.52096556  0.23767585  1  0  -0.084476  -0.069118  0  3.970375  0
C  C74  1  0.38601005  0.63698481  0.78056539  1  0  -0.085565  -0.105762  0  3.993044  0
C  C75  1  0.61398873  0.36301622  0.21943679  1  0  -0.085531  -0.105652  0  3.993074  0
C  C76  1  0.49108403  0.72737288  0.73006829  1  0  -0.004277  -0.095365  0  3.837528  0
C  C77  1  0.50891780  0.27262589  0.26993312  1  0  -0.004302  -0.095391  0  3.837571  0
C  C78  1  0.23404164  0.32567712  0.11300489  1  0  0.197421  0.64344  0  4.135161  0
C  C79  1  0.76595940  0.67432389  0.88699455  1  0  0.197463  0.643438  0  4.135071  0
C  C80  1  0.31907679  0.47413176  0.08657207  1  0  -0.164421  -0.291405  0  3.90523  0
C  C81  1  0.68092330  0.52587038  0.91342812  1  0  -0.164437  -0.29143  0  3.905119  0
C  C82  1  0.20901115  0.55631637  0.03416506  1  0  -0.154525  -0.096296  0  3.91871  0
C  C83  1  0.79098876  0.44368463  0.96583437  1  0  -0.154539  -0.096308  0  3.918676  0
C  C84  1  0.28171123  0.71928968  0.01940710  1  0  -0.161612  -0.310025  0  3.87169  0
C  C85  1  0.71828641  0.28071131  0.98059299  1  0  -0.1616  -0.309954  0  3.87152  0
C  C86  1  0.15779662  0.80253177  0.98537359  1  0  0.240202  0.721973  0  4.060093  0
C  C87  1  0.84220216  0.19746925  0.01462790  1  0  0.240268  0.722091  0  4.059837  0
S  S88  1  0.52827313  0.92869449  0.77088105  1  0  0.523943  1.206786  0  6.145677  0
S  S89  1  0.47172869  0.07130425  0.22911828  1  0  0.523955  1.206788  0  6.145562  0
N  N90  1  0.04716479  0.85686970  0.27082323  1  0  -0.364605  -0.337554  0  3.49569  0
N  N91  1  0.95283338  0.14313469  0.72917636  1  0  -0.36459  -0.337535  0  3.495835  0
N  N92  1  0.92925174  0.11460628  0.30886626  1  0  -0.378729  -0.369185  0  3.471517  0
N  N93  1  0.07074763  0.88539132  0.69113367  1  0  -0.37872  -0.369084  0  3.471523  0
N  N94  1  0.76929657  0.66593737  0.54004314  1  0  -0.383462  -0.313959  0  3.614852  0
N  N95  1  0.23070357  0.33405795  0.45995598  1  0  -0.383475  -0.313975  0  3.614898  0
N  N96  1  0.66282204  0.87610302  0.56614487  1  0  -0.31138  -0.335611  0  3.181629  0
N  N97  1  0.33717962  0.12389463  0.43385717  1  0  -0.311328  -0.335496  0  3.181627  0
O  O98  1  0.69844539  0.95969561  0.78605284  1  0  -0.4259  -0.734442  0  2.449757  0
O  O99  1  0.30155301  0.04030310  0.21394575  1  0  -0.42591  -0.734488  0  2.449684  0
O  O100  1  0.47268170  0.01608508  0.70154710  1  0  -0.338205  -0.585355  0  2.197926  0
O  O101  1  0.52731634  0.98391137  0.29845206  1  0  -0.338206  -0.585348  0  2.197874  0
O  O102  1  0.44968910  0.94101308  0.85886815  1  0  -0.326995  -0.580004  0  2.178563  0
O  O103  1  0.55031081  0.05898794  0.14113266  1  0  -0.326964  -0.579955  0  2.178635  0
O  O104  1  0.21613117  0.20732334  0.05435026  1  0  -0.371139  -0.628797  0  2.251772  0
O  O105  1  0.78386892  0.79267881  0.94565062  1  0  -0.371148  -0.628797  0  2.251681  0
O  O106  1  0.17449435  0.31898025  0.19249618  1  0  -0.38705  -0.643684  0  2.245008  0
O  O107  1  0.82550537  0.68101962  0.80750387  1  0  -0.387085  -0.643676  0  2.245056  0
O  O108  1  0.09366326  0.88175432  0.04628766  1  0  -0.43997  -0.72064  0  2.372319  0
O  O109  1  0.90633323  0.11824666  0.95371241  1  0  -0.439952  -0.720677  0  2.372195  0
O  O110  1  0.11584942  0.78616718  0.90000240  1  0  -0.377429  -0.640698  0  2.250561  0
O  O111  1  0.88414784  0.21383154  0.09999687  1  0  -0.377499  -0.64079  0  2.250512  0
O  O112  1  0.80420657  0.90380159  0.12890997  1  0  -0.638217  -0.854107  0  2.025579  0
O  O113  1  0.19579019  0.09619376  0.87109257  1  0  -0.638216  -0.854107  0  2.025591  0
