# generated using pymatgen
data_AlH18C24(NO2)3
_symmetry_space_group_name_H-M   'P 1'
_cell_length_a   3.97781618
_cell_length_b   28.49152590
_cell_length_c   28.49173165
_cell_angle_alpha   119.99971050
_cell_angle_beta   89.99975450
_cell_angle_gamma   90.00037740
_symmetry_Int_Tables_number   1
_chemical_formula_structural   AlH18C24(NO2)3
_chemical_formula_sum   'Al2 H36 C48 N6 O12'
_cell_volume   2796.47643086
_cell_formula_units_Z   2
loop_
 _symmetry_equiv_pos_site_id
 _symmetry_equiv_pos_as_xyz
  1  'x, y, z'
loop_
 _atom_site_type_symbol
 _atom_site_label
 _atom_site_symmetry_multiplicity
 _atom_site_fract_x
 _atom_site_fract_y
 _atom_site_fract_z
 _atom_site_occupancy
 _atom_site_pbe_bader_charge
 _atom_site_pbe_bader_spin_density
 _atom_site_pbe_cm5_charge
 _atom_site_pbe_ddec_charge
 _atom_site_pbe_ddec_spin_density
 _atom_site_pbe_ddec_sum_bond_order
 _atom_site_pbe_magmom
Al  Al0  1  0.99004488  0.50000349  0.50000056  1  2.502141  0  0.423436  1.592049  0  2.572552  0
Al  Al1  1  0.98999217  0.16666449  0.83333124  1  2.50231  0  0.423335  1.59147  0  2.573475  0
H  H2  1  0.16563017  0.18915017  0.70536393  1  0.092812  0  0.105859  0.110571  0  0.991014  0
H  H3  1  0.12574335  0.24234727  0.65804082  1  0.068765  0  0.095877  0.100297  0  1.013334  0
H  H4  1  0.68948337  0.37096394  0.78799318  1  0.017906  0  0.096738  0.106077  0  1.005148  0
H  H5  1  0.68948518  0.29570558  0.54534251  1  0.017491  0  0.096757  0.106125  0  1.005242  0
H  H6  1  0.12574475  0.42431917  0.67529197  1  0.06873  0  0.095878  0.100333  0  1.013295  0
H  H7  1  0.16561526  0.47751540  0.62796835  1  0.093276  0  0.105882  0.110563  0  0.991113  0
H  H8  1  0.41741836  0.38717672  0.72061243  1  0.050529  0  0.098721  0.095953  0  1.000061  0
H  H9  1  0.41739232  0.27949191  0.61272469  1  0.050645  0  0.098631  0.095869  0  1.000115  0
H  H10  1  0.16562467  0.01621263  0.81084626  1  0.099661  0  0.105856  0.110491  0  0.991004  0
H  H11  1  0.12574473  0.91569452  0.75765400  1  0.063666  0  0.095863  0.100284  0  1.013397  0
H  H12  1  0.68947304  0.91702709  0.62903590  1  0.06575  0  0.096757  0.106098  0  1.005193  0
H  H13  1  0.68946811  0.74964008  0.70429415  1  0.065782  0  0.096762  0.106097  0  1.005258  0
H  H14  1  0.12572351  0.75097437  0.57567958  1  0.063099  0  0.095827  0.10018  0  1.013393  0
H  H15  1  0.16564590  0.65045343  0.52247922  1  0.099795  0  0.105913  0.110635  0  0.990945  0
H  H16  1  0.41737231  0.83343665  0.61282286  1  0.040308  0  0.098659  0.095795  0  1.000122  0
H  H17  1  0.41736320  0.83323013  0.72050952  1  0.040362  0  0.098628  0.09579  0  1.000011  0
H  H18  1  0.16566623  0.29463948  0.98378797  1  0.094412  0  0.1059  0.11062  0  0.991099  0
H  H19  1  0.12579672  0.34195797  0.08430481  1  0.062478  0  0.09583  0.100267  0  1.013611  0
H  H20  1  0.68948497  0.21200938  0.08297396  1  0.016886  0  0.096744  0.106063  0  1.005208  0
H  H21  1  0.68946798  0.45466013  0.25035960  1  0.017364  0  0.096751  0.106107  0  1.005196  0
H  H22  1  0.12574365  0.32470715  0.24902576  1  0.061972  0  0.095858  0.100254  0  1.013409  0
H  H23  1  0.16563953  0.37203002  0.34954460  1  0.094449  0  0.105905  0.110598  0  0.991098  0
H  H24  1  0.41741139  0.27938969  0.16656556  1  0.047683  0  0.098665  0.095888  0  0.99994  0
H  H25  1  0.41741637  0.38727664  0.16676470  1  0.047745  0  0.098674  0.095893  0  1.000056  0
H  H26  1  0.86591163  0.29454365  0.85450576  1  0.470403  0  0.302913  0.314632  0  0.968615  0
H  H27  1  0.95703082  0.35132542  0.85050745  1  0.431408  0  0.303199  0.299262  0  0.945961  0
H  H28  1  0.86593145  0.37212080  0.47882387  1  0.470335  0  0.302905  0.314657  0  0.968582  0
H  H29  1  0.95704290  0.31534492  0.48283040  1  0.431145  0  0.303173  0.299225  0  0.946007  0
H  H30  1  0.86590089  0.05996600  0.70545600  1  0.481459  0  0.302883  0.314631  0  0.968654  0
H  H31  1  0.95702345  0.99918255  0.64867324  1  0.426909  0  0.303209  0.299309  0  0.945838  0
H  H32  1  0.86594721  0.60670517  0.62787183  1  0.48173  0  0.302883  0.314652  0  0.968555  0
H  H33  1  0.95705053  0.66748447  0.68465152  1  0.428665  0  0.303286  0.299396  0  0.945957  0
H  H34  1  0.86594971  0.14549336  0.94003563  1  0.47755  0  0.302865  0.314674  0  0.968511  0
H  H35  1  0.95706875  0.14949543  0.00081681  1  0.431457  0  0.303204  0.299277  0  0.945755  0
H  H36  1  0.86592856  0.52117356  0.39329646  1  0.477612  0  0.302914  0.314709  0  0.968543  0
H  H37  1  0.95704468  0.51717135  0.33251334  1  0.431958  0  0.303223  0.299299  0  0.945756  0
C  C38  1  0.48304594  0.46232893  0.41608924  1  1.527238  0  0.265234  0.652786  0  4.056347  0
C  C39  1  0.48304900  0.45376784  0.53767227  1  1.526353  0  0.26532  0.65284  0  4.056801  0
C  C40  1  0.48306694  0.58390632  0.54622954  1  1.555218  0  0.265311  0.652968  0  4.056285  0
C  C41  1  0.48306990  0.21289831  0.79565824  1  1.527037  0  0.265224  0.652819  0  4.05646  0
C  C42  1  0.48304694  0.08276055  0.78709885  1  1.55548  0  0.265336  0.65292  0  4.05634  0
C  C43  1  0.48306040  0.20434069  0.91724271  1  1.527229  0  0.265359  0.653091  0  4.056121  0
C  C44  1  0.46533519  0.24765915  0.77111761  1  -0.016377  0  -0.031427  -0.181087  0  3.938136  0
C  C45  1  0.28802461  0.22850892  0.72206301  1  -0.067558  0  -0.082463  -0.061217  0  4.022412  0
C  C46  1  0.26784626  0.25794585  0.69560769  1  -0.009177  0  -0.110307  -0.179693  0  4.011235  0
C  C47  1  0.41212476  0.31026327  0.71965226  1  0.02148  0  -0.00862  0.14055  0  4.075108  0
C  C48  1  0.57551566  0.33069714  0.76949120  1  -0.012854  0  -0.108824  -0.272066  0  3.941999  0
C  C49  1  0.61877450  0.29980581  0.79517502  1  0.428741  0  0.107171  0.304973  0  4.07858  0
C  C50  1  0.40137879  0.34325570  0.69372055  1  -0.013634  0  -0.0872  -0.123853  0  3.981284  0
C  C51  1  0.40135147  0.32341290  0.63961939  1  -0.113938  0  -0.08724  -0.124027  0  3.981005  0
C  C52  1  0.57553638  0.33597225  0.56384244  1  -0.012306  0  -0.108882  -0.272226  0  3.942134  0
C  C53  1  0.41210474  0.35640893  0.61368478  1  0.022229  0  -0.008561  0.140704  0  4.074454  0
C  C54  1  0.26786312  0.40872724  0.63772837  1  -0.009548  0  -0.110407  -0.179886  0  4.011306  0
C  C55  1  0.28803354  0.43815958  0.61126642  1  -0.068636  0  -0.082473  -0.061233  0  4.0228  0
C  C56  1  0.46529439  0.41900899  0.56221369  1  -0.015981  0  -0.031476  -0.181031  0  3.937917  0
C  C57  1  0.61875464  0.36685953  0.53815779  1  0.428535  0  0.107341  0.305185  0  4.078675  0
C  C58  1  0.46533034  0.02345848  0.75233983  1  -0.018642  0  -0.031478  -0.181122  0  3.938202  0
C  C59  1  0.28805899  0.99355732  0.77149194  1  -0.096778  0  -0.082384  -0.061061  0  4.02246  0
C  C60  1  0.26783599  0.93766179  0.74205802  1  -0.015962  0  -0.110334  -0.179743  0  4.011248  0
C  C61  1  0.41210874  0.90939221  0.68974099  1  -0.013599  0  -0.008603  0.140558  0  4.074612  0
C  C62  1  0.57550589  0.93879475  0.66930076  1  -0.089077  0  -0.108892  -0.272147  0  3.941988  0
C  C63  1  0.61877420  0.99536899  0.70019272  1  0.433813  0  0.107247  0.305031  0  4.078632  0
C  C64  1  0.40134820  0.85046085  0.65674521  1  0.049303  0  -0.087193  -0.123736  0  3.981395  0
C  C65  1  0.40133958  0.81620762  0.67658686  1  -0.063927  0  -0.087132  -0.123793  0  3.981309  0
C  C66  1  0.57549109  0.72787559  0.66403097  1  -0.087805  0  -0.108858  -0.272111  0  3.942066  0
C  C67  1  0.41210844  0.75727748  0.64359268  1  -0.014735  0  -0.008672  0.140515  0  4.074926  0
C  C68  1  0.26783593  0.72900722  0.59127554  1  -0.015494  0  -0.110328  -0.179573  0  4.01086  0
C  C69  1  0.28805723  0.67310821  0.56183528  1  -0.097288  0  -0.082514  -0.061408  0  4.022445  0
C  C70  1  0.46531685  0.64321038  0.58098936  1  -0.018615  0  -0.03157  -0.18121  0  3.938318  0
C  C71  1  0.61879541  0.67129711  0.63313554  1  0.433642  0  0.107247  0.305029  0  4.078543  0
C  C72  1  0.46532423  0.22888284  0.97654210  1  0.005559  0  -0.03143  -0.181026  0  3.938361  0
C  C73  1  0.28804874  0.27793507  0.00643909  1  -0.16656  0  -0.082497  -0.061438  0  4.022469  0
C  C74  1  0.26785906  0.30439792  0.06233951  1  0.084623  0  -0.110247  -0.179508  0  4.010891  0
C  C75  1  0.41215084  0.28034982  0.09061025  1  0.011602  0  -0.008631  0.140502  0  4.07505  0
C  C76  1  0.57552369  0.23051181  0.06121050  1  0.035529  0  -0.108861  -0.272027  0  3.942098  0
C  C77  1  0.61877881  0.20482202  0.00462900  1  0.364576  0  0.107184  0.304879  0  4.078806  0
C  C78  1  0.40138838  0.30628536  0.14953762  1  -0.117486  0  -0.087202  -0.123928  0  3.98126  0
C  C79  1  0.40137907  0.36038251  0.18379460  1  -0.026922  0  -0.087194  -0.123862  0  3.981301  0
C  C80  1  0.57551526  0.43615840  0.27212510  1  0.034865  0  -0.108855  -0.272196  0  3.942007  0
C  C81  1  0.41212088  0.38631608  0.24272324  1  0.012012  0  -0.008646  0.140551  0  4.07485  0
C  C82  1  0.26783723  0.36227169  0.27099581  1  0.087882  0  -0.11027  -0.179577  0  4.010951  0
C  C83  1  0.28804660  0.38873466  0.32689470  1  -0.16918  0  -0.082462  -0.061285  0  4.022454  0
C  C84  1  0.46533049  0.43778661  0.35678930  1  0.00993  0  -0.031532  -0.181146  0  3.938325  0
C  C85  1  0.61878500  0.46184468  0.32870102  1  0.358503  0  0.107248  0.305086  0  4.078675  0
N  N86  1  0.78834473  0.32190701  0.84370534  1  -1.243472  0  -0.599734  -0.622616  0  3.304242  0
N  N87  1  0.78834789  0.34476519  0.48963334  1  -1.242995  0  -0.599776  -0.622718  0  3.304533  0
N  N88  1  0.78835536  0.02179536  0.67809108  1  -1.223767  0  -0.599745  -0.622687  0  3.304274  0
N  N89  1  0.78837246  0.64487443  0.65523667  1  -1.225694  0  -0.599699  -0.622655  0  3.304509  0
N  N90  1  0.78834652  0.15629779  0.97820515  1  -1.22506  0  -0.599627  -0.622578  0  3.304341  0
N  N91  1  0.78834610  0.51037197  0.35512825  1  -1.224434  0  -0.599725  -0.622686  0  3.304265  0
O  O92  1  0.72432425  0.55829223  0.55396040  1  -1.260376  0  -0.23886  -0.604036  0  2.39152  0
O  O93  1  0.72432194  0.49567163  0.44170829  1  -1.26146  0  -0.23887  -0.604056  0  2.39134  0
O  O94  1  0.72429978  0.44604146  0.50432948  1  -1.260831  0  -0.238909  -0.604023  0  2.391651  0
O  O95  1  0.25745821  0.56016289  0.50965448  1  -1.27507  0  -0.249319  -0.611194  0  2.366413  0
O  O96  1  0.25747613  0.49034378  0.55050300  1  -1.268375  0  -0.249386  -0.611156  0  2.36667  0
O  O97  1  0.25745670  0.44949370  0.43983325  1  -1.268556  0  -0.249427  -0.611117  0  2.366208  0
O  O98  1  0.72430293  0.17099415  0.89162484  1  -1.260958  0  -0.238979  -0.604141  0  2.391506  0
O  O99  1  0.72433263  0.22062995  0.82900644  1  -1.261374  0  -0.238773  -0.603915  0  2.391508  0
O  O100  1  0.72431821  0.10837423  0.77936855  1  -1.260398  0  -0.238888  -0.603954  0  2.39149  0
O  O101  1  0.25746992  0.21717157  0.89349378  1  -1.269168  0  -0.249415  -0.611154  0  2.366268  0
O  O102  1  0.25746086  0.10650563  0.82367702  1  -1.275746  0  -0.249412  -0.611116  0  2.366405  0
O  O103  1  0.25748065  0.17632106  0.78282726  1  -1.268218  0  -0.249373  -0.611053  0  2.366455  0
