# generated using pymatgen
data_CoH15C20S2N5O6
_symmetry_space_group_name_H-M   'P 1'
_cell_length_a   7.23311711
_cell_length_b   11.16177613
_cell_length_c   14.21883412
_cell_angle_alpha   108.15580836
_cell_angle_beta   102.66098741
_cell_angle_gamma   96.40322589
_symmetry_Int_Tables_number   1
_chemical_formula_structural   CoH15C20S2N5O6
_chemical_formula_sum   'Co2 H30 C40 S4 N10 O12'
_cell_volume   1044.06110342
_cell_formula_units_Z   2
loop_
 _symmetry_equiv_pos_site_id
 _symmetry_equiv_pos_as_xyz
  1  'x, y, z'
loop_
 _atom_site_type_symbol
 _atom_site_label
 _atom_site_symmetry_multiplicity
 _atom_site_fract_x
 _atom_site_fract_y
 _atom_site_fract_z
 _atom_site_occupancy
 _atom_site_hle17_ddec_charge
 _atom_site_hle17_ddec_spin_density
 _atom_site_hle17_ddec_sum_bond_order
 _atom_site_hle17_magmom
 _atom_site_hse06_10hf_ddec_charge
 _atom_site_hse06_10hf_ddec_spin_density
 _atom_site_hse06_10hf_ddec_sum_bond_order
 _atom_site_hse06_10hf_magmom
 _atom_site_hse06_ddec_charge
 _atom_site_hse06_ddec_spin_density
 _atom_site_hse06_ddec_sum_bond_order
 _atom_site_hse06_magmom
 _atom_site_pbe_cm5_charge
 _atom_site_pbe_ddec_charge
 _atom_site_pbe_ddec_spin_density
 _atom_site_pbe_ddec_sum_bond_order
 _atom_site_pbe_magmom
Co  Co0  1  0.99999879  0.00000095  0.50000081  1  0.560224  -1.017066  2.892429  -0.809  0.576205  -0.967714  3.311346  -0.826  0.646746  -1.025533  3.235935  -0.899  0.659294  0.533308  -0.915176  3.360652  -0.762
Co  Co1  1  0.00000630  0.50000368  0.50000018  1  0.557433  1.010845  2.887845  0.801  0.576287  0.96265  3.305782  0.819  0.647418  1.022  3.230452  0.894  0.652068  0.533712  0.908523  3.354159  0.753
H  H2  1  0.40379211  0.13492588  0.58693985  1  0.073888  -0.000932  1.007738  0.0  0.076969  -0.000791  1.081705  0.0  0.078915  -0.000517  1.079604  0.0  0.102124  0.074925  -0.00103  1.083896  0.0
H  H3  1  0.59620459  0.86507271  0.41305782  1  0.073825  -0.000934  1.007805  0.0  0.076911  -0.000791  1.081767  0.0  0.078855  -0.000518  1.079664  0.0  0.102093  0.074869  -0.00103  1.083961  0.0
H  H4  1  0.61900423  0.25886327  0.76021346  1  0.117439  5.9e-05  0.943874  0.0  0.123018  -0.000105  1.007165  0.0  0.126602  -5.8e-05  1.006197  0.0  0.108233  0.120386  -0.00015  1.00815  0.0
H  H5  1  0.38099647  0.74113438  0.23978441  1  0.117436  5.9e-05  0.943905  0.0  0.123003  -0.000105  1.007215  0.0  0.126587  -5.8e-05  1.006249  0.0  0.108231  0.120388  -0.00015  1.008182  0.0
H  H6  1  0.48096462  0.29999710  0.91379941  1  0.117607  -0.000158  0.941915  0.0  0.122953  2.1e-05  1.010301  0.0  0.127115  8e-06  1.005096  0.0  0.113194  0.119885  3.4e-05  1.014322  0.0
H  H7  1  0.51903358  0.69999670  0.08619724  1  0.117652  -0.00016  0.941975  0.0  0.123016  2.1e-05  1.010358  0.0  0.127178  8e-06  1.005155  0.0  0.113239  0.119968  3.4e-05  1.014353  0.0
H  H8  1  0.93451151  0.08361123  0.70340453  1  0.092017  0.000112  0.968861  0.0  0.095075  0.000243  1.042042  0.0  0.097689  0.000181  1.038205  0.0  0.117772  0.092733  0.000253  1.045424  0.0
H  H9  1  0.06547963  0.91638252  0.29659486  1  0.092049  0.000112  0.968826  0.0  0.095073  0.000243  1.042039  0.0  0.09769  0.00018  1.038199  0.0  0.117774  0.092731  0.000253  1.045423  0.0
H  H10  1  0.41443922  0.56187501  0.59466599  1  0.080678  0.000152  0.985927  0.0  0.082444  -1.1e-05  1.061923  0.0  0.084908  -6.6e-05  1.058686  0.0  0.106276  0.080054  6.2e-05  1.064878  0.0
H  H11  1  0.58556682  0.43812650  0.40533482  1  0.080692  0.000153  0.985899  0.0  0.082499  -1.1e-05  1.061863  0.0  0.084964  -6.5e-05  1.058623  0.0  0.106293  0.080112  6.2e-05  1.064818  0.0
H  H12  1  0.63618094  0.58559769  0.76339682  1  0.119209  -0.000135  0.936018  0.0  0.12686  -2.2e-05  0.995625  0.0  0.130193  -4e-05  0.994808  0.0  0.109824  0.124305  3e-06  0.996637  0.0
H  H13  1  0.36382114  0.41440476  0.23660519  1  0.119258  -0.000135  0.936023  0.0  0.126854  -2.2e-05  0.995685  0.0  0.130187  -4e-05  0.99487  0.0  0.109831  0.124302  3e-06  0.996697  0.0
H  H14  1  0.49543767  0.56438046  0.90510689  1  0.122049  0.000179  0.932787  0.0  0.129157  -1.6e-05  0.997464  0.0  0.133004  -5e-06  0.992833  0.0  0.117722  0.126309  -2.9e-05  1.001033  0.0
H  H15  1  0.50456779  0.43562392  0.09489667  1  0.122067  0.00018  0.93275  0.0  0.129146  -1.6e-05  0.997459  0.0  0.132992  -4e-06  0.992831  0.0  0.117739  0.126301  -2.9e-05  1.001025  0.0
H  H16  1  0.93055892  0.49281625  0.69596224  1  0.097272  -9e-06  0.947251  0.0  0.103595  -0.00014  1.012962  0.0  0.106163  -0.000109  1.009  0.0  0.121391  0.101144  -0.000114  1.016783  0.0
H  H17  1  0.06944592  0.50719101  0.30404057  1  0.097342  -1e-05  0.947165  0.0  0.103625  -0.00014  1.012891  0.0  0.106192  -0.000109  1.008932  0.0  0.121425  0.101176  -0.000114  1.016712  0.0
H  H18  1  0.86410073  0.18272246  0.93877256  1  0.408167  5e-06  0.885289  0.0  0.3762  3e-06  0.9647  0.0  0.389178  1e-06  0.94663  0.0  0.30425  0.367141  4e-06  0.974643  0.0
H  H19  1  0.13589510  0.81727804  0.06122619  1  0.408173  5e-06  0.88532  0.0  0.376191  3e-06  0.964748  0.0  0.389167  1e-06  0.946658  0.0  0.304228  0.36713  4e-06  0.97469  0.0
H  H20  1  0.87326609  0.47645818  0.92679477  1  0.405653  -1e-05  0.872523  0.0  0.374838  -3e-06  0.94922  0.0  0.387689  -2e-06  0.93564  0.0  0.309605  0.365776  -3e-06  0.958822  0.0
H  H21  1  0.12673826  0.52354237  0.07320492  1  0.405752  -1e-05  0.872491  0.0  0.374903  -3e-06  0.949234  0.0  0.387752  -2e-06  0.935655  0.0  0.30963  0.365845  -3e-06  0.958826  0.0
H  H22  1  0.79820553  0.90924641  0.74015324  1  0.075025  0.000261  0.966888  0.0  0.08168  0.000344  1.036143  0.0  0.08405  0.000257  1.032848  0.0  0.11214  0.079711  0.000442  1.038834  0.0
H  H23  1  0.20178958  0.09074641  0.25984494  1  0.075013  0.000259  0.966868  0.0  0.081652  0.000344  1.036144  0.0  0.084006  0.000257  1.032883  0.0  0.112136  0.079688  0.000442  1.038823  0.0
H  H24  1  0.46667477  0.90548282  0.63988887  1  0.096818  0.000106  1.005833  0.0  0.102691  8.5e-05  1.07336  0.0  0.105774  8.2e-05  1.073554  0.0  0.093082  0.100094  9.5e-05  1.073772  0.0
H  H25  1  0.53332142  0.09451384  0.36011038  1  0.096787  0.000106  1.005849  0.0  0.102665  8.5e-05  1.073383  0.0  0.105743  8.2e-05  1.073592  0.0  0.093074  0.100069  9.5e-05  1.073791  0.0
H  H26  1  0.19033008  0.88138467  0.71787117  1  0.109419  -7e-06  0.944736  0.0  0.117171  -3e-06  1.009787  0.0  0.119391  1e-06  1.008336  0.0  0.110491  0.115372  -4e-06  1.010896  0.0
H  H27  1  0.80966805  0.11861392  0.28212736  1  0.109325  -1e-05  0.944891  0.0  0.117109  -3e-06  1.009897  0.0  0.11933  1e-06  1.008438  0.0  0.110462  0.11531  -4e-06  1.011005  0.0
H  H28  1  0.59985985  0.85965245  0.97971703  1  0.086968  9e-06  0.95938  0.0  0.091669  7e-06  1.03021  0.0  0.09425  5e-06  1.02784  0.0  0.117084  0.089838  8e-06  1.031859  0.0
H  H29  1  0.40013006  0.14034706  0.02028295  1  0.087001  8e-06  0.959456  0.0  0.091638  7e-06  1.030348  0.0  0.094217  5e-06  1.027983  0.0  0.117093  0.089809  8e-06  1.031996  0.0
H  H30  1  0.93497576  0.88624641  0.89125781  1  0.368149  -1e-05  0.902829  0.0  0.323136  -7e-06  1.002366  0.0  0.338301  -7e-06  0.98719  0.0  0.29503  0.312289  -1e-05  1.013115  0.0
H  H31  1  0.06501475  0.11375022  0.10874082  1  0.368085  -1e-05  0.903039  0.0  0.323145  -7e-06  1.002428  0.0  0.338312  -7e-06  0.987248  0.0  0.295036  0.312303  -1e-05  1.013169  0.0
C  C32  1  0.20410381  0.73517493  0.47698643  1  0.288061  -0.002388  3.937369  0.001  0.284406  -0.00382  4.244518  0.0  0.313143  -0.003647  4.256128  -0.001  0.157808  0.264076  -0.006635  4.235103  -0.002
C  C33  1  0.79591003  0.26483430  0.52301432  1  0.28797  -0.002388  3.937435  0.001  0.284314  -0.00382  4.244591  0.0  0.313055  -0.003647  4.256202  -0.001  0.157846  0.263983  -0.006635  4.235169  -0.002
C  C34  1  0.84732111  0.78237328  0.56350017  1  0.287256  0.002599  3.951197  -0.001  0.285082  0.003973  4.258528  0.001  0.31408  0.003749  4.270212  0.001  0.15841  0.264233  0.006895  4.249372  0.003
C  C35  1  0.15268041  0.21762247  0.43649380  1  0.287401  0.002596  3.951061  -0.001  0.285226  0.003973  4.258392  0.001  0.314226  0.003748  4.270063  0.001  0.158481  0.264378  0.006894  4.249234  0.003
C  C36  1  0.34830530  0.15286602  0.65418411  1  0.130349  0.006219  3.653939  0.007  0.099693  0.001571  3.903054  0.002  0.111966  0.001285  3.918927  0.002  0.050789  0.090735  0.001746  3.894591  0.002
C  C37  1  0.65169145  0.84713256  0.34581778  1  0.130539  0.006222  3.653667  0.007  0.099919  0.001571  3.902788  0.002  0.112195  0.001285  3.918654  0.002  0.050921  0.090958  0.001746  3.894337  0.002
C  C38  1  0.46773151  0.22320782  0.75187617  1  -0.109853  -0.004049  3.705359  -0.005  -0.118838  -0.000736  3.954754  -0.001  -0.128255  -0.000645  3.974294  -0.001  -0.079967  -0.11317  -0.000757  3.943101  -0.001
C  C39  1  0.53227122  0.77678696  0.24812262  1  -0.109887  -0.00405  3.705311  -0.005  -0.118876  -0.000736  3.954766  -0.001  -0.128293  -0.000645  3.974301  -0.001  -0.079996  -0.113222  -0.000757  3.943113  -0.001
C  C40  1  0.39166080  0.24540799  0.83619344  1  0.0041  0.007516  3.657472  0.008  -0.027964  0.002407  3.907227  0.003  -0.018453  0.001595  3.920511  0.002  -0.056276  -0.034633  0.003183  3.899095  0.003
C  C41  1  0.60833742  0.75458581  0.16380531  1  0.004058  0.007521  3.657508  0.008  -0.028049  0.002407  3.9073  0.003  -0.01854  0.001595  3.920583  0.002  -0.056327  -0.034735  0.003183  3.899162  0.003
C  C42  1  0.19589926  0.19589614  0.81885086  1  -0.128146  -0.003474  3.76425  -0.004  -0.103528  -0.000596  4.003308  -0.001  -0.118497  -0.000514  4.026843  -0.001  -0.017439  -0.093786  -0.000636  3.988166  -0.001
C  C43  1  0.80409925  0.80409861  0.18114957  1  -0.128166  -0.003475  3.764264  -0.004  -0.103551  -0.000596  4.003357  -0.001  -0.118514  -0.000513  4.026888  -0.001  -0.017476  -0.093809  -0.000636  3.988219  -0.001
C  C44  1  0.08610308  0.12395761  0.71891850  1  0.117646  0.00722  3.64838  0.008  0.07428  0.00248  3.905261  0.003  0.087275  0.001907  3.92134  0.002  0.05188  0.065003  0.00284  3.895924  0.003
C  C45  1  0.91389204  0.87603520  0.28108108  1  0.117674  0.007217  3.648441  0.008  0.074358  0.00248  3.905332  0.003  0.087354  0.001906  3.921406  0.002  0.051893  0.065081  0.002839  3.895997  0.003
C  C46  1  0.10479597  0.21951098  0.90566444  1  0.646309  0.000127  3.848083  0.0  0.594264  -6e-06  4.150957  0.0  0.627612  1.6e-05  4.142918  0.0  0.223323  0.571659  -4.3e-05  4.155778  0.0
C  C47  1  0.89520136  0.78048473  0.09433399  1  0.646284  0.000128  3.848111  0.0  0.594222  -6e-06  4.150987  0.0  0.627568  1.6e-05  4.142943  0.0  0.223382  0.571615  -4.3e-05  4.155811  0.0
C  C48  1  0.35796924  0.55112291  0.65704385  1  0.137108  -0.006935  3.645221  -0.008  0.104323  -0.002113  3.899638  -0.003  0.116831  -0.001631  3.915705  -0.002  0.053293  0.094741  -0.002477  3.891611  -0.003
C  C49  1  0.64203647  0.44888244  0.34295787  1  0.137089  -0.006937  3.645159  -0.008  0.104243  -0.002113  3.899642  -0.003  0.116751  -0.001632  3.915711  -0.002  0.053253  0.094656  -0.002477  3.891618  -0.003
C  C50  1  0.48051407  0.56429746  0.75145707  1  -0.11134  0.004288  3.700857  0.005  -0.120677  0.000686  3.952025  0.001  -0.130316  0.000588  3.971847  0.001  -0.078168  -0.114819  0.000724  3.940466  0.001
C  C51  1  0.51948649  0.43570979  0.24854386  1  -0.111409  0.004285  3.700787  0.005  -0.120683  0.000686  3.951981  0.001  -0.130323  0.00059  3.9718  0.001  -0.078173  -0.114832  0.000724  3.940432  0.001
C  C52  1  0.40260615  0.55240470  0.82998044  1  0.010467  -0.007723  3.655009  -0.009  -0.023261  -0.002296  3.908124  -0.003  -0.013592  -0.001484  3.921942  -0.002  -0.054097  -0.030028  -0.003119  3.899551  -0.003
C  C53  1  0.59739814  0.44760064  0.17002183  1  0.010523  -0.007719  3.654908  -0.009  -0.023166  -0.002296  3.907992  -0.003  -0.013497  -0.001485  3.921808  -0.002  -0.054061  -0.029933  -0.003119  3.89942  -0.003
C  C54  1  0.20129142  0.52687542  0.81074702  1  -0.130574  0.003833  3.753451  0.005  -0.106853  0.000671  3.99435  0.001  -0.122735  0.000538  4.018728  0.001  -0.013992  -0.096898  0.000755  3.979083  0.001
C  C55  1  0.79871287  0.47312992  0.18925455  1  -0.130595  0.003828  3.753751  0.005  -0.106874  0.000671  3.994627  0.001  -0.122755  0.000539  4.019005  0.001  -0.014066  -0.096917  0.000755  3.97936  0.001
C  C56  1  0.08702060  0.51343971  0.71357105  1  0.127155  -0.007623  3.617243  -0.009  0.086201  -0.002372  3.86717  -0.003  0.099829  -0.00183  3.88309  -0.002  0.057782  0.07635  -0.002668  3.858483  -0.003
C  C57  1  0.91298565  0.48656756  0.28643121  1  0.127066  -0.007615  3.61733  -0.009  0.086186  -0.002372  3.867234  -0.003  0.099818  -0.001831  3.883147  -0.002  0.057819  0.076334  -0.002668  3.858547  -0.003
C  C58  1  0.11307346  0.51649873  0.89385064  1  0.670508  -4e-06  3.792971  0.0  0.613303  5.9e-05  4.098488  0.0  0.647796  1.3e-05  4.090652  0.0  0.241502  0.589858  0.000123  4.103512  0.0
C  C59  1  0.88692745  0.48350467  0.10615009  1  0.670496  -3e-06  3.793312  0.0  0.613267  5.9e-05  4.098866  0.0  0.647762  1.3e-05  4.09103  0.0  0.241509  0.589821  0.000123  4.10389  0.0
C  C60  1  0.67472065  0.89793009  0.77069362  1  0.147265  0.000232  3.686574  0.0  0.112669  0.000446  3.94009  0.0  0.122525  0.000245  3.95555  0.0  0.053577  0.1061  0.000724  3.930142  0.0
C  C61  1  0.32527128  0.10206655  0.22930516  1  0.147215  0.000229  3.686487  0.0  0.112614  0.000446  3.940074  0.0  0.122479  0.000245  3.955516  0.0  0.05356  0.106045  0.000723  3.930127  0.0
C  C62  1  0.49004685  0.89701749  0.71568155  1  -0.117553  0.000654  3.722141  0.001  -0.125452  0.000614  3.970957  0.0  -0.135529  0.000501  3.993704  0.0  -0.085148  -0.119597  0.000707  3.957003  0.0
C  C63  1  0.50995015  0.10298206  0.28431850  1  -0.117404  0.000655  3.721998  0.001  -0.125318  0.000614  3.970812  0.0  -0.135392  0.000502  3.993547  0.0  -0.085086  -0.119462  0.000707  3.956857  0.0
C  C64  1  0.33767306  0.88426675  0.75895051  1  0.012199  0.000163  3.655998  0.0  -0.01988  0.000403  3.904888  0.0  -0.01349  0.000159  3.923959  0.0  -0.05691  -0.023378  0.000703  3.892039  0.001
C  C65  1  0.66232139  0.11573373  0.24105090  1  0.012192  0.000169  3.656084  0.0  -0.019862  0.000403  3.90493  0.0  -0.013469  0.000159  3.923998  0.0  -0.056893  -0.023364  0.000703  3.892082  0.001
C  C66  1  0.37697509  0.87286811  0.85634364  1  -0.146914  0.000457  3.768411  0.001  -0.120781  0.000506  4.008799  0.001  -0.135785  0.000334  4.034268  0.0  -0.017355  -0.111008  0.00071  3.991674  0.001
C  C67  1  0.62301794  0.12713237  0.14365691  1  -0.146794  0.000461  3.768243  0.001  -0.120689  0.000506  4.008659  0.001  -0.135692  0.000334  4.034131  0.0  -0.017375  -0.110911  0.00071  3.991532  0.001
C  C68  1  0.56683763  0.87204558  0.90534581  1  0.135948  -0.000203  3.673818  0.0  0.091203  -7.3e-05  3.931158  0.0  0.100395  -9e-05  3.948103  0.0  0.055926  0.085619  -5.4e-05  3.919129  0.0
C  C69  1  0.43315344  0.12795297  0.09465405  1  0.135849  -0.000211  3.674001  0.0  0.091171  -7.3e-05  3.931363  0.0  0.100364  -9.1e-05  3.948312  0.0  0.055923  0.085582  -5.4e-05  3.919338  0.0
C  C70  1  0.22176967  0.86003584  0.90822519  1  0.673544  5.9e-05  3.836214  0.0  0.617275  9.5e-05  4.137987  0.0  0.652417  3.4e-05  4.128628  0.0  0.237762  0.593261  0.000183  4.144155  0.0
C  C71  1  0.77822191  0.13996464  0.09177309  1  0.673479  5.5e-05  3.836327  0.0  0.617131  9.6e-05  4.138242  0.0  0.65227  3.5e-05  4.128887  0.0  0.237742  0.593121  0.000183  4.1444  0.0
S  S72  1  0.27336107  0.86815519  0.45936610  1  -0.268451  -0.051168  2.254277  -0.059  -0.280399  -0.036595  2.592905  -0.04  -0.304764  -0.026148  2.581609  -0.028  -0.089604  -0.258117  -0.04561  2.598239  -0.048
S  S73  1  0.72664960  0.13185309  0.54062844  1  -0.268393  -0.051169  2.254334  -0.059  -0.280349  -0.036603  2.59297  -0.04  -0.304714  -0.02614  2.581677  -0.028  -0.089667  -0.25807  -0.045612  2.598301  -0.048
S  S74  1  0.78162185  0.65129800  0.58433409  1  -0.278321  0.051651  2.210435  0.059  -0.295383  0.036641  2.548557  0.04  -0.321421  0.02618  2.539123  0.028  -0.103769  -0.271413  0.045357  2.552575  0.048
S  S75  1  0.21837998  0.34870348  0.41566906  1  -0.278429  0.051654  2.21038  0.059  -0.295504  0.036641  2.548501  0.04  -0.321538  0.02618  2.539057  0.028  -0.103829  -0.271535  0.045359  2.55252  0.048
N  N76  1  0.15214488  0.64021789  0.49221439  1  -0.466725  -0.02067  3.234203  -0.028  -0.448824  -0.015061  3.540856  -0.022  -0.479243  -0.012111  3.544019  -0.019  -0.406884  -0.428413  -0.018347  3.538017  -0.025
N  N77  1  0.84786920  0.35979232  0.50778311  1  -0.466705  -0.020677  3.234259  -0.028  -0.448803  -0.015067  3.540893  -0.022  -0.479225  -0.012116  3.544062  -0.019  -0.406898  -0.42839  -0.018353  3.538046  -0.025
N  N78  1  0.89858117  0.87826787  0.54916207  1  -0.475323  0.019848  3.223044  0.027  -0.456547  0.014713  3.529735  0.021  -0.486932  0.012016  3.532057  0.018  -0.409449  -0.43591  0.017688  3.527641  0.024
N  N79  1  0.10142286  0.12173651  0.45084063  1  -0.475345  0.019852  3.222943  0.027  -0.45656  0.014715  3.529617  0.021  -0.486951  0.012018  3.53195  0.018  -0.409465  -0.435925  0.017691  3.527524  0.024
N  N80  1  0.16051295  0.10219956  0.63761634  1  -0.232254  0.005291  3.3968  0.006  -0.180447  0.004068  3.669589  0.006  -0.212205  0.004393  3.691395  0.007  -0.327962  -0.161443  0.003238  3.657034  0.004
N  N81  1  0.83948239  0.89779901  0.36238610  1  -0.232341  0.005294  3.396704  0.006  -0.180615  0.004068  3.669575  0.006  -0.212372  0.004393  3.691376  0.007  -0.328021  -0.161611  0.003238  3.657027  0.004
N  N82  1  0.16335268  0.52509266  0.63760370  1  -0.232262  -0.003056  3.36739  -0.003  -0.181283  -0.003333  3.640452  -0.005  -0.213325  -0.003784  3.662587  -0.006  -0.321188  -0.162241  -0.002363  3.627986  -0.003
N  N83  1  0.83665187  0.47491364  0.36239743  1  -0.23219  -0.00306  3.367366  -0.003  -0.181262  -0.003334  3.640511  -0.005  -0.213305  -0.003783  3.662644  -0.006  -0.321173  -0.162219  -0.002363  3.628048  -0.003
N  N84  1  0.71355540  0.88477505  0.86353029  1  -0.304154  0.000399  3.194182  0.001  -0.239027  0.000443  3.446166  0.001  -0.255406  0.000302  3.461155  0.001  -0.308577  -0.22781  0.000613  3.435752  0.001
N  N85  1  0.28643680  0.11522255  0.13646876  1  -0.304115  0.000406  3.194449  0.001  -0.23905  0.000443  3.446428  0.001  -0.255432  0.000303  3.461418  0.001  -0.308614  -0.227836  0.000613  3.436015  0.001
O  O86  1  0.91537311  0.17293616  0.87557971  1  -0.556316  -0.000137  2.109641  0.0  -0.505449  -5.7e-05  2.336227  0.0  -0.528271  -4.9e-05  2.319559  0.0  -0.333204  -0.489488  -5.6e-05  2.345133  0.0
O  O87  1  0.08462619  0.82706147  0.12442011  1  -0.556508  -0.000136  2.109744  0.0  -0.505508  -5.7e-05  2.336208  0.0  -0.528349  -4.9e-05  2.31957  0.0  -0.333271  -0.489548  -5.6e-05  2.345115  0.0
O  O88  1  0.19688134  0.27727208  0.99576853  1  -0.551738  -0.000342  1.95439  -0.001  -0.514284  -9.4e-05  2.182497  0.0  -0.534771  -8e-05  2.175046  0.0  -0.289642  -0.49993  -0.000107  2.186998  0.0
O  O89  1  0.80311910  0.72272460  0.00423119  1  -0.55161  -0.000344  1.954495  -0.001  -0.514216  -9.4e-05  2.182672  0.0  -0.534702  -8e-05  2.175221  0.0  -0.289617  -0.499865  -0.000107  2.187182  0.0
O  O90  1  0.92269171  0.47967028  0.86496526  1  -0.535979  0.000171  2.087908  0.0  -0.485725  5.5e-05  2.308255  0.0  -0.50817  4.5e-05  2.293494  0.0  -0.31895  -0.470378  5.6e-05  2.318305  0.0
O  O91  1  0.07731487  0.52033316  0.13503538  1  -0.536068  0.000171  2.087971  0.0  -0.485785  5.5e-05  2.30835  0.0  -0.508238  4.5e-05  2.293607  0.0  -0.318965  -0.470436  5.6e-05  2.318396  0.0
O  O92  1  0.21389080  0.54011056  0.98287922  1  -0.555399  0.000444  1.994038  0.001  -0.501977  0.000121  2.212841  0.0  -0.525646  8.3e-05  2.20473  0.0  -0.272068  -0.485793  0.000164  2.218103  0.0
O  O93  1  0.78611524  0.45989095  0.01712159  1  -0.555399  0.000443  1.994174  0.001  -0.501973  0.000121  2.212968  0.0  -0.525648  8.3e-05  2.20486  0.0  -0.272095  -0.485783  0.000164  2.218227  0.0
O  O94  1  0.06841972  0.90098435  0.87166761  1  -0.545725  -3.4e-05  2.173852  0.0  -0.489538  -1.4e-05  2.41801  0.0  -0.513684  -2.3e-05  2.403594  0.0  -0.313896  -0.472733  1.3e-05  2.427735  0.0
O  O95  1  0.93157364  0.09901230  0.12833203  1  -0.545714  -3.2e-05  2.173926  0.0  -0.489511  -1.4e-05  2.418032  0.0  -0.513659  -2.3e-05  2.403627  0.0  -0.313883  -0.472709  1.3e-05  2.42775  0.0
O  O96  1  0.24609839  0.81575391  0.97929195  1  -0.570072  0.000126  2.026354  0.0  -0.52025  0.000148  2.253237  0.0  -0.543636  8.6e-05  2.244441  0.0  -0.281379  -0.504088  0.000216  2.258564  0.0
O  O97  1  0.75389304  0.18424080  0.02070840  1  -0.570047  0.000128  2.026547  0.0  -0.520157  0.000148  2.253403  0.0  -0.543541  8.5e-05  2.24461  0.0  -0.28137  -0.504004  0.000216  2.258743  0.0
