# generated using pymatgen
data_H16PbC16(NO3)2
_symmetry_space_group_name_H-M   'P 1'
_cell_length_a   8.19498011
_cell_length_b   10.88948966
_cell_length_c   11.63384375
_cell_angle_alpha   117.92275367
_cell_angle_beta   108.64725385
_cell_angle_gamma   89.96345521
_symmetry_Int_Tables_number   1
_chemical_formula_structural   H16PbC16(NO3)2
_chemical_formula_sum   'H32 Pb2 C32 N4 O12'
_cell_volume   855.27904369
_cell_formula_units_Z   2
loop_
 _symmetry_equiv_pos_site_id
 _symmetry_equiv_pos_as_xyz
  1  'x, y, z'
loop_
 _atom_site_type_symbol
 _atom_site_label
 _atom_site_symmetry_multiplicity
 _atom_site_fract_x
 _atom_site_fract_y
 _atom_site_fract_z
 _atom_site_occupancy
 _atom_site_hle17_bader_spin_density
 _atom_site_hle17_ddec_charge
 _atom_site_hle17_ddec_spin_density
 _atom_site_hle17_ddec_sum_bond_order
 _atom_site_hle17_magmom
 _atom_site_hse06_10hf_bader_spin_density
 _atom_site_hse06_10hf_ddec_charge
 _atom_site_hse06_10hf_ddec_spin_density
 _atom_site_hse06_10hf_ddec_sum_bond_order
 _atom_site_hse06_10hf_magmom
 _atom_site_hse06_bader_spin_density
 _atom_site_hse06_ddec_charge
 _atom_site_hse06_ddec_spin_density
 _atom_site_hse06_ddec_sum_bond_order
 _atom_site_hse06_magmom
 _atom_site_pbe_bader_spin_density
 _atom_site_pbe_cm5_charge
 _atom_site_pbe_ddec_charge
 _atom_site_pbe_ddec_spin_density
 _atom_site_pbe_ddec_sum_bond_order
 _atom_site_pbe_magmom
H  H0  1  0.55143768  0.34739565  0.02997851  1  0  0.10127  0  0.962859  0  0  0.109348  0  1.029208  0  0  0.112633  0  1.027591  0  0  0.1065  0.106794  0  1.030944  0
H  H1  1  0.94836647  0.31725917  0.96997905  1  0  0.101197  0  0.962525  0  0  0.109131  0  1.029067  0  0  0.112422  0  1.027442  0  0  0.106231  0.106557  0  1.030854  0
H  H2  1  0.44856097  0.65260838  0.97002283  1  0  0.101255  0  0.962767  0  0  0.109347  0  1.02911  0  0  0.112637  0  1.027489  0  0  0.106505  0.106792  0  1.03085  0
H  H3  1  0.05162292  0.68274375  0.03001976  1  0  0.101221  0  0.962505  0  0  0.109171  0  1.029022  0  0  0.112464  0  1.027394  0  0  0.106267  0.106596  0  1.030813  0
H  H4  1  0.69213841  0.59329806  0.12112705  1  0  0.089139  0  0.948129  0  0  0.100308  0  1.007754  0  0  0.102682  0  1.007637  0  0  0.102338  0.098491  0  1.008092  0
H  H5  1  0.80811068  0.47244171  0.87916807  1  0  0.089026  0  0.948361  0  0  0.100149  0  1.007892  0  0  0.102514  0  1.0078  0  0  0.102298  0.098337  0  1.008226  0
H  H6  1  0.30785692  0.40670278  0.87886700  1  0  0.089142  0  0.948092  0  0  0.100308  0  1.007718  0  0  0.102682  0  1.0076  0  0  0.102322  0.09849  0  1.008059  0
H  H7  1  0.19187572  0.52754747  0.12081717  1  0  0.089015  0  0.94843  0  0  0.100175  0  1.00792  0  0  0.10254  0  1.007828  0  0  0.102318  0.098362  0  1.008255  0
H  H8  1  0.74388192  0.77678310  0.36589151  1  0  0.088162  0  0.976232  0  0  0.094991  0  1.042693  0  0  0.097322  0  1.041877  0  0  0.099308  0.093421  0  1.043312  0
H  H9  1  0.75652033  0.41142925  0.63454846  1  0  0.088174  0  0.976138  0  0  0.094991  0  1.042701  0  0  0.097347  0  1.041871  0  0  0.099782  0.093433  0  1.043316  0
H  H10  1  0.25610507  0.22322086  0.63410380  1  0  0.088163  0  0.976252  0  0  0.094992  0  1.042712  0  0  0.097307  0  1.041919  0  0  0.099296  0.093419  0  1.043329  0
H  H11  1  0.24347487  0.58855893  0.36543828  1  0  0.08805  0  0.976289  0  0  0.094932  0  1.042783  0  0  0.097286  0  1.041951  0  0  0.099767  0.093373  0  1.043397  0
H  H12  1  0.65420335  0.71451049  0.52081696  1  0  0.109394  0  0.951561  0  0  0.115258  0  1.018498  0  0  0.119231  0  1.015703  0  0  0.109926  0.112482  0  1.020292  0
H  H13  1  0.84566449  0.19393408  0.47930332  1  0  0.109545  0  0.9511  0  0  0.11559  0  1.017863  0  0  0.119465  0  1.01518  0  0  0.110277  0.112858  0  1.01961  0
H  H14  1  0.34579505  0.28549248  0.47918214  1  0  0.10941  0  0.951421  0  0  0.115251  0  1.018395  0  0  0.119228  0  1.015597  0  0  0.109943  0.112475  0  1.020189  0
H  H15  1  0.15434515  0.80604891  0.52069206  1  0  0.109528  0  0.951201  0  0  0.11551  0  1.018041  0  0  0.119424  0  1.015295  0  0  0.110249  0.112776  0  1.019788  0
H  H16  1  0.97967113  0.72464295  0.63564160  1  0  0.069432  0  0.946531  0  0  0.084771  0  1.015914  0  0  0.085595  0  1.014984  0  0  0.090011  0.084  0  1.016915  0
H  H17  1  0.52056504  0.08914682  0.36397132  1  0  0.069269  0  0.945884  0  0  0.084609  0  1.01525  0  0  0.085439  0  1.014298  0  0  0.089839  0.083846  0  1.016249  0
H  H18  1  0.02032991  0.27536003  0.36436325  1  0  0.069392  0  0.946536  0  0  0.084725  0  1.015924  0  0  0.085547  0  1.014994  0  0  0.090004  0.083954  0  1.016924  0
H  H19  1  0.47943464  0.91085616  0.63602720  1  0  0.069257  0  0.94584  0  0  0.084588  0  1.015213  0  0  0.085417  0  1.014264  0  0  0.089835  0.083825  0  1.016211  0
H  H20  1  0.91955799  0.54600126  0.59281304  1  0  0.064075  0  0.95725  0  0  0.082836  0  1.023109  0  0  0.082569  0  1.024234  0  0  0.087605  0.082822  0  1.022595  0
H  H21  1  0.58082807  0.95348052  0.40706905  1  0  0.064064  0  0.956749  0  0  0.082843  0  1.022614  0  0  0.082592  0  1.023729  0  0  0.087551  0.082821  0  1.022103  0
H  H22  1  0.08044320  0.45400278  0.40718628  1  0  0.06406  0  0.95718  0  0  0.082798  0  1.023082  0  0  0.082532  0  1.024204  0  0  0.087569  0.082772  0  1.022581  0
H  H23  1  0.41916826  0.04652455  0.59293567  1  0  0.064067  0  0.956741  0  0  0.082849  0  1.022602  0  0  0.082596  0  1.023719  0  0  0.087562  0.08283  0  1.022087  0
H  H24  1  0.14477589  0.62646397  0.67167704  1  0  0.073487  0  0.969094  0  0  0.089959  0  1.036637  0  0  0.089371  0  1.038758  0  0  0.091915  0.09031  0  1.035263  0
H  H25  1  0.35557854  0.95513740  0.32818923  1  0  0.073089  0  0.968773  0  0  0.089684  0  1.036304  0  0  0.089053  0  1.038461  0  0  0.091709  0.090045  0  1.034951  0
H  H26  1  0.85522944  0.37354115  0.32832797  1  0  0.073461  0  0.969137  0  0  0.089928  0  1.036677  0  0  0.08934  0  1.038798  0  0  0.091916  0.090275  0  1.035317  0
H  H27  1  0.64441948  0.04486978  0.67181336  1  0  0.073069  0  0.968751  0  0  0.089661  0  1.036284  0  0  0.089031  0  1.038439  0  0  0.091716  0.090026  0  1.034929  0
H  H28  1  0.89490765  0.71673046  0.80823342  1  0  0.383272  0  0.907444  0  0  0.358741  0  0.977282  0  0  0.369563  0  0.965232  0  0  0.295954  0.351161  0  0.985551  0
H  H29  1  0.60531891  0.90838989  0.19154371  1  0  0.383594  0  0.907397  0  0  0.359137  0  0.977116  0  0  0.369903  0  0.965118  0  0  0.296079  0.351551  0  0.985403  0
H  H30  1  0.10509099  0.28327356  0.19176705  1  0  0.383223  0  0.90753  0  0  0.358731  0  0.9773  0  0  0.369551  0  0.965253  0  0  0.295965  0.351149  0  0.985575  0
H  H31  1  0.39468014  0.09160991  0.80845672  1  0  0.383679  0  0.907455  0  0  0.359255  0  0.977097  0  0  0.370006  0  0.965112  0  0  0.296106  0.351668  0  0.985385  0
Pb  Pb32  1  0.25002688  0.93493921  0.99993941  1  0  1.391126  0  1.375447  0  0  1.213714  0  1.764884  0  0  1.278564  0  1.718351  0  0  0.659573  1.166109  0  1.797986  0
Pb  Pb33  1  0.74998093  0.06505326  0.00006058  1  0  1.391135  0  1.375437  0  0  1.213732  0  1.764876  0  0  1.278578  0  1.718342  0  0  0.659574  1.166132  0  1.797982  0
C  C34  1  0.43737367  0.24476634  0.16853139  1  0  0.67806  0  3.911111  0  0  0.617365  0  4.217697  0  0  0.653503  0  4.20839  0  0  0.218818  0.592955  0  4.223129  0
C  C35  1  0.06231915  0.07584665  0.83118787  1  0  0.678049  0  3.910517  0  0  0.617982  0  4.216305  0  0  0.654071  0  4.207013  0  0  0.219575  0.593593  0  4.221734  0
C  C36  1  0.56262433  0.75524084  0.83146948  1  0  0.678019  0  3.911016  0  0  0.61736  0  4.217551  0  0  0.653495  0  4.208242  0  0  0.218795  0.592949  0  4.222985  0
C  C37  1  0.93767672  0.92414998  0.16881648  1  0  0.678149  0  3.910485  0  0  0.618008  0  4.21632  0  0  0.654099  0  4.207026  0  0  0.219636  0.593622  0  4.221752  0
C  C38  1  0.52058616  0.39327376  0.22301727  1  0  -0.10646  0  3.713948  0  0  -0.088269  0  3.948726  0  0  -0.093961  0  3.968162  0  0  -0.005841  -0.086247  0  3.937333  0
C  C39  1  0.97903774  0.17000787  0.77684498  1  0  -0.106368  0  3.713604  0  0  -0.089021  0  3.949681  0  0  -0.094587  0  3.968976  0  0  -0.006238  -0.087063  0  3.938375  0
C  C40  1  0.47942140  0.60673559  0.77699352  1  0  -0.106336  0  3.713697  0  0  -0.088164  0  3.948526  0  0  -0.093851  0  3.967962  0  0  -0.005842  -0.086141  0  3.937134  0
C  C41  1  0.02095789  0.82998770  0.22315799  1  0  -0.106464  0  3.713578  0  0  -0.088994  0  3.949509  0  0  -0.094558  0  3.968802  0  0  -0.006241  -0.08704  0  3.938203  0
C  C42  1  0.57205087  0.42848910  0.13686204  1  0  -0.092283  0  3.739748  0  0  -0.11256  0  3.98509  0  0  -0.11449  0  4.005643  0  0  -0.084671  -0.111672  0  3.972712  0
C  C43  1  0.92772127  0.29148619  0.86309761  1  0  -0.092631  0  3.740195  0  0  -0.112454  0  3.985429  0  0  -0.114404  0  4.005933  0  0  -0.084482  -0.111533  0  3.973042  0
C  C44  1  0.42795460  0.57151074  0.86313810  1  0  -0.092235  0  3.739743  0  0  -0.112518  0  3.98508  0  0  -0.114451  0  4.005634  0  0  -0.084667  -0.11163  0  3.972699  0
C  C45  1  0.07226955  0.70850514  0.13689814  1  0  -0.092606  0  3.740436  0  0  -0.112484  0  3.985642  0  0  -0.114435  0  4.006144  0  0  -0.084495  -0.111564  0  3.973259  0
C  C46  1  0.65066372  0.56647860  0.18797210  1  0  -0.036786  0  3.718965  0  0  -0.051856  0  3.96729  0  0  -0.053126  0  3.988358  0  0  -0.077788  -0.04946  0  3.952382  0
C  C47  1  0.84940017  0.37864076  0.81221567  1  0  -0.036653  0  3.720512  0  0  -0.0515  0  3.968403  0  0  -0.052798  0  3.989527  0  0  -0.077618  -0.049105  0  3.953464  0
C  C48  1  0.34933902  0.43352650  0.81203148  1  0  -0.036872  0  3.718616  0  0  -0.051929  0  3.966947  0  0  -0.0532  0  3.988014  0  0  -0.077796  -0.049533  0  3.952039  0
C  C49  1  0.15059214  0.62135795  0.18777678  1  0  -0.036702  0  3.720671  0  0  -0.051592  0  3.968575  0  0  -0.052893  0  3.989699  0  0  -0.077641  -0.049195  0  3.953636  0
C  C50  1  0.67929167  0.67003329  0.32562469  1  0  -0.047531  0  3.753826  0  0  -0.060764  0  4.002466  0  0  -0.062254  0  4.02424  0  0  -0.083293  -0.059992  0  3.986663  0
C  C51  1  0.82086251  0.34472502  0.67464045  1  0  -0.047825  0  3.753834  0  0  -0.061181  0  4.002724  0  0  -0.062668  0  4.024413  0  0  -0.084268  -0.060432  0  3.986975  0
C  C52  1  0.32070037  0.32996437  0.67436380  1  0  -0.047526  0  3.753839  0  0  -0.060768  0  4.002473  0  0  -0.062245  0  4.024247  0  0  -0.08328  -0.059993  0  3.986666  0
C  C53  1  0.17914607  0.65525901  0.32535515  1  0  -0.047744  0  3.753275  0  0  -0.061145  0  4.002139  0  0  -0.06263  0  4.023831  0  0  -0.084295  -0.060392  0  3.986384  0
C  C54  1  0.62916114  0.63653230  0.41233320  1  0  -0.131101  0  3.72824  0  0  -0.150618  0  3.97742  0  0  -0.153781  0  3.998862  0  0  -0.07991  -0.146914  0  3.961369  0
C  C55  1  0.87073395  0.22435246  0.58777026  1  0  -0.131108  0  3.726556  0  0  -0.150422  0  3.975734  0  0  -0.153495  0  3.997228  0  0  -0.079608  -0.146776  0  3.959673  0
C  C56  1  0.37083997  0.36347702  0.58767530  1  0  -0.131059  0  3.728477  0  0  -0.15054  0  3.977673  0  0  -0.153702  0  3.999107  0  0  -0.079908  -0.146835  0  3.961618  0
C  C57  1  0.12927282  0.77564106  0.41223255  1  0  -0.130995  0  3.726182  0  0  -0.150274  0  3.975378  0  0  -0.15337  0  3.996853  0  0  -0.079547  -0.146629  0  3.959318  0
C  C58  1  0.54964187  0.49778348  0.36158844  1  0  0.129141  0  3.811208  0  0  0.126721  0  4.064514  0  0  0.127154  0  4.087505  0  0  0.087403  0.126796  0  4.049028  0
C  C59  1  0.94996994  0.13608063  0.63831175  1  0  0.129326  0  3.810176  0  0  0.126278  0  4.065034  0  0  0.126658  0  4.088022  0  0  0.08674  0.126389  0  4.049537  0
C  C60  1  0.45036172  0.50221952  0.63841439  1  0  0.129019  0  3.811183  0  0  0.126551  0  4.064553  0  0  0.126982  0  4.087546  0  0  0.087346  0.126622  0  4.04907  0
C  C61  1  0.05003040  0.86391285  0.36169049  1  0  0.129354  0  3.810227  0  0  0.126288  0  4.06505  0  0  0.12666  0  4.088062  0  0  0.086766  0.126404  0  4.049543  0
C  C62  1  0.01262873  0.64551853  0.66914388  1  0  -0.019949  0  3.681352  0  0  -0.109859  0  3.945076  0  0  -0.103325  0  3.951695  0  0  -0.154439  -0.114322  0  3.940701  0
C  C63  1  0.48770137  0.97656974  0.33064743  1  0  -0.019442  0  3.681088  0  0  -0.109243  0  3.944323  0  0  -0.102686  0  3.950961  0  0  -0.154134  -0.11373  0  3.939924  0
C  C64  1  0.98737228  0.35448445  0.33085924  1  0  -0.019844  0  3.681246  0  0  -0.109714  0  3.944938  0  0  -0.103178  0  3.951556  0  0  -0.154404  -0.114168  0  3.940575  0
C  C65  1  0.51229600  0.02343427  0.66935448  1  0  -0.019362  0  3.681066  0  0  -0.109152  0  3.944321  0  0  -0.102596  0  3.950957  0  0  -0.154128  -0.113641  0  3.939917  0
N  N66  1  0.50954468  0.45149162  0.44594204  1  0  -0.146607  0  3.013214  0  0  -0.124143  0  3.30258  0  0  -0.122783  0  3.308127  0  0  -0.145902  -0.125985  0  3.300392  0
N  N67  1  0.99000562  0.00537093  0.55383430  1  0  -0.146422  0  3.015329  0  0  -0.123649  0  3.304645  0  0  -0.122291  0  3.310238  0  0  -0.145459  -0.125474  0  3.302397  0
N  N68  1  0.49046216  0.54851456  0.55406377  1  0  -0.146587  0  3.013294  0  0  -0.124099  0  3.302681  0  0  -0.122738  0  3.308228  0  0  -0.145791  -0.12594  0  3.300494  0
N  N69  1  0.01000916  0.99462369  0.44617505  1  0  -0.146172  0  3.015166  0  0  -0.123394  0  3.30448  0  0  -0.122033  0  3.31007  0  0  -0.145369  -0.12522  0  3.30223  0
O  O70  1  0.52390580  0.14711327  0.12300191  1  0  -0.688088  0  2.028368  0  0  -0.609215  0  2.269967  0  0  -0.643529  0  2.26342  0  0  -0.289366  -0.584604  0  2.273522  0
O  O71  1  0.97594218  0.02379094  0.87676196  1  0  -0.687532  0  2.028049  0  0  -0.608866  0  2.26949  0  0  -0.643144  0  2.262889  0  0  -0.28912  -0.584312  0  2.273162  0
O  O72  1  0.47610263  0.85290030  0.87700835  1  0  -0.688062  0  2.028425  0  0  -0.609173  0  2.269947  0  0  -0.643511  0  2.26345  0  0  -0.28936  -0.584562  0  2.273499  0
O  O73  1  0.02405954  0.97619727  0.12323225  1  0  -0.687627  0  2.027832  0  0  -0.608942  0  2.269298  0  0  -0.643225  0  2.2627  0  0  -0.289166  -0.584367  0  2.272927  0
O  O74  1  0.28477593  0.21844628  0.16579589  1  0  -0.63754  0  1.994854  0  0  -0.574751  0  2.225248  0  0  -0.60441  0  2.217067  0  0  -0.290902  -0.554067  0  2.230222  0
O  O75  1  0.21487877  0.05211492  0.83376251  1  0  -0.638188  0  1.994101  0  0  -0.575437  0  2.224192  0  0  -0.605067  0  2.216041  0  0  -0.291627  -0.554752  0  2.229151  0
O  O76  1  0.71521937  0.78156089  0.83419406  1  0  -0.637571  0  1.994865  0  0  -0.574768  0  2.225225  0  0  -0.604426  0  2.217044  0  0  -0.290858  -0.554085  0  2.230202  0
O  O77  1  0.78512456  0.94788070  0.16623874  1  0  -0.638147  0  1.994303  0  0  -0.575376  0  2.22443  0  0  -0.605007  0  2.216276  0  0  -0.291617  -0.554696  0  2.229393  0
O  O78  1  0.01231097  0.69371170  0.80676743  1  0  -0.57468  0  2.130101  0  0  -0.5052  0  2.366097  0  0  -0.527331  0  2.357728  0  0  -0.407478  -0.489077  0  2.371133  0
O  O79  1  0.48794165  0.88689646  0.19303200  1  0  -0.574818  0  2.130925  0  0  -0.505561  0  2.366841  0  0  -0.527682  0  2.358664  0  0  -0.407384  -0.489425  0  2.371874  0
O  O80  1  0.98769348  0.30628919  0.19323638  1  0  -0.574681  0  2.130097  0  0  -0.505226  0  2.366062  0  0  -0.527355  0  2.357693  0  0  -0.407498  -0.489098  0  2.371087  0
O  O81  1  0.51205546  0.11310017  0.80696919  1  0  -0.574958  0  2.131023  0  0  -0.50574  0  2.366935  0  0  -0.527837  0  2.358756  0  0  -0.407453  -0.489608  0  2.371978  0
