# generated using pymatgen
data_ZnH18C28(NO)4
_symmetry_space_group_name_H-M   'P 1'
_cell_length_a   7.32817847
_cell_length_b   17.58364698
_cell_length_c   22.00466610
_cell_angle_alpha   109.74755180
_cell_angle_beta   90.00044387
_cell_angle_gamma   89.99978150
_symmetry_Int_Tables_number   1
_chemical_formula_structural   ZnH18C28(NO)4
_chemical_formula_sum   'Zn4 H72 C112 N16 O16'
_cell_volume   2668.68484751
_cell_formula_units_Z   4
loop_
 _symmetry_equiv_pos_site_id
 _symmetry_equiv_pos_as_xyz
  1  'x, y, z'
loop_
 _atom_site_type_symbol
 _atom_site_label
 _atom_site_symmetry_multiplicity
 _atom_site_fract_x
 _atom_site_fract_y
 _atom_site_fract_z
 _atom_site_occupancy
 _atom_site_pbe_bader_charge
 _atom_site_pbe_bader_spin_density
 _atom_site_pbe_cm5_charge
 _atom_site_pbe_ddec_charge
 _atom_site_pbe_ddec_spin_density
 _atom_site_pbe_ddec_sum_bond_order
 _atom_site_pbe_magmom
Zn  Zn0  1  0.00889806  0.49359017  0.74768649  1  1.263102  0  0.696667  0.800169  0  2.389341  0
Zn  Zn1  1  0.00890439  0.00640365  0.75231331  1  1.263057  0  0.696621  0.800099  0  2.389515  0
Zn  Zn2  1  0.99111458  0.50640835  0.25230891  1  1.262996  0  0.69666  0.800094  0  2.38944  0
Zn  Zn3  1  0.99110825  0.99360061  0.24769262  1  1.263211  0  0.696639  0.80019  0  2.389488  0
H  H4  1  0.73148726  0.13895456  0.75913622  1  0.24068  0  0.142213  0.123065  0  1.040959  0
H  H5  1  0.73148060  0.36103401  0.74086415  1  0.241244  0  0.14223  0.123006  0  1.040969  0
H  H6  1  0.26850355  0.86103998  0.24086545  1  0.241646  0  0.142249  0.123041  0  1.040931  0
H  H7  1  0.26852795  0.63896344  0.25913508  1  0.241167  0  0.142185  0.12298  0  1.040942  0
H  H8  1  0.94565565  0.98665113  0.90212715  1  0.113811  0  0.10586  0.12175  0  1.03477  0
H  H9  1  0.94564473  0.51333885  0.59787815  1  0.113809  0  0.105815  0.121674  0  1.034705  0
H  H10  1  0.05432288  0.01333928  0.09787622  1  0.113623  0  0.105861  0.121744  0  1.034817  0
H  H11  1  0.05433107  0.48666406  0.40212290  1  0.113669  0  0.105837  0.121771  0  1.034773  0
H  H12  1  0.79241661  0.01053622  0.00849050  1  0.036022  0  0.099242  0.100135  0  1.00231  0
H  H13  1  0.79240499  0.48945778  0.49151275  1  0.036666  0  0.099198  0.100086  0  1.002306  0
H  H14  1  0.20756601  0.98945711  0.99151087  1  0.036613  0  0.099244  0.100125  0  1.002375  0
H  H15  1  0.20757081  0.51054447  0.50848678  1  0.036702  0  0.099234  0.100093  0  1.00239  0
H  H16  1  0.53419826  0.10494152  0.04293393  1  0.073693  0  0.092055  0.087925  0  1.067735  0
H  H17  1  0.53417987  0.39505442  0.45706868  1  0.073707  0  0.092077  0.087941  0  1.067694  0
H  H18  1  0.46579665  0.89505540  0.95706744  1  0.07368  0  0.092041  0.087931  0  1.067708  0
H  H19  1  0.46580548  0.60494189  0.54293208  1  0.073747  0  0.092067  0.087935  0  1.067722  0
H  H20  1  0.41842673  0.18108204  0.97295578  1  0.091478  0  0.102434  0.108373  0  1.039626  0
H  H21  1  0.41840872  0.31891216  0.52704564  1  0.09129  0  0.102511  0.108492  0  1.039618  0
H  H22  1  0.58156271  0.81891369  0.02704574  1  0.091528  0  0.102441  0.108345  0  1.039646  0
H  H23  1  0.58158482  0.68108298  0.47295619  1  0.091357  0  0.102438  0.10838  0  1.039545  0
H  H24  1  0.22777111  0.14598227  0.85867423  1  0.084107  0  0.106415  0.116508  0  1.003122  0
H  H25  1  0.22777587  0.35399849  0.64133332  1  0.084225  0  0.106419  0.116616  0  1.002891  0
H  H26  1  0.77218968  0.85400567  0.14132716  1  0.084325  0  0.106408  0.116468  0  1.003126  0
H  H27  1  0.77222859  0.64600108  0.35867553  1  0.084192  0  0.106442  0.116608  0  1.003029  0
H  H28  1  0.00183304  0.24561788  0.84395962  1  0.11128  0  0.101343  0.099246  0  1.022887  0
H  H29  1  0.00185541  0.25435644  0.65604800  1  0.111572  0  0.101392  0.099316  0  1.022818  0
H  H30  1  0.99812639  0.75437003  0.15604085  1  0.111678  0  0.101446  0.099448  0  1.022671  0
H  H31  1  0.99815724  0.74564076  0.34396162  1  0.111589  0  0.10133  0.099264  0  1.022701  0
H  H32  1  0.43966258  0.39387428  0.81882192  1  0.09107  0  0.106119  0.110779  0  0.999077  0
H  H33  1  0.43970459  0.10610735  0.68118004  1  0.091221  0  0.106089  0.110684  0  0.999256  0
H  H34  1  0.56029821  0.60611133  0.18118161  1  0.091312  0  0.106114  0.110739  0  0.999135  0
H  H35  1  0.56031351  0.89388589  0.31881859  1  0.091113  0  0.106121  0.110675  0  0.999219  0
H  H36  1  0.66780176  0.29818663  0.83624510  1  0.152836  0  0.105801  0.127481  0  1.039755  0
H  H37  1  0.66783023  0.20180305  0.66375129  1  0.152477  0  0.105766  0.12748  0  1.039776  0
H  H38  1  0.33214812  0.70180433  0.16375704  1  0.152345  0  0.105805  0.127482  0  1.039741  0
H  H39  1  0.33217968  0.79819245  0.33624336  1  0.152595  0  0.105774  0.127462  0  1.039661  0
H  H40  1  0.64891878  0.89978331  0.74021798  1  0.185046  0  0.142097  0.107104  0  1.009239  0
H  H41  1  0.64891079  0.60021499  0.75977954  1  0.184892  0  0.142085  0.107047  0  1.009257  0
H  H42  1  0.35109660  0.10021960  0.25978307  1  0.184896  0  0.142069  0.107065  0  1.009192  0
H  H43  1  0.35109367  0.39978053  0.24021557  1  0.184935  0  0.142096  0.107089  0  1.009282  0
H  H44  1  0.16916483  0.93198461  0.60324356  1  0.063246  0  0.112123  0.129134  0  0.989488  0
H  H45  1  0.16917938  0.56801568  0.89675048  1  0.06304  0  0.112101  0.129126  0  0.989486  0
H  H46  1  0.83084236  0.06803934  0.39676004  1  0.062618  0  0.112105  0.12913  0  0.989969  0
H  H47  1  0.83083736  0.43198039  0.10324340  1  0.063247  0  0.112109  0.129084  0  0.989589  0
H  H48  1  0.24336405  0.81839814  0.50108858  1  0.062518  0  0.101948  0.103316  0  0.993245  0
H  H49  1  0.24337583  0.68160454  0.99890671  1  0.06246  0  0.101954  0.103338  0  0.993284  0
H  H50  1  0.75665132  0.18162872  0.49891258  1  0.062528  0  0.102016  0.103411  0  0.99333  0
H  H51  1  0.75663409  0.31839584  0.00109052  1  0.062464  0  0.101954  0.103312  0  0.993304  0
H  H52  1  0.06924323  0.69072654  0.46930561  1  0.090493  0  0.093283  0.08861  0  1.050885  0
H  H53  1  0.06923494  0.80927329  0.03069124  1  0.090593  0  0.093294  0.088636  0  1.050899  0
H  H54  1  0.93078034  0.30929414  0.53068945  1  0.090215  0  0.093273  0.088603  0  1.051109  0
H  H55  1  0.93075042  0.19072478  0.96930860  1  0.090492  0  0.093268  0.08858  0  1.050924  0
H  H56  1  0.81257888  0.67084670  0.53656468  1  0.117578  0  0.106244  0.116593  0  1.01348  0
H  H57  1  0.81255850  0.82914787  0.96343233  1  0.11735  0  0.106261  0.116652  0  1.013415  0
H  H58  1  0.18744741  0.32916856  0.46342992  1  0.117324  0  0.106249  0.116627  0  1.013442  0
H  H59  1  0.18742413  0.17084351  0.03656447  1  0.117559  0  0.106233  0.116553  0  1.013442  0
H  H60  1  0.76014295  0.65133983  0.65031137  1  0.144434  0  0.108109  0.134023  0  1.047179  0
H  H61  1  0.76014162  0.84865649  0.84968276  1  0.144483  0  0.108089  0.134029  0  1.04715  0
H  H62  1  0.23988197  0.34866896  0.34968661  1  0.144571  0  0.108064  0.133953  0  1.047255  0
H  H63  1  0.23986966  0.15133171  0.15030823  1  0.144476  0  0.108097  0.133964  0  1.047148  0
H  H64  1  0.51524227  0.55881804  0.66271452  1  0.09087  0  0.101545  0.102285  0  1.026583  0
H  H65  1  0.51524392  0.94118090  0.83728145  1  0.090839  0  0.101577  0.102336  0  1.026514  0
H  H66  1  0.48478812  0.44118947  0.33728087  1  0.090543  0  0.101594  0.102407  0  1.02631  0
H  H67  1  0.48478101  0.05881464  0.16271412  1  0.090787  0  0.101584  0.102383  0  1.026431  0
H  H68  1  0.11219195  0.74130088  0.67889404  1  0.090662  0  0.105653  0.108775  0  1.015012  0
H  H69  1  0.11218259  0.75870146  0.82110628  1  0.090597  0  0.105624  0.108803  0  1.014934  0
H  H70  1  0.88783297  0.25869640  0.32110015  1  0.090445  0  0.105582  0.108753  0  1.015076  0
H  H71  1  0.88782187  0.24130558  0.17889308  1  0.09054  0  0.105652  0.108853  0  1.015022  0
H  H72  1  0.35281732  0.83359084  0.66281368  1  0.084102  0  0.106081  0.112036  0  1.01793  0
H  H73  1  0.35281461  0.66640882  0.83718296  1  0.084225  0  0.106062  0.111965  0  1.018041  0
H  H74  1  0.64718987  0.16640821  0.33717959  1  0.084397  0  0.106049  0.111926  0  1.017982  0
H  H75  1  0.64718030  0.33359024  0.16281077  1  0.084123  0  0.106063  0.11199  0  1.018037  0
C  C76  1  0.71723327  0.12435655  0.80326928  1  0.958542  0  0.169155  0.138996  0  3.874281  0
C  C77  1  0.71722137  0.37563629  0.69673304  1  0.958673  0  0.169096  0.138944  0  3.874547  0
C  C78  1  0.28275209  0.87564039  0.19673255  1  0.958329  0  0.169177  0.139166  0  3.87427  0
C  C79  1  0.28277763  0.62436418  0.30326695  1  0.95787  0  0.169128  0.138983  0  3.874511  0
C  C80  1  0.76676919  0.07039066  0.87794649  1  0.312227  0  0.085548  0.13719  0  4.042379  0
C  C81  1  0.76675372  0.42959910  0.62205427  1  0.312599  0  0.085485  0.136982  0  4.042484  0
C  C82  1  0.23322436  0.92960697  0.12205824  1  0.312542  0  0.085573  0.137239  0  4.042356  0
C  C83  1  0.23323572  0.57039956  0.37794526  1  0.312564  0  0.085529  0.13713  0  4.042333  0
C  C84  1  0.83293224  0.02890596  0.91770828  1  -0.010735  0  -0.091539  -0.158509  0  3.978648  0
C  C85  1  0.83291823  0.47108564  0.58229494  1  -0.010242  0  -0.091469  -0.158274  0  3.978751  0
C  C86  1  0.16706130  0.97109048  0.08229661  1  -0.010314  0  -0.09149  -0.158379  0  3.978891  0
C  C87  1  0.16706303  0.52891664  0.41770550  1  -0.010055  0  -0.091534  -0.158428  0  3.978832  0
C  C88  1  0.74535857  0.04228806  0.97655034  1  -0.034926  0  -0.095432  -0.089543  0  4.020462  0
C  C89  1  0.74534879  0.45770359  0.52345265  1  -0.035875  0  -0.09535  -0.089496  0  4.020574  0
C  C90  1  0.25462542  0.95770592  0.02345256  1  -0.035808  0  -0.095469  -0.089707  0  4.020507  0
C  C91  1  0.25463384  0.54229569  0.47654749  1  -0.035787  0  -0.095421  -0.089643  0  4.020445  0
C  C92  1  0.59697516  0.09595892  0.99622973  1  -0.001373  0  -0.095096  -0.077093  0  4.022516  0
C  C93  1  0.59695585  0.40403708  0.50377534  1  -0.001603  0  -0.095188  -0.077171  0  4.022612  0
C  C94  1  0.40302111  0.90403685  0.00377317  1  -0.000995  0  -0.095074  -0.076987  0  4.022391  0
C  C95  1  0.40302950  0.59596289  0.49622770  1  -0.001788  0  -0.095121  -0.077048  0  4.022256  0
C  C96  1  0.53062789  0.13823573  0.95765863  1  -0.009411  0  -0.095867  -0.169511  0  4.012997  0
C  C97  1  0.53060575  0.36175844  0.54234399  1  -0.008903  0  -0.095937  -0.169655  0  4.013271  0
C  C98  1  0.46935746  0.86175761  0.04234321  1  -0.009479  0  -0.095929  -0.169603  0  4.013229  0
C  C99  1  0.46938369  0.63823729  0.45765753  1  -0.009018  0  -0.095836  -0.169528  0  4.012961  0
C  C100  1  0.61726409  0.12411120  0.89844933  1  0.321518  0  0.095804  0.094817  0  3.999304  0
C  C101  1  0.61724454  0.37588049  0.60155243  1  0.320481  0  0.09586  0.094954  0  3.999518  0
C  C102  1  0.38272263  0.87588515  0.10155280  1  0.320859  0  0.095808  0.094871  0  3.999633  0
C  C103  1  0.38275173  0.62411639  0.39844756  1  0.320642  0  0.095844  0.094924  0  3.999275  0
C  C104  1  0.45939166  0.21641377  0.84777194  1  0.245181  0  0.092242  0.169686  0  4.015838  0
C  C105  1  0.45940004  0.28357389  0.65223159  1  0.24532  0  0.092054  0.169336  0  4.016937  0
C  C106  1  0.54057049  0.78357535  0.15222884  1  0.245357  0  0.092051  0.169313  0  4.016414  0
C  C107  1  0.54060578  0.71642422  0.34776962  1  0.245066  0  0.092048  0.169235  0  4.016843  0
C  C108  1  0.27309992  0.20168581  0.85198417  1  -0.034959  0  -0.087994  -0.160515  0  3.976189  0
C  C109  1  0.27311216  0.29829551  0.64802319  1  -0.034652  0  -0.087897  -0.160569  0  3.976891  0
C  C110  1  0.72686633  0.79830222  0.14801997  1  -0.035276  0  -0.087844  -0.160228  0  3.976515  0
C  C111  1  0.72689776  0.70170343  0.35198459  1  -0.034562  0  -0.087857  -0.160482  0  3.976667  0
C  C112  1  0.14789110  0.25671015  0.84337508  1  0.028678  0  -0.080151  -0.072444  0  3.972916  0
C  C113  1  0.14791495  0.24327070  0.65663365  1  0.034277  0  -0.080244  -0.07256  0  3.973543  0
C  C114  1  0.85206969  0.74327977  0.15663180  1  0.035309  0  -0.080277  -0.072786  0  3.973445  0
C  C115  1  0.85209633  0.75672757  0.34337215  1  0.028353  0  -0.080216  -0.072486  0  3.973205  0
C  C116  1  0.20744569  0.32504276  0.82990567  1  -0.108526  0  -0.015512  -0.035549  0  3.957545  0
C  C117  1  0.20748683  0.17494159  0.67010137  1  -0.114391  0  -0.015594  -0.03562  0  3.957907  0
C  C118  1  0.79251237  0.67494707  0.17009846  1  -0.114956  0  -0.01558  -0.035628  0  3.95798  0
C  C119  1  0.79253264  0.82505909  0.32990504  1  -0.108614  0  -0.015477  -0.035609  0  3.957734  0
C  C120  1  0.39478957  0.34008903  0.82853452  1  0.012826  0  -0.079075  -0.065667  0  3.963354  0
C  C121  1  0.39483224  0.15989576  0.67147129  1  0.012271  0  -0.0789  -0.065327  0  3.963204  0
C  C122  1  0.60516440  0.65989964  0.17147068  1  0.012583  0  -0.079013  -0.065463  0  3.963451  0
C  C123  1  0.60518450  0.84010059  0.32853084  1  0.012634  0  -0.078896  -0.065255  0  3.963014  0
C  C124  1  0.52192383  0.28638104  0.83792579  1  -0.014448  0  -0.092068  -0.177544  0  3.976231  0
C  C125  1  0.52195080  0.21360650  0.66207514  1  -0.013922  0  -0.09196  -0.177447  0  3.976146  0
C  C126  1  0.47803833  0.71360752  0.16207621  1  -0.014374  0  -0.091925  -0.177432  0  3.976388  0
C  C127  1  0.47806458  0.78639097  0.33792455  1  -0.013829  0  -0.092098  -0.177494  0  3.975979  0
C  C128  1  0.07209647  0.37806961  0.81175981  1  1.567822  0  0.202249  0.569254  0  4.236067  0
C  C129  1  0.07213031  0.12191724  0.68824750  1  1.567255  0  0.202333  0.569233  0  4.236312  0
C  C130  1  0.92786296  0.62192194  0.18824202  1  1.567025  0  0.20226  0.569241  0  4.236236  0
C  C131  1  0.92788916  0.87808533  0.31176165  1  1.567438  0  0.202352  0.569247  0  4.23598  0
C  C132  1  0.73380169  0.87757071  0.69752800  1  1.008861  0  0.1737  0.164025  0  3.891719  0
C  C133  1  0.73379039  0.62242509  0.80246820  1  1.008819  0  0.17373  0.164225  0  3.891552  0
C  C134  1  0.26621232  0.12243821  0.30247365  1  1.008913  0  0.173823  0.164188  0  3.891298  0
C  C135  1  0.26620724  0.37756860  0.19752599  1  1.008946  0  0.173706  0.164047  0  3.89167  0
C  C136  1  0.94676108  0.86472332  0.62576930  1  0.361173  0  0.090272  0.149578  0  4.032682  0
C  C137  1  0.94676086  0.63527592  0.87422650  1  0.360801  0  0.090233  0.149594  0  4.03289  0
C  C138  1  0.05325020  0.13529758  0.37423263  1  0.362001  0  0.090352  0.149516  0  4.033008  0
C  C139  1  0.05324223  0.36472079  0.12576845  1  0.361145  0  0.090257  0.14944  0  4.032938  0
C  C140  1  0.09226585  0.87558659  0.58835153  1  0.054289  0  -0.085962  -0.151292  0  3.965661  0
C  C141  1  0.09227069  0.62441430  0.91164110  1  0.055095  0  -0.085896  -0.151234  0  3.965621  0
C  C142  1  0.90775088  0.12443301  0.41164735  1  0.056002  0  -0.085759  -0.151004  0  3.966288  0
C  C143  1  0.90773923  0.37558420  0.08835385  1  0.054277  0  -0.085884  -0.151125  0  3.965859  0
C  C144  1  0.13182239  0.81207913  0.53179952  1  -0.040275  0  -0.093574  -0.085216  0  4.021324  0
C  C145  1  0.13182795  0.68791940  0.96819489  1  -0.040003  0  -0.093548  -0.085198  0  4.021087  0
C  C146  1  0.86818480  0.18794405  0.46819889  1  -0.041037  0  -0.093856  -0.08568  0  4.021609  0
C  C147  1  0.86817515  0.31207732  0.03180051  1  -0.039777  0  -0.093601  -0.08527  0  4.021261  0
C  C148  1  0.03166937  0.73944978  0.51325096  1  -0.052731  0  -0.095327  -0.078317  0  4.029462  0
C  C149  1  0.03166379  0.76054951  0.98674611  1  -0.052722  0  -0.095411  -0.078482  0  4.029509  0
C  C150  1  0.96835010  0.26057097  0.48674638  1  -0.053923  0  -0.095228  -0.078101  0  4.029249  0
C  C151  1  0.96833112  0.23944791  0.01325220  1  -0.05309  0  -0.095361  -0.078303  0  4.029477  0
C  C152  1  0.88671316  0.72778452  0.55007882  1  -0.022463  0  -0.095254  -0.168348  0  4.010792  0
C  C153  1  0.88670526  0.77221243  0.94991898  1  -0.022184  0  -0.095184  -0.168216  0  4.01074  0
C  C154  1  0.11329948  0.27223499  0.44991731  1  -0.021056  0  -0.095323  -0.168417  0  4.010435  0
C  C155  1  0.11328555  0.22778254  0.05007780  1  -0.022214  0  -0.095197  -0.168227  0  4.010796  0
C  C156  1  0.84489685  0.79198407  0.60604668  1  0.279264  0  0.095629  0.095785  0  3.992592  0
C  C157  1  0.84489370  0.70801404  0.89394903  1  0.278675  0  0.095576  0.095666  0  3.99264  0
C  C158  1  0.15511443  0.20803484  0.39394929  1  0.277961  0  0.09559  0.095695  0  3.992364  0
C  C159  1  0.15510121  0.29198091  0.10604684  1  0.279319  0  0.09558  0.095714  0  3.992799  0
C  C160  1  0.56963003  0.74750995  0.65569087  1  0.274981  0  0.095708  0.176435  0  4.001415  0
C  C161  1  0.56962535  0.75248534  0.84430478  1  0.27488  0  0.095737  0.176501  0  4.001144  0
C  C162  1  0.43038807  0.25249151  0.34430300  1  0.270731  0  0.095718  0.176407  0  4.001506  0
C  C163  1  0.43037638  0.24750833  0.15568896  1  0.275012  0  0.095746  0.176473  0  4.00123  0
C  C164  1  0.61749082  0.66993427  0.65425606  1  -0.090409  0  -0.090794  -0.176033  0  3.954524  0
C  C165  1  0.61748820  0.83006100  0.84573970  1  -0.090374  0  -0.090802  -0.176127  0  3.954329  0
C  C166  1  0.38253956  0.33007025  0.34573948  1  -0.085196  0  -0.09076  -0.17595  0  3.954382  0
C  C167  1  0.38252853  0.16993151  0.15425510  1  -0.090139  0  -0.090805  -0.175937  0  3.954535  0
C  C168  1  0.48120762  0.61918798  0.66284681  1  -0.055841  0  -0.084035  -0.084474  0  3.981964  0
C  C169  1  0.48120981  0.88080984  0.83715106  1  -0.055896  0  -0.084083  -0.084517  0  3.981959  0
C  C170  1  0.51882140  0.38081605  0.33715225  1  -0.056118  0  -0.084043  -0.084596  0  3.981979  0
C  C171  1  0.51880693  0.11918636  0.16284649  1  -0.056457  0  -0.084035  -0.084685  0  3.982168  0
C  C172  1  0.29989244  0.64552905  0.67320852  1  -0.004072  0  -0.018985  -0.042719  0  3.975833  0
C  C173  1  0.29989190  0.85447207  0.82679471  1  -0.003839  0  -0.018899  -0.04261  0  3.975809  0
C  C174  1  0.70013794  0.35447621  0.32679130  1  -0.003584  0  -0.018971  -0.042668  0  3.975771  0
C  C175  1  0.70012211  0.14553205  0.17320665  1  -0.003389  0  -0.018921  -0.042354  0  3.975598  0
C  C176  1  0.25390793  0.72195079  0.67126298  1  0.029315  0  -0.076712  -0.066254  0  3.963319  0
C  C177  1  0.25390130  0.77805096  0.82874028  1  0.02976  0  -0.076726  -0.066416  0  3.963336  0
C  C178  1  0.74611426  0.27805150  0.32873746  1  0.029479  0  -0.07675  -0.066408  0  3.963559  0
C  C179  1  0.74610316  0.22195190  0.17125939  1  0.0297  0  -0.076758  -0.066565  0  3.963361  0
C  C180  1  0.38806782  0.77333872  0.66271186  1  -0.009664  0  -0.085867  -0.162267  0  3.977629  0
C  C181  1  0.38805911  0.72665975  0.83728548  1  -0.009838  0  -0.085825  -0.162085  0  3.977497  0
C  C182  1  0.61195301  0.22666149  0.33728033  1  -0.010289  0  -0.085722  -0.161986  0  3.977446  0
C  C183  1  0.61194398  0.27334000  0.16271069  1  -0.009802  0  -0.085916  -0.16221  0  3.977497  0
C  C184  1  0.15561964  0.59726500  0.69207590  1  1.553007  0  0.195097  0.554386  0  4.243674  0
C  C185  1  0.15562369  0.90273676  0.80792575  1  1.553769  0  0.195076  0.55436  0  4.243571  0
C  C186  1  0.84440529  0.40273843  0.30792301  1  1.55303  0  0.195187  0.55454  0  4.243625  0
C  C187  1  0.84439032  0.09727107  0.19207927  1  1.553137  0  0.195074  0.554259  0  4.24377  0
N  N188  1  0.82482111  0.07186867  0.81778856  1  -1.232437  0  -0.352475  -0.34813  0  3.526926  0
N  N189  1  0.82480568  0.42812292  0.68221417  1  -1.233044  0  -0.352416  -0.348045  0  3.526931  0
N  N190  1  0.17517106  0.92813017  0.18221647  1  -1.233312  0  -0.352469  -0.348194  0  3.5268  0
N  N191  1  0.17518922  0.57187813  0.31778505  1  -1.232467  0  -0.352443  -0.348117  0  3.526992  0
N  N192  1  0.59065513  0.15733997  0.84995204  1  -1.270828  0  -0.218421  -0.041597  0  3.745914  0
N  N193  1  0.59065337  0.34264932  0.65004905  1  -1.270642  0  -0.218417  -0.041473  0  3.746268  0
N  N194  1  0.40932067  0.84265457  0.15004963  1  -1.27116  0  -0.218505  -0.041675  0  3.746237  0
N  N195  1  0.40935245  0.65734694  0.34995033  1  -1.270445  0  -0.218384  -0.041418  0  3.746128  0
N  N196  1  0.87444477  0.91620783  0.68371849  1  -1.231613  0  -0.351328  -0.346097  0  3.530152  0
N  N197  1  0.87444096  0.58379150  0.81627851  1  -1.231605  0  -0.351389  -0.346305  0  3.530239  0
N  N198  1  0.12555833  0.08380954  0.31628528  1  -1.231811  0  -0.351507  -0.346326  0  3.530366  0
N  N199  1  0.12556214  0.41620461  0.18371629  1  -1.231942  0  -0.351323  -0.346  0  3.530085  0
N  N200  1  0.70892766  0.80283719  0.65265601  1  -1.255838  0  -0.218332  -0.048132  0  3.729781  0
N  N201  1  0.70892628  0.69715982  0.84733998  1  -1.255628  0  -0.218285  -0.048143  0  3.729879  0
N  N202  1  0.29108362  0.19717453  0.34733998  1  -1.255563  0  -0.218301  -0.047995  0  3.729374  0
N  N203  1  0.29107000  0.30283391  0.15265559  1  -1.255783  0  -0.218273  -0.048103  0  3.729745  0
O  O204  1  0.14639686  0.43257458  0.79188899  1  -1.180709  0  -0.341407  -0.568934  0  2.353599  0
O  O205  1  0.14644257  0.06741342  0.70811834  1  -1.180903  0  -0.341264  -0.568799  0  2.353305  0
O  O206  1  0.85356393  0.56741511  0.20811101  1  -1.180589  0  -0.34135  -0.568805  0  2.353321  0
O  O207  1  0.85358236  0.93259097  0.29189126  1  -1.180634  0  -0.341416  -0.568965  0  2.353259  0
O  O208  1  0.90452442  0.36584730  0.81426277  1  -1.178772  0  -0.325002  -0.555837  0  2.155863  0
O  O209  1  0.90456629  0.13413415  0.68574309  1  -1.178192  0  -0.32518  -0.555904  0  2.156401  0
O  O210  1  0.09543091  0.63414375  0.18574213  1  -1.178059  0  -0.325109  -0.555912  0  2.156178  0
O  O211  1  0.09545727  0.86586655  0.31426377  1  -1.178469  0  -0.325156  -0.555861  0  2.156122  0
O  O212  1  0.21211709  0.53692902  0.70867080  1  -1.163838  0  -0.343546  -0.558389  0  2.257909  0
O  O213  1  0.21212431  0.96307335  0.79133251  1  -1.164077  0  -0.343562  -0.558387  0  2.25796  0
O  O214  1  0.78789965  0.46307390  0.29133071  1  -1.164152  0  -0.343595  -0.5585  0  2.257982  0
O  O215  1  0.78789516  0.03693756  0.20867509  1  -1.16409  0  -0.343523  -0.558394  0  2.258088  0
O  O216  1  0.99166361  0.61801627  0.69324681  1  -1.191127  0  -0.320891  -0.559037  0  2.194251  0
O  O217  1  0.99166919  0.88198420  0.80675078  1  -1.191607  0  -0.320893  -0.559049  0  2.194199  0
O  O218  1  0.00835449  0.38198523  0.30674798  1  -1.191108  0  -0.320974  -0.559136  0  2.194248  0
O  O219  1  0.00834755  0.11802046  0.19324889  1  -1.190965  0  -0.320931  -0.559044  0  2.194257  0
