# generated using pymatgen
data_CuH18C19(NO2)2
_symmetry_space_group_name_H-M   'P 1'
_cell_length_a   9.66057494
_cell_length_b   10.17462210
_cell_length_c   10.90082305
_cell_angle_alpha   113.48366003
_cell_angle_beta   116.87489924
_cell_angle_gamma   91.41128608
_symmetry_Int_Tables_number   1
_chemical_formula_structural   CuH18C19(NO2)2
_chemical_formula_sum   'Cu2 H36 C38 N4 O8'
_cell_volume   848.68664236
_cell_formula_units_Z   2
loop_
 _symmetry_equiv_pos_site_id
 _symmetry_equiv_pos_as_xyz
  1  'x, y, z'
loop_
 _atom_site_type_symbol
 _atom_site_label
 _atom_site_symmetry_multiplicity
 _atom_site_fract_x
 _atom_site_fract_y
 _atom_site_fract_z
 _atom_site_occupancy
 _atom_site_hle17_ddec_charge
 _atom_site_hle17_ddec_spin_density
 _atom_site_hle17_ddec_sum_bond_order
 _atom_site_hle17_magmom
 _atom_site_hse06_10hf_ddec_charge
 _atom_site_hse06_10hf_ddec_spin_density
 _atom_site_hse06_10hf_ddec_sum_bond_order
 _atom_site_hse06_10hf_magmom
 _atom_site_hse06_ddec_charge
 _atom_site_hse06_ddec_spin_density
 _atom_site_hse06_ddec_sum_bond_order
 _atom_site_hse06_magmom
 _atom_site_pbe_cm5_charge
 _atom_site_pbe_ddec_charge
 _atom_site_pbe_ddec_spin_density
 _atom_site_pbe_ddec_sum_bond_order
 _atom_site_pbe_magmom
Cu  Cu0  1  0.56768419  0.56089683  0.70532808  1  0.869041  -0.714259  1.745883  -0.494  0.846444  -0.803849  2.137545  -0.613  0.93937  -0.881889  2.067126  -0.7  0.737798  0.789932  -0.744821  2.187082  -0.555
Cu  Cu1  1  0.43231714  0.43910707  0.29468041  1  0.869052  0.714269  1.745889  0.494  0.84629  0.803838  2.137702  0.613  0.939328  0.881872  2.067146  0.7  0.737802  0.78993  0.744816  2.187131  0.555
H  H2  1  0.66776236  0.87819368  0.97558828  1  0.089891  -0.001031  0.940322  -0.001  0.098689  -0.001009  1.003218  -0.001  0.101409  -0.000748  1.000543  -0.001  0.123117  0.096566  -0.001164  1.005365  -0.001
H  H3  1  0.33224909  0.12181331  0.02440979  1  0.089881  0.001031  0.940289  0.001  0.098568  0.001009  1.003291  0.001  0.101279  0.000748  1.000637  0.001  0.123071  0.096451  0.001164  1.00544  0.001
H  H4  1  0.58759724  0.99299872  0.17632641  1  0.096331  -0.000627  1.00036  0.0  0.106563  -0.000597  1.064105  0.0  0.109137  -0.000441  1.064437  0.0  0.104325  0.103943  -0.000594  1.065748  -0.001
H  H5  1  0.41240223  0.00701940  0.82366726  1  0.096321  0.000626  1.000419  0.0  0.10658  0.000597  1.064119  0.0  0.10916  0.000441  1.064437  0.0  0.104341  0.103958  0.000594  1.065762  0.001
H  H6  1  0.38057049  0.83890569  0.17735660  1  0.119249  -0.000195  0.909757  0.0  0.13472  -1e-06  0.958328  0.0  0.137954  5e-06  0.955829  0.0  0.121721  0.132582  -3.4e-05  0.959922  0.0
H  H7  1  0.61941981  0.16110460  0.82261771  1  0.119228  0.000195  0.909861  0.0  0.134733  1e-06  0.958381  0.0  0.137952  -5e-06  0.955904  0.0  0.121688  0.132589  3.4e-05  0.959972  0.0
H  H8  1  0.19284453  0.58729858  0.05374912  1  0.136809  -0.00026  0.943873  0.0  0.146628  -0.000231  1.002636  0.0  0.150494  -0.000165  1.000467  0.0  0.116531  0.143662  -0.00029  1.00467  0.0
H  H9  1  0.80714664  0.41272307  0.94625628  1  0.136783  0.00026  0.943845  0.0  0.146606  0.00023  1.002629  0.0  0.150467  0.000165  1.000464  0.0  0.116519  0.143633  0.00029  1.004662  0.0
H  H10  1  0.08478086  0.32677542  0.85338075  1  0.135931  -0.000221  0.952184  0.0  0.147473  -0.000179  1.00769  0.0  0.151535  -0.000116  1.004959  0.0  0.114064  0.144605  -0.000237  1.009511  0.0
H  H11  1  0.91522650  0.67324180  0.14664052  1  0.135886  0.000223  0.952237  0.0  0.147391  0.000179  1.007789  0.0  0.151452  0.000115  1.005057  0.0  0.114001  0.144524  0.000237  1.009612  0.0
H  H12  1  0.09039552  0.11518168  0.62825569  1  0.096765  -0.000206  0.932595  0.0  0.112093  -1.3e-05  0.988121  0.0  0.114604  5e-06  0.986335  0.0  0.113116  0.110215  -2e-06  0.989746  0.0
H  H13  1  0.90959656  0.88482231  0.37175188  1  0.096795  0.000209  0.932697  0.0  0.112181  1.2e-05  0.988135  0.0  0.114696  -6e-06  0.986344  0.0  0.113117  0.110304  2e-06  0.989766  0.0
H  H14  1  0.20030522  0.03484836  0.44614695  1  0.110653  -0.000412  0.937838  0.0  0.124742  -0.000425  0.989731  0.0  0.128517  -0.00032  0.987747  0.0  0.115284  0.121552  -0.000545  0.992243  -0.001
H  H15  1  0.79968603  0.96517347  0.55387598  1  0.110771  0.000409  0.937575  0.0  0.124812  0.000425  0.989511  0.0  0.128608  0.000319  0.987506  0.0  0.115307  0.121616  0.000545  0.992022  0.001
H  H16  1  0.39480403  0.22294717  0.46991335  1  0.098921  -0.000914  0.942014  -0.002  0.10947  -0.000904  0.997698  -0.002  0.112447  -0.000708  0.99459  -0.001  0.127302  0.107112  -0.00106  1.00008  -0.002
H  H17  1  0.60517552  0.77704929  0.53010115  1  0.098887  0.000915  0.941982  0.002  0.10937  0.000904  0.997739  0.002  0.112345  0.000708  0.994639  0.001  0.12725  0.107014  0.001059  1.000108  0.002
H  H18  1  0.94992167  0.93039993  0.81863903  1  0.093092  0.000537  0.934467  0.001  0.108263  2e-05  0.995258  0.0  0.110145  2e-05  0.994633  0.0  0.092845  0.10703  3.6e-05  0.99545  0.0
H  H19  1  0.05012285  0.06959242  0.18136599  1  0.093037  -0.000533  0.934629  -0.001  0.10821  -2e-05  0.995366  0.0  0.110084  -2e-05  0.994745  0.0  0.092817  0.106981  -3.6e-05  0.99556  0.0
H  H20  1  0.10035322  0.89087476  0.96090943  1  0.086596  -0.001173  0.935747  -0.001  0.102869  -0.000908  0.995388  -0.001  0.103204  -0.000553  0.996226  -0.001  0.090521  0.102633  -0.00117  0.994778  -0.001
H  H21  1  0.89966169  0.10909456  0.03908177  1  0.08656  0.001179  0.935762  0.001  0.10281  0.000908  0.99542  0.001  0.103137  0.000554  0.996262  0.001  0.090521  0.102568  0.00117  0.99481  0.001
H  H22  1  0.04844572  0.63569956  0.75350460  1  0.06168  1.1e-05  0.950791  0.0  0.081466  1.6e-05  1.009858  0.0  0.081183  1e-05  1.012376  0.0  0.084784  0.081368  1.8e-05  1.008653  0.0
H  H23  1  0.95155411  0.36426983  0.24647693  1  0.06165  -1.3e-05  0.950855  0.0  0.081459  -1.7e-05  1.009874  0.0  0.081175  -9e-06  1.012393  0.0  0.084738  0.081358  -1.8e-05  1.00867  0.0
H  H24  1  0.89788965  0.67434334  0.61389191  1  0.066209  -4.6e-05  0.957741  0.0  0.08405  -3.5e-05  1.019845  0.0  0.084453  -1.5e-05  1.021298  0.0  0.0858  0.083741  -5.5e-05  1.018997  0.0
H  H25  1  0.10209991  0.32563499  0.38608878  1  0.066274  4.4e-05  0.957828  0.0  0.084035  3.5e-05  1.019997  0.0  0.084435  1.5e-05  1.021454  0.0  0.085786  0.083724  5.5e-05  1.01915  0.0
H  H26  1  0.25398174  0.83790069  0.81372445  1  0.045016  2.5e-05  0.971406  0.0  0.065117  -3e-06  1.035842  0.0  0.064136  4e-06  1.039155  0.0  0.079215  0.065896  -7e-06  1.033527  0.0
H  H27  1  0.74601343  0.16208533  0.18625853  1  0.044917  -2.5e-05  0.971354  0.0  0.065039  2e-06  1.035811  0.0  0.064049  -3e-06  1.039122  0.0  0.07912  0.065819  7e-06  1.033496  0.0
H  H28  1  0.10616804  0.89068496  0.68609491  1  0.043268  8.4e-05  0.948245  0.0  0.063864  8.3e-05  1.012383  0.0  0.063441  5.6e-05  1.013988  0.0  0.079386  0.064068  9.8e-05  1.011693  0.0
H  H29  1  0.89381898  0.10929677  0.31389151  1  0.043281  -8.6e-05  0.948238  0.0  0.063857  -8.4e-05  1.012399  0.0  0.06345  -5.6e-05  1.013987  0.0  0.07939  0.064065  -9.8e-05  1.011712  0.0
H  H30  1  0.04498944  0.64124427  0.46310282  1  0.058386  2.7e-05  0.953659  0.0  0.078308  -1e-06  1.01364  0.0  0.078354  -3e-06  1.015612  0.0  0.083917  0.078594  4.1e-05  1.011808  0.0
H  H31  1  0.95501738  0.35874606  0.53688181  1  0.058378  -2.8e-05  0.953614  0.0  0.078324  1e-06  1.013632  0.0  0.078378  3e-06  1.015595  0.0  0.083913  0.07861  -4.1e-05  1.011799  0.0
H  H32  1  0.20026778  0.59483619  0.59116028  1  0.066148  0.000181  0.949343  0.0  0.080789  0.000158  1.017525  0.0  0.081436  0.000121  1.018164  0.0  0.085787  0.08001  0.000192  1.017895  0.0
H  H33  1  0.79973724  0.40515191  0.40882006  1  0.066121  -0.000177  0.94919  0.0  0.080845  -0.000158  1.017332  0.0  0.081492  -0.00012  1.017975  0.0  0.085806  0.080062  -0.000192  1.017708  0.0
H  H34  1  0.24465027  0.86292334  0.53667441  1  0.078181  0.001275  0.957897  0.001  0.092288  0.001012  1.022582  0.001  0.092718  0.000672  1.023474  0.001  0.087193  0.092048  0.001278  1.022292  0.001
H  H35  1  0.75536591  0.13708384  0.46334671  1  0.078139  -0.001275  0.957865  -0.001  0.092206  -0.001013  1.022559  -0.001  0.092632  -0.000672  1.023457  -0.001  0.087155  0.091965  -0.001278  1.022272  -0.001
H  H36  1  0.39994449  0.80975312  0.66178904  1  0.086817  -0.000236  0.950772  -0.001  0.10087  0.000134  1.015566  0.0  0.102563  0.000117  1.014685  0.0  0.092188  0.099649  6.7e-05  1.016324  0.0
H  H37  1  0.60005389  0.19024854  0.33821379  1  0.08683  0.000236  0.950759  0.001  0.100896  -0.000135  1.015482  0.0  0.102591  -0.000117  1.014601  0.0  0.092206  0.099673  -6.7e-05  1.016248  0.0
C  C38  1  0.57802182  0.81508533  0.97895989  1  0.150894  0.006847  3.676534  0.008  0.120453  0.001723  3.935468  0.003  0.133026  0.002437  3.949276  0.004  0.060627  0.112267  0.001177  3.92789  0.002
C  C39  1  0.42197944  0.18491838  0.02103108  1  0.150965  -0.00682  3.676497  -0.007  0.12064  -0.001719  3.935407  -0.003  0.133213  -0.002435  3.949215  -0.004  0.060686  0.112451  -0.001176  3.927845  -0.002
C  C40  1  0.53157014  0.87777710  0.09056261  1  -0.136582  -0.006501  3.753371  -0.007  -0.150866  -0.003393  4.008148  -0.004  -0.158863  -0.003196  4.028169  -0.004  -0.087122  -0.145794  -0.003653  3.997693  -0.004
C  C41  1  0.46844219  0.12222883  0.90944093  1  -0.136534  0.006472  3.753508  0.007  -0.150848  0.003391  4.00824  0.004  -0.158839  0.003197  4.028253  0.004  -0.087153  -0.145778  0.003653  3.99778  0.004
C  C42  1  0.41777726  0.79324630  0.09128397  1  -0.029037  0.007153  3.645268  0.006  -0.05339  0.002928  3.88942  0.003  -0.04803  0.003064  3.903519  0.003  -0.052615  -0.057821  0.002861  3.880139  0.003
C  C43  1  0.58223013  0.20675856  0.90871720  1  -0.02912  -0.007127  3.645382  -0.006  -0.053511  -0.002925  3.889539  -0.003  -0.048144  -0.003066  3.903643  -0.003  -0.052581  -0.057935  -0.00286  3.880243  -0.003
C  C44  1  0.35019371  0.64304276  0.97933311  1  0.037392  -0.003953  3.769609  -0.004  0.054374  -0.002228  4.000765  -0.003  0.052438  -0.00194  4.023898  -0.002  0.005945  0.055737  -0.002492  3.985152  -0.003
C  C45  1  0.64982181  0.35696211  0.02067773  1  0.037382  0.003919  3.769479  0.004  0.05442  0.002226  4.000641  0.003  0.052487  0.00194  4.02377  0.002  0.005953  0.055783  0.002491  3.985022  0.003
C  C46  1  0.23193301  0.54483441  0.96887174  1  -0.084115  -0.000955  3.667797  -0.001  -0.112153  -0.000721  3.929983  -0.001  -0.115814  -0.000657  3.950513  0.0  -0.071306  -0.110042  -0.000765  3.917035  -0.001
C  C47  1  0.76806211  0.45518056  0.03113373  1  -0.083915  0.001005  3.667635  0.001  -0.112006  0.000725  3.929885  0.001  -0.115658  0.000657  3.950412  0.0  -0.071244  -0.109888  0.000765  3.916927  0.001
C  C48  1  0.17289895  0.39999506  0.85779352  1  -0.086585  -0.000845  3.679304  -0.001  -0.112713  -0.000626  3.936065  -0.001  -0.115199  -0.000547  3.956601  -0.001  -0.074979  -0.110412  -0.000749  3.922413  -0.001
C  C49  1  0.82709478  0.60002325  0.14221260  1  -0.086704  0.000803  3.679297  0.001  -0.112818  0.000624  3.936047  0.001  -0.115306  0.000545  3.956578  0.001  -0.074997  -0.110518  0.00075  3.922394  0.001
C  C50  1  0.22908121  0.34190226  0.75045528  1  0.028884  -0.003845  3.78973  -0.004  0.045419  -0.002156  4.021355  -0.002  0.04313  -0.001857  4.044634  -0.002  0.00211  0.046382  -0.002372  4.006006  -0.003
C  C51  1  0.77092022  0.65810615  0.24956223  1  0.029062  0.003891  3.790031  0.004  0.045725  0.002155  4.021512  0.002  0.04345  0.00186  4.044767  0.002  0.00218  0.046685  0.002372  4.006167  0.003
C  C52  1  0.17752975  0.19282168  0.63588681  1  -0.038663  0.007137  3.68072  0.006  -0.063109  0.00302  3.93003  0.003  -0.058768  0.003073  3.946371  0.003  -0.056941  -0.066298  0.002907  3.920239  0.003
C  C53  1  0.82246007  0.80718676  0.36412149  1  -0.038905  -0.007228  3.680829  -0.007  -0.063424  -0.003019  3.930127  -0.003  -0.059088  -0.003076  3.946472  -0.003  -0.056988  -0.066615  -0.002908  3.920345  -0.003
C  C54  1  0.23795616  0.14861297  0.53650547  1  -0.120459  -0.006823  3.715437  -0.007  -0.133496  -0.003606  3.967502  -0.004  -0.140765  -0.003322  3.98563  -0.004  -0.075776  -0.129438  -0.003845  3.956963  -0.004
C  C55  1  0.76203250  0.85139120  0.46351640  1  -0.120575  0.006903  3.715366  0.007  -0.133577  0.003602  3.967424  0.004  -0.140864  0.003323  3.985542  0.004  -0.075857  -0.129516  0.003844  3.956881  0.004
C  C56  1  0.35036281  0.25251986  0.55047330  1  0.171518  0.006896  3.64255  0.008  0.14328  0.001697  3.895017  0.003  0.156772  0.002395  3.907348  0.004  0.071336  0.134556  0.001272  3.886991  0.002
C  C57  1  0.64963208  0.74747754  0.44954125  1  0.171802  -0.00695  3.642123  -0.008  0.143639  -0.001697  3.894572  -0.003  0.157131  -0.002394  3.906916  -0.004  0.071527  0.134919  -0.001273  3.886551  -0.002
C  C58  1  0.34467612  0.43738085  0.75747824  1  0.115649  0.000897  3.78477  0.001  0.108829  -0.000806  4.028579  0.0  0.113717  -8.8e-05  4.051713  0.001  0.112621  0.10552  -0.001347  4.014182  -0.001
C  C59  1  0.65531722  0.56263188  0.24252202  1  0.115608  -0.000939  3.784801  -0.002  0.108714  0.000812  4.028684  0.0  0.113605  9.1e-05  4.05182  -0.001  0.112605  0.105405  0.001347  4.014297  0.001
C  C60  1  0.40514882  0.58883713  0.87221591  1  0.121248  0.000846  3.775559  0.001  0.116281  -0.000826  4.014374  0.0  0.120935  -0.000131  4.037951  0.001  0.114918  0.113649  -0.001283  3.999042  -0.001
C  C61  1  0.59484442  0.41117112  0.12777809  1  0.121142  -0.000812  3.775103  -0.001  0.116133  0.00083  4.014  0.0  0.120785  0.00013  4.037584  -0.001  0.114747  0.113503  0.001283  3.998681  0.001
C  C62  1  0.86277602  0.77077660  0.86829185  1  0.673162  0.003312  3.864047  0.007  0.641489  -0.001426  4.169002  0.001  0.677419  -0.000556  4.163605  0.001  0.196888  0.617023  -0.002395  4.172196  0.001
C  C63  1  0.13723091  0.22921827  0.13170457  1  0.673253  -0.0033  3.863666  -0.007  0.641532  0.001427  4.168633  -0.001  0.677457  0.000556  4.163247  -0.001  0.196919  0.617066  0.002394  4.171837  -0.001
C  C64  1  0.98755367  0.84127969  0.84917638  1  -0.253169  -0.012054  3.67974  -0.012  -0.292879  -0.006532  3.929076  -0.007  -0.299302  -0.004196  3.939495  -0.005  -0.169454  -0.28799  -0.008493  3.921016  -0.009
C  C65  1  0.01245245  0.15869973  0.15082050  1  -0.253191  0.012022  3.679549  0.012  -0.292791  0.006539  3.928668  0.007  -0.29919  0.004198  3.939052  0.005  -0.169445  -0.287898  0.0085  3.920605  0.009
C  C66  1  0.01256707  0.72548741  0.72365787  1  -0.088639  0.000281  3.689379  0.0  -0.12709  -4.9e-05  3.945755  0.0  -0.127384  -1.6e-05  3.960191  0.0  -0.169898  -0.126602  -0.000139  3.935512  0.0
C  C67  1  0.98741907  0.27449108  0.27633526  1  -0.088582  -0.000263  3.689459  0.0  -0.126959  4.9e-05  3.945698  0.0  -0.127257  1.4e-05  3.960129  0.0  -0.169829  -0.126462  0.000139  3.935449  0.0
C  C68  1  0.13850564  0.79392816  0.70425281  1  -0.106591  -0.000443  3.715362  0.0  -0.146184  -0.000223  3.977232  0.0  -0.147305  -0.000146  3.993903  0.0  -0.172639  -0.144714  -0.00029  3.964734  0.0
C  C69  1  0.86148492  0.20605796  0.29573480  1  -0.106554  0.000459  3.715417  0.001  -0.14614  0.000229  3.977309  0.0  -0.147255  0.000149  3.993965  0.0  -0.172518  -0.144671  0.000291  3.964821  0.0
C  C70  1  0.16070712  0.68886915  0.57223192  1  -0.082011  -0.00077  3.679765  -0.001  -0.121617  -0.000186  3.939787  0.0  -0.121615  -0.000128  3.953509  0.0  -0.169882  -0.121211  -0.000217  3.929435  0.0
C  C71  1  0.83929733  0.31111683  0.42775660  1  -0.081842  0.000753  3.679456  0.001  -0.121673  0.000188  3.939711  0.0  -0.121683  0.000127  3.953447  0.0  -0.169904  -0.121265  0.000217  3.92936  0.0
C  C72  1  0.28226275  0.76819768  0.55495446  1  -0.256568  0.011455  3.690381  0.012  -0.295696  0.006102  3.940714  0.006  -0.301577  0.0041  3.94993  0.004  -0.171181  -0.291097  0.008074  3.933371  0.008
C  C73  1  0.71774256  0.23180388  0.44504559  1  -0.256612  -0.011443  3.690424  -0.012  -0.295547  -0.006091  3.940603  -0.006  -0.301429  -0.004099  3.949824  -0.004  -0.171113  -0.29095  -0.008066  3.933272  -0.008
C  C74  1  0.30607437  0.66912241  0.42215354  1  0.673613  -0.003016  3.873174  -0.007  0.641717  0.000485  4.172657  -0.002  0.677174  -5.1e-05  4.167663  -0.002  0.19469  0.618007  0.001203  4.174651  -0.002
C  C75  1  0.69396357  0.33089217  0.57785789  1  0.673602  0.003012  3.87279  0.007  0.641639  -0.000483  4.172372  0.002  0.677103  4.8e-05  4.167368  0.002  0.194733  0.617927  -0.001201  4.174364  0.002
N  N76  1  0.51552082  0.67400016  0.87192541  1  -0.335306  -0.063353  3.348705  -0.077  -0.290839  -0.049724  3.647712  -0.064  -0.319078  -0.042582  3.665552  -0.058  -0.339092  -0.274322  -0.053778  3.637682  -0.067
N  N77  1  0.48446825  0.32600145  0.12806266  1  -0.335237  0.063322  3.348362  0.077  -0.290743  0.04972  3.647313  0.064  -0.319004  0.042585  3.665151  0.058  -0.338979  -0.274267  0.05378  3.637324  0.067
N  N78  1  0.40299187  0.39289450  0.65896168  1  -0.324624  -0.064204  3.308145  -0.077  -0.283859  -0.050804  3.608547  -0.066  -0.311899  -0.043372  3.625473  -0.059  -0.332727  -0.266879  -0.054466  3.599312  -0.068
N  N79  1  0.59700428  0.60709499  0.34103672  1  -0.324772  0.064244  3.307648  0.077  -0.283979  0.050792  3.608079  0.066  -0.312058  0.043369  3.625025  0.059  -0.332752  -0.267036  0.054456  3.598885  0.068
O  O80  1  0.71613077  0.73167591  0.75217940  1  -0.618757  -0.119176  2.014885  -0.151  -0.601493  -0.070694  2.30517  -0.099  -0.649446  -0.052982  2.299646  -0.078  -0.347649  -0.569926  -0.080783  2.309128  -0.108
O  O81  1  0.28386730  0.26834132  0.24783265  1  -0.61882  0.119154  2.014921  0.151  -0.601502  0.070684  2.305262  0.099  -0.649476  0.05298  2.299737  0.078  -0.347649  -0.569971  0.080773  2.309243  0.108
O  O82  1  0.90305668  0.75021638  0.98361055  1  -0.612851  -0.005341  1.893325  -0.007  -0.584909  -0.002259  2.116898  -0.004  -0.610023  -0.000867  2.108846  -0.002  -0.33154  -0.567551  -0.00359  2.122167  -0.005
O  O83  1  0.09692785  0.24977308  0.01637310  1  -0.612876  0.005339  1.893046  0.007  -0.584948  0.002261  2.116657  0.004  -0.610067  0.000868  2.108613  0.002  -0.331559  -0.567593  0.003592  2.121929  0.005
O  O84  1  0.26440215  0.69032255  0.30691663  1  -0.62071  0.000501  1.88441  0.002  -0.590437  -0.000159  2.102897  0.001  -0.613833  -0.000866  2.093818  0.0  -0.334193  -0.573402  0.000913  2.108487  0.002
O  O85  1  0.73559379  0.30968698  0.69309726  1  -0.620676  -0.000489  1.884115  -0.002  -0.590393  0.000151  2.102651  -0.001  -0.613779  0.000876  2.093559  0.0  -0.334179  -0.57336  -0.000909  2.108232  -0.002
O  O86  1  0.37490184  0.56584738  0.44528148  1  -0.616659  0.105216  2.076233  0.134  -0.595758  0.062205  2.382335  0.087  -0.64278  0.047815  2.373867  0.07  -0.337064  -0.564832  0.070383  2.388585  0.094
O  O87  1  0.62508628  0.43414661  0.55471720  1  -0.616712  -0.105212  2.076039  -0.134  -0.595852  -0.062195  2.382243  -0.087  -0.642879  -0.047809  2.373792  -0.07  -0.33712  -0.564874  -0.070377  2.388407  -0.094
