# generated using pymatgen
data_CdH12(C8N3)2
_symmetry_space_group_name_H-M   'P 1'
_cell_length_a   8.35849849
_cell_length_b   9.42723503
_cell_length_c   10.59457917
_cell_angle_alpha   77.16913514
_cell_angle_beta   84.42803078
_cell_angle_gamma   71.93590529
_symmetry_Int_Tables_number   1
_chemical_formula_structural   CdH12(C8N3)2
_chemical_formula_sum   'Cd2 H24 C32 N12'
_cell_volume   773.50093190
_cell_formula_units_Z   2
loop_
 _symmetry_equiv_pos_site_id
 _symmetry_equiv_pos_as_xyz
  1  'x, y, z'
loop_
 _atom_site_type_symbol
 _atom_site_label
 _atom_site_symmetry_multiplicity
 _atom_site_fract_x
 _atom_site_fract_y
 _atom_site_fract_z
 _atom_site_occupancy
 _atom_site_hle17_bader_spin_density
 _atom_site_hle17_ddec_charge
 _atom_site_hle17_ddec_spin_density
 _atom_site_hle17_ddec_sum_bond_order
 _atom_site_hle17_magmom
 _atom_site_hse06_10hf_bader_spin_density
 _atom_site_hse06_10hf_ddec_charge
 _atom_site_hse06_10hf_ddec_spin_density
 _atom_site_hse06_10hf_ddec_sum_bond_order
 _atom_site_hse06_10hf_magmom
 _atom_site_hse06_bader_spin_density
 _atom_site_hse06_ddec_charge
 _atom_site_hse06_ddec_spin_density
 _atom_site_hse06_ddec_sum_bond_order
 _atom_site_hse06_magmom
 _atom_site_pbe_bader_spin_density
 _atom_site_pbe_cm5_charge
 _atom_site_pbe_ddec_charge
 _atom_site_pbe_ddec_spin_density
 _atom_site_pbe_ddec_sum_bond_order
 _atom_site_pbe_magmom
Cd  Cd0  1  0.73926667  0.50351267  0.56689242  1  0  0.895304  0  1.954694  0  0  0.659235  0  2.428199  0  0  0.709156  0  2.391594  0  0  0.776691  0.624387  0  2.453084  0
Cd  Cd1  1  0.26073004  0.49648840  0.43310667  1  0  0.895337  0  1.954682  0  0  0.659235  0  2.42825  0  0  0.709155  0  2.391644  0  0  0.776689  0.624391  0  2.453142  0
H  H2  1  0.43956731  0.46270343  0.80793099  1  0  0.077224  0  0.934466  0  0  0.08493  0  0.997604  0  0  0.08763  0  0.995788  0  0  0.114585  0.082875  0  0.999044  0
H  H3  1  0.56043538  0.53727826  0.19207071  1  0  0.07712  0  0.934412  0  0  0.084817  0  0.997582  0  0  0.087518  0  0.995761  0  0  0.114524  0.082762  0  0.999028  0
H  H4  1  0.41319925  0.31123111  0.03227493  1  0  0.107905  0  0.945631  0  0  0.11958  0  0.999953  0  0  0.122565  0  1.00037  0  0  0.106532  0.11743  0  0.999919  0
H  H5  1  0.58680926  0.68875503  0.96772735  1  0  0.107911  0  0.945641  0  0  0.119586  0  0.99997  0  0  0.122569  0  1.00039  0  0  0.106566  0.117437  0  0.99993  0
H  H6  1  0.67885598  0.13321433  0.13933553  1  0  0.086188  0  0.980664  0  0  0.095693  0  1.047075  0  0  0.097823  0  1.046327  0  0  0.101217  0.093905  0  1.048131  0
H  H7  1  0.32115377  0.86678319  0.86066999  1  0  0.086193  0  0.980617  0  0  0.095701  0  1.047029  0  0  0.097849  0  1.046263  0  0  0.101193  0.093909  0  1.048082  0
H  H8  1  0.95477237  0.12197630  0.02187898  1  0  0.096629  0  0.975152  0  0  0.107643  0  1.03765  0  0  0.110655  0  1.03699  0  0  0.101521  0.105561  0  1.038107  0
H  H9  1  0.04523694  0.87803033  0.97812754  1  0  0.096696  0  0.975108  0  0  0.107687  0  1.037632  0  0  0.110699  0  1.036971  0  0  0.101543  0.105609  0  1.038075  0
H  H10  1  0.20992912  0.17146339  0.92447435  1  0  0.113728  0  0.979654  0  0  0.124328  0  1.041583  0  0  0.127027  0  1.041812  0  0  0.097428  0.122616  0  1.04111  0
H  H11  1  0.79007873  0.82854079  0.07551767  1  0  0.113768  0  0.979549  0  0  0.124368  0  1.041486  0  0  0.127068  0  1.041716  0  0  0.097444  0.122657  0  1.041011  0
H  H12  1  0.39574809  0.27584401  0.71456546  1  0  0.087439  0  0.972933  0  0  0.099197  0  1.034624  0  0  0.100891  0  1.033838  0  0  0.112112  0.098  0  1.035186  0
H  H13  1  0.60424918  0.72415574  0.28542159  1  0  0.08747  0  0.972816  0  0  0.099198  0  1.03454  0  0  0.100902  0  1.033743  0  0  0.112102  0.097989  0  1.035127  0
H  H14  1  0.98683842  0.64020278  0.70922257  1  0  0.07973  0  0.940493  0  0  0.08672  0  1.004466  0  0  0.089186  0  1.003089  0  0  0.114585  0.084754  0  1.005752  0
H  H15  1  0.01316056  0.35980275  0.29077356  1  0  0.079744  0  0.940458  0  0  0.086727  0  1.004453  0  0  0.089198  0  1.00306  0  0  0.114591  0.084759  0  1.005744  0
H  H16  1  0.97662766  0.86972716  0.79441504  1  0  0.094606  0  0.97609  0  0  0.106209  0  1.034338  0  0  0.109045  0  1.034073  0  0  0.10067  0.104176  0  1.034734  0
H  H17  1  0.02336813  0.13027285  0.20558811  1  0  0.094607  0  0.976055  0  0  0.106197  0  1.034326  0  0  0.109033  0  1.03406  0  0  0.100661  0.104164  0  1.034722  0
H  H18  1  0.69696601  0.07414566  0.79956388  1  0  0.083713  0  0.969418  0  0  0.093621  0  1.032479  0  0  0.095004  0  1.033258  0  0  0.098782  0.092821  0  1.031702  0
H  H19  1  0.30303069  0.92585542  0.20043615  1  0  0.083715  0  0.969422  0  0  0.093616  0  1.032481  0  0  0.095  0  1.033259  0  0  0.098799  0.092822  0  1.031698  0
H  H20  1  0.44685369  0.04102654  0.71199758  1  0  0.095139  0  0.994606  0  0  0.105338  0  1.059277  0  0  0.108329  0  1.058756  0  0  0.099532  0.103028  0  1.060124  0
H  H21  1  0.55314584  0.95897331  0.28799873  1  0  0.095072  0  0.994624  0  0  0.10532  0  1.059251  0  0  0.10831  0  1.058729  0  0  0.09953  0.103013  0  1.060092  0
H  H22  1  0.22171377  0.00920226  0.61393613  1  0  0.119488  0  0.966266  0  0  0.131424  0  1.024409  0  0  0.134292  0  1.024378  0  0  0.100627  0.129389  0  1.024438  0
H  H23  1  0.77827676  0.99079903  0.38607089  1  0  0.119476  0  0.966288  0  0  0.131442  0  1.024377  0  0  0.134313  0  1.024345  0  0  0.100626  0.129411  0  1.024403  0
H  H24  1  0.07444262  0.84826581  0.49797707  1  0  0.087667  0  0.960288  0  0  0.100253  0  1.021338  0  0  0.10219  0  1.020474  0  0  0.109614  0.098997  0  1.021678  0
H  H25  1  0.92555014  0.15173207  0.50203238  1  0  0.087688  0  0.960195  0  0  0.100255  0  1.02127  0  0  0.102189  0  1.020414  0  0  0.10964  0.099003  0  1.021605  0
C  C26  1  0.55039368  0.38492276  0.85940498  1  0  0.126944  0  3.747204  0  0  0.097127  0  4.006414  0  0  0.104524  0  4.022646  0  0  0.044559  0.092293  0  3.995294  0
C  C27  1  0.44960890  0.61506691  0.14059887  1  0  0.127137  0  3.747039  0  0  0.097334  0  4.006269  0  0  0.104734  0  4.022499  0  0  0.04465  0.092499  0  3.995152  0
C  C28  1  0.53601390  0.30034544  0.98362051  1  0  -0.137666  0  3.746784  0  0  -0.149723  0  3.996589  0  0  -0.156671  0  4.017345  0  0  -0.0942  -0.14545  0  3.983444  0
C  C29  1  0.46399230  0.69964418  0.01638404  1  0  -0.13768  0  3.746745  0  0  -0.149728  0  3.996539  0  0  -0.156677  0  4.017303  0  0  -0.094212  -0.145449  0  3.983382  0
C  C30  1  0.68350055  0.20261397  0.04290843  1  0  -0.012753  0  3.764567  0  0  -0.03048  0  4.011131  0  0  -0.025973  0  4.029091  0  0  -0.075457  -0.033625  0  3.999869  0
C  C31  1  0.31650488  0.79738588  0.95709596  1  0  -0.012835  0  3.764551  0  0  -0.030571  0  4.011119  0  0  -0.026078  0  4.029071  0  0  -0.075457  -0.033714  0  3.99985  0
C  C32  1  0.83748385  0.19594728  0.97790244  1  0  -0.168653  0  3.726066  0  0  -0.183884  0  3.967408  0  0  -0.191452  0  3.986742  0  0  -0.091232  -0.178928  0  3.954397  0
C  C33  1  0.16252048  0.80405603  0.02210416  1  0  -0.168694  0  3.726008  0  0  -0.183892  0  3.96735  0  0  -0.191462  0  3.986692  0  0  -0.091277  -0.178936  0  3.954338  0
C  C34  1  0.84225733  0.28695808  0.85393649  1  0  0.202808  0  3.800595  0  0  0.202849  0  4.035793  0  0  0.211971  0  4.053603  0  0  0.118802  0.196729  0  4.023574  0
C  C35  1  0.15774703  0.71304520  0.14606822  1  0  0.202701  0  3.800596  0  0  0.20271  0  4.035825  0  0  0.211833  0  4.053635  0  0  0.118775  0.196595  0  4.023604  0
C  C36  1  0.00045378  0.29261438  0.78494089  1  0  0.085292  0  3.860172  0  0  0.078687  0  4.110246  0  0  0.081642  0  4.133197  0  0  0.065184  0.076943  0  4.094365  0
C  C37  1  0.99954509  0.70739123  0.21506089  1  0  0.085456  0  3.86007  0  0  0.078906  0  4.110077  0  0  0.081861  0  4.133029  0  0  0.065313  0.077154  0  4.094208  0
C  C38  1  0.16638461  0.23659779  0.82965617  1  0  -0.258747  0  3.788928  0  0  -0.276978  0  4.044133  0  0  -0.285421  0  4.066104  0  0  -0.132895  -0.271017  0  4.028539  0
C  C39  1  0.83362176  0.76340311  0.17034323  1  0  -0.258899  0  3.789037  0  0  -0.277159  0  4.044275  0  0  -0.285604  0  4.066252  0  0  -0.133014  -0.271194  0  4.028677  0
C  C40  1  0.26176317  0.28939963  0.72472369  1  0  0.003934  0  3.82076  0  0  -0.031663  0  4.090077  0  0  -0.026544  0  4.108747  0  0  -0.013994  -0.034691  0  4.077056  0
C  C41  1  0.73823937  0.71060236  0.27526726  1  0  0.003795  0  3.820775  0  0  -0.031764  0  4.090114  0  0  -0.026655  0  4.108799  0  0  -0.014053  -0.034791  0  4.077085  0
C  C42  1  0.86942104  0.73193908  0.71245115  1  0  0.130298  0  3.736828  0  0  0.100763  0  3.990391  0  0  0.10843  0  4.006648  0  0  0.043741  0.096032  0  3.978965  0
C  C43  1  0.13057746  0.26806417  0.28754359  1  0  0.130327  0  3.736795  0  0  0.100789  0  3.990347  0  0  0.108459  0  4.006611  0  0  0.043764  0.096068  0  3.978911  0
C  C44  1  0.86241479  0.85920649  0.76149344  1  0  -0.148423  0  3.777249  0  0  -0.160195  0  4.027676  0  0  -0.166938  0  4.047767  0  0  -0.097033  -0.155871  0  4.013981  0
C  C45  1  0.13758589  0.14079339  0.23850656  1  0  -0.148438  0  3.777278  0  0  -0.160213  0  4.027696  0  0  -0.166957  0  4.047787  0  0  -0.097021  -0.155884  0  4.013995  0
C  C46  1  0.70796967  0.97217530  0.76276446  1  0  -0.007178  0  3.756091  0  0  -0.023064  0  4.002884  0  0  -0.018705  0  4.021173  0  0  -0.074171  -0.025852  0  3.990281  0
C  C47  1  0.29202722  0.02782915  0.23723298  1  0  -0.007112  0  3.756137  0  0  -0.022965  0  4.002914  0  0  -0.018608  0  4.021207  0  0  -0.074109  -0.025758  0  3.990309  0
C  C48  1  0.56852959  0.95438164  0.71400743  1  0  -0.150826  0  3.711058  0  0  -0.168349  0  3.95492  0  0  -0.175508  0  3.974671  0  0  -0.086955  -0.163906  0  3.942259  0
C  C49  1  0.43146647  0.04562167  0.28598841  1  0  -0.150812  0  3.711022  0  0  -0.168402  0  3.954885  0  0  -0.175559  0  3.974636  0  0  -0.087052  -0.163952  0  3.942208  0
C  C50  1  0.58567286  0.82439622  0.66392745  1  0  0.200846  0  3.7857  0  0  0.198955  0  4.024428  0  0  0.207522  0  4.04273  0  0  0.119557  0.19302  0  4.012035  0
C  C51  1  0.41433009  0.17560811  0.33606865  1  0  0.200896  0  3.785652  0  0  0.19905  0  4.024344  0  0  0.20762  0  4.042645  0  0  0.119634  0.193118  0  4.011952  0
C  C52  1  0.44448648  0.80187514  0.60847137  1  0  0.087533  0  3.849165  0  0  0.080937  0  4.100204  0  0  0.08432  0  4.122858  0  0  0.067372  0.079203  0  4.084453  0
C  C53  1  0.55551055  0.19812482  0.39152981  1  0  0.087501  0  3.849108  0  0  0.08083  0  4.100235  0  0  0.084209  0  4.122892  0  0  0.067316  0.079093  0  4.084493  0
C  C54  1  0.27757720  0.89736482  0.59045708  1  0  -0.247157  0  3.776132  0  0  -0.265944  0  4.034424  0  0  -0.274419  0  4.056506  0  0  -0.128486  -0.260119  0  4.01909  0
C  C55  1  0.72242329  0.10263169  0.40954551  1  0  -0.247071  0  3.776085  0  0  -0.265852  0  4.034353  0  0  -0.27433  0  4.056439  0  0  -0.128438  -0.260031  0  4.01902  0
C  C56  1  0.20205345  0.81757599  0.53093056  1  0  0.013274  0  3.805552  0  0  -0.024534  0  4.076163  0  0  -0.019499  0  4.096289  0  0  -0.011789  -0.027557  0  4.062183  0
C  C57  1  0.79793819  0.18242184  0.46907426  1  0  0.013227  0  3.805668  0  0  -0.024566  0  4.076291  0  0  -0.019533  0  4.096416  0  0  -0.011842  -0.027591  0  4.062301  0
N  N58  1  0.69814579  0.37753610  0.79551107  1  0  -0.350642  0  3.188688  0  0  -0.287496  0  3.451207  0  0  -0.303923  0  3.466774  0  0  -0.322014  -0.276162  0  3.440197  0
N  N59  1  0.30185384  0.62245929  0.20449181  1  0  -0.350576  0  3.188773  0  0  -0.287463  0  3.451369  0  0  -0.303889  0  3.466927  0  0  -0.322  -0.276137  0  3.440373  0
N  N60  1  0.00105742  0.37159247  0.66083561  1  0  -0.27605  0  3.176211  0  0  -0.214647  0  3.451068  0  0  -0.228469  0  3.470564  0  0  -0.256993  -0.205162  0  3.437504  0
N  N61  1  0.99893940  0.62841204  0.33916560  1  0  -0.276068  0  3.176065  0  0  -0.214676  0  3.450932  0  0  -0.228495  0  3.470412  0  0  -0.257017  -0.205192  0  3.43737  0
N  N62  1  0.16074873  0.36974747  0.62443727  1  0  -0.236796  0  3.222788  0  0  -0.173886  0  3.50902  0  0  -0.188498  0  3.529207  0  0  -0.260095  -0.163881  0  3.494955  0
N  N63  1  0.83924647  0.63025472  0.37555885  1  0  -0.236706  0  3.222754  0  0  -0.173806  0  3.508971  0  0  -0.188419  0  3.529168  0  0  -0.260042  -0.163794  0  3.494901  0
N  N64  1  0.73545515  0.71486841  0.66494584  1  0  -0.348635  0  3.216103  0  0  -0.281905  0  3.475567  0  0  -0.298927  0  3.492386  0  0  -0.326332  -0.270118  0  3.463284  0
N  N65  1  0.26454538  0.28513596  0.33505042  1  0  -0.348731  0  3.216153  0  0  -0.281987  0  3.475599  0  0  -0.299019  0  3.492424  0  0  -0.326365  -0.270209  0  3.463322  0
N  N66  1  0.46380256  0.67351823  0.56265965  1  0  -0.28536  0  3.164079  0  0  -0.222991  0  3.435923  0  0  -0.237275  0  3.456467  0  0  -0.259968  -0.213117  0  3.421466  0
N  N67  1  0.53619747  0.32648387  0.43733616  1  0  -0.285317  0  3.164057  0  0  -0.222912  0  3.435895  0  0  -0.237194  0  3.456443  0  0  -0.259956  -0.213037  0  3.421441  0
N  N68  1  0.31539642  0.68359583  0.51506556  1  0  -0.246814  0  3.234042  0  0  -0.177744  0  3.517819  0  0  -0.193973  0  3.539684  0  0  -0.261497  -0.166708  0  3.503152  0
N  N69  1  0.68460221  0.31640294  0.48493386  1  0  -0.246882  0  3.234153  0  0  -0.177818  0  3.517917  0  0  -0.194049  0  3.539778  0  0  -0.261504  -0.166777  0  3.503244  0
