# generated using pymatgen
data_NiH7C9N2O5
_symmetry_space_group_name_H-M   'P 1'
_cell_length_a   5.82916942
_cell_length_b   8.05115135
_cell_length_c   26.93026840
_cell_angle_alpha   90.00399612
_cell_angle_beta   89.99904778
_cell_angle_gamma   90.00115506
_symmetry_Int_Tables_number   1
_chemical_formula_structural   NiH7C9N2O5
_chemical_formula_sum   'Ni4 H28 C36 N8 O20'
_cell_volume   1263.87856822
_cell_formula_units_Z   4
loop_
 _symmetry_equiv_pos_site_id
 _symmetry_equiv_pos_as_xyz
  1  'x, y, z'
loop_
 _atom_site_type_symbol
 _atom_site_label
 _atom_site_symmetry_multiplicity
 _atom_site_fract_x
 _atom_site_fract_y
 _atom_site_fract_z
 _atom_site_occupancy
 _atom_site_pbe_bader_charge
 _atom_site_pbe_bader_spin_density
 _atom_site_pbe_cm5_charge
 _atom_site_pbe_ddec_charge
 _atom_site_pbe_ddec_spin_density
 _atom_site_pbe_ddec_sum_bond_order
 _atom_site_pbe_magmom
Ni  Ni0  1  0.02880447  0.24581707  0.28316599  1  1.273063  0.732043  0.744518  0.923477  0.859421  2.726616  0.721
Ni  Ni1  1  0.97116655  0.24582555  0.71683123  1  1.27333  0.732042  0.744619  0.923252  0.859414  2.726856  0.721
Ni  Ni2  1  0.52886737  0.75414258  0.21682634  1  1.272998  0.732098  0.74447  0.922855  0.859473  2.727351  0.721
Ni  Ni3  1  0.47111060  0.75416333  0.78317150  1  1.273179  0.732113  0.744554  0.922981  0.859494  2.72716  0.721
H  H4  1  0.68829827  0.35506571  0.39677067  1  0.128079  0.000117  0.117146  0.128834  9.2e-05  1.010646  0.0
H  H5  1  0.94195268  0.12977486  0.15676486  1  0.071179  -0.000824  0.107662  0.077668  -0.000769  0.943405  0.0
H  H6  1  0.14798277  0.37331896  0.13642079  1  0.027319  0.000757  0.097882  0.117224  0.000326  1.005165  0.0
H  H7  1  0.37543211  0.23972934  0.15390189  1  0.066743  0.000237  0.107446  0.135682  4.1e-05  0.966623  0.0
H  H8  1  0.45826238  0.36516036  0.31819085  1  0.211455  -0.000168  0.135208  0.121326  -0.000312  1.025072  0.0
H  H9  1  0.93494133  0.08653080  0.37949521  1  0.176473  -9.1e-05  0.123891  0.103277  -0.000137  1.028498  0.0
H  H10  1  0.13417858  0.07421113  0.46284174  1  0.091058  -5e-06  0.110357  0.119731  -2e-06  1.014705  0.0
H  H11  1  0.31169705  0.35503883  0.60323231  1  0.128573  0.000117  0.117117  0.128769  9.2e-05  1.010747  0.0
H  H12  1  0.05806897  0.12981026  0.84322521  1  0.071269  -0.000823  0.107636  0.077574  -0.000769  0.943531  0.0
H  H13  1  0.85208781  0.37337662  0.86356881  1  0.027619  0.000756  0.097912  0.117422  0.000325  1.005137  0.0
H  H14  1  0.62461562  0.23977092  0.84610475  1  0.067115  0.000238  0.107436  0.135685  4.2e-05  0.966661  0.0
H  H15  1  0.54169602  0.36514005  0.68181773  1  0.211311  -0.000168  0.135223  0.121228  -0.000313  1.025109  0.0
H  H16  1  0.06505794  0.08653129  0.62051210  1  0.176483  -9.1e-05  0.123903  0.103314  -0.000138  1.028411  0.0
H  H17  1  0.86587458  0.07424455  0.53715544  1  0.090939  -5e-06  0.11037  0.119719  -2e-06  1.014489  0.0
H  H18  1  0.18833839  0.64495515  0.10321422  1  0.127713  0.000117  0.117055  0.128689  9.2e-05  1.010974  0.0
H  H19  1  0.44188489  0.87021529  0.34322063  1  0.071263  -0.000824  0.107566  0.077679  -0.00077  0.943444  0.0
H  H20  1  0.64777616  0.62660308  0.36355594  1  0.027617  0.000757  0.097946  0.117322  0.000326  1.004815  0.0
H  H21  1  0.87528701  0.76015489  0.34610762  1  0.067332  0.000237  0.107472  0.135572  4.2e-05  0.966331  0.0
H  H22  1  0.95836545  0.63483455  0.18180749  1  0.211491  -0.000168  0.135206  0.121383  -0.000312  1.025185  0.0
H  H23  1  0.43505208  0.91354390  0.12053194  1  0.17654  -9.1e-05  0.123978  0.103228  -0.000138  1.028788  0.0
H  H24  1  0.63420767  0.92581294  0.03716965  1  0.098038  -6e-06  0.110405  0.119687  -2e-06  1.014718  0.0
H  H25  1  0.81164443  0.64499938  0.89678565  1  0.127921  0.000117  0.117126  0.12887  9.2e-05  1.010845  0.0
H  H26  1  0.55809563  0.87021022  0.65678139  1  0.071415  -0.000823  0.107653  0.077733  -0.000769  0.943457  0.0
H  H27  1  0.35223433  0.62656665  0.63644692  1  0.027707  0.000757  0.097979  0.117404  0.000325  1.004773  0.0
H  H28  1  0.12470002  0.76011825  0.65388192  1  0.070336  0.000236  0.107481  0.135599  4.2e-05  0.966391  0.0
H  H29  1  0.04161827  0.63485083  0.81819422  1  0.211485  -0.000168  0.135227  0.121368  -0.000312  1.025004  0.0
H  H30  1  0.56494568  0.91356734  0.87947623  1  0.176744  -9.1e-05  0.123952  0.103191  -0.000138  1.028723  0.0
H  H31  1  0.36582368  0.92581777  0.96284122  1  0.09758  -6e-06  0.110345  0.119614  -2e-06  1.014713  0.0
C  C32  1  0.52004377  0.29679813  0.39503584  1  -0.086422  -3.7e-05  -0.068202  -0.17621  -0.000196  3.907723  0.0
C  C33  1  0.04234357  0.17995798  0.18823502  1  0.51782  0.012632  -0.015831  0.083564  0.007622  3.987985  0.011
C  C34  1  0.22133076  0.30433250  0.16775075  1  -0.032413  0.006046  -0.162668  -0.356292  0.003407  3.887485  0.005
C  C35  1  0.16939075  0.03681026  0.21358116  1  1.597186  -0.000522  0.222965  0.567316  -0.00186  4.080154  -0.003
C  C36  1  0.30274285  0.42969967  0.20654635  1  1.58103  4.3e-05  0.236893  0.668553  -5.8e-05  4.048199  -0.001
C  C37  1  0.39493424  0.30221000  0.35113500  1  0.547671  -0.002351  0.06813  0.119543  -0.002808  3.860774  -0.002
C  C38  1  0.42573131  0.21715234  0.43628236  1  0.342049  -0.001393  0.09943  0.192432  -0.001674  4.054657  -0.001
C  C39  1  0.09995186  0.14600001  0.38612591  1  0.390006  -0.001434  0.051851  0.089546  -0.001611  3.916326  -0.001
C  C40  1  0.21114344  0.13933999  0.43159714  1  0.039291  0.000844  -0.081089  -0.201359  0.000425  3.949262  0.001
C  C41  1  0.47994683  0.29677774  0.60496635  1  -0.08734  -3.7e-05  -0.068111  -0.176042  -0.000196  3.907892  0.0
C  C42  1  0.95768215  0.17998297  0.81175702  1  0.517797  0.012637  -0.015788  0.083893  0.007625  3.987874  0.011
C  C43  1  0.77869819  0.30437536  0.83224728  1  -0.033019  0.006048  -0.162773  -0.356777  0.003408  3.887436  0.005
C  C44  1  0.83062507  0.03681015  0.78640972  1  1.597204  -0.000519  0.222805  0.566821  -0.001858  4.080545  -0.003
C  C45  1  0.69724309  0.42971395  0.79345028  1  1.581391  4.8e-05  0.237048  0.668859  -5.2e-05  4.048205  -0.001
C  C46  1  0.60503792  0.30218668  0.64886740  1  0.547899  -0.002351  0.0681  0.119546  -0.002809  3.860965  -0.002
C  C47  1  0.57428714  0.21714568  0.56371560  1  0.342553  -0.001394  0.099634  0.192629  -0.001676  4.054617  -0.001
C  C48  1  0.90003850  0.14599538  0.61387891  1  0.389626  -0.001434  0.051889  0.089542  -0.001611  3.916466  -0.001
C  C49  1  0.78888413  0.13935047  0.56840630  1  0.039481  0.000844  -0.081233  -0.201531  0.000425  3.949274  0.001
C  C50  1  0.02011786  0.70322747  0.10495806  1  -0.086299  -3.8e-05  -0.067825  -0.175757  -0.000197  3.907595  0.0
C  C51  1  0.54229781  0.82000894  0.31175458  1  0.517983  0.012658  -0.015969  0.083133  0.007638  3.987745  0.011
C  C52  1  0.72120208  0.69559601  0.33223643  1  -0.03317  0.006042  -0.16297  -0.356414  0.003404  3.887334  0.005
C  C53  1  0.66941377  0.96318725  0.28641096  1  1.597315  -0.000522  0.222956  0.567275  -0.001864  4.080218  -0.003
C  C54  1  0.80264338  0.57025384  0.29344304  1  1.580131  5.9e-05  0.237238  0.669144  -5.2e-05  4.047459  -0.001
C  C55  1  0.89504948  0.69779321  0.14886579  1  0.547526  -0.002354  0.067905  0.119152  -0.002813  3.860112  -0.002
C  C56  1  0.92575860  0.78286535  0.06371740  1  0.342272  -0.001395  0.0995  0.192612  -0.001677  4.054251  -0.001
C  C57  1  0.60003699  0.85406799  0.11388803  1  0.396037  -0.001434  0.051865  0.089497  -0.001613  3.916489  -0.001
C  C58  1  0.71119099  0.86070292  0.06841130  1  0.025877  0.000844  -0.081295  -0.201375  0.000425  3.948982  0.001
C  C59  1  0.97986798  0.70325077  0.89504336  1  -0.086526  -3.8e-05  -0.067996  -0.176252  -0.000197  3.907379  0.0
C  C60  1  0.45766491  0.82001478  0.68824621  1  0.517827  0.012645  -0.015828  0.083418  0.007631  3.987798  0.011
C  C61  1  0.27878657  0.69558628  0.66776059  1  -0.036444  0.006046  -0.163055  -0.356661  0.003406  3.887378  0.005
C  C62  1  0.33058116  0.96319426  0.71358913  1  1.597601  -0.000523  0.222923  0.567245  -0.001865  4.080203  -0.003
C  C63  1  0.19732480  0.57025250  0.70655501  1  1.580014  5.8e-05  0.237131  0.669143  -5.3e-05  4.047741  -0.001
C  C64  1  0.10495136  0.69782199  0.85113727  1  0.547819  -0.002353  0.067967  0.119254  -0.002812  3.860062  -0.002
C  C65  1  0.07425086  0.78288451  0.93628825  1  0.342475  -0.001394  0.099687  0.193011  -0.001676  4.054227  -0.001
C  C66  1  0.39996452  0.85409133  0.88611818  1  0.397594  -0.001433  0.051854  0.089538  -0.001612  3.916424  -0.001
C  C67  1  0.28883165  0.86071039  0.93159517  1  0.025178  0.000843  -0.081232  -0.201392  0.000425  3.949176  0.001
N  N68  1  0.18952966  0.22813495  0.34690061  1  -1.192382  -0.002144  -0.312199  -0.169844  -0.002023  3.560341  0.0
N  N69  1  0.55867755  0.21841400  0.48026053  1  -0.422126  -0.000921  -0.133672  -0.114084  -0.00096  3.234522  -0.001
N  N70  1  0.81042963  0.22812391  0.65310483  1  -1.192401  -0.002147  -0.312316  -0.169819  -0.002026  3.560663  0.0
N  N71  1  0.44135643  0.21840416  0.51973562  1  -0.472387  -0.000921  -0.133877  -0.114212  -0.000959  3.23463  -0.001
N  N72  1  0.68962709  0.77188466  0.15310321  1  -1.1918  -0.002151  -0.312211  -0.169589  -0.002029  3.559882  0.0
N  N73  1  0.05867861  0.78162847  0.01973746  1  -0.42152  -0.000924  -0.133857  -0.114228  -0.000963  3.234921  -0.001
N  N74  1  0.31035403  0.77189940  0.84689866  1  -1.192826  -0.002154  -0.312234  -0.169504  -0.002031  3.560096  0.0
N  N75  1  0.94132389  0.78163977  0.98026405  1  -0.473264  -0.000925  -0.133824  -0.114342  -0.000963  3.235078  -0.001
O  O76  1  0.25950751  0.92126170  0.18892881  1  -1.12638  0.088845  -0.272507  -0.504597  0.051095  2.308337  0.081
O  O77  1  0.29105838  0.40059647  0.25227876  1  -1.108319  0.098577  -0.268593  -0.497966  0.055897  2.307523  0.088
O  O78  1  0.38318980  0.56315057  0.18682840  1  -1.088127  0.030984  -0.29513  -0.521087  0.018026  2.347475  0.028
O  O79  1  0.18336186  0.05202729  0.26113644  1  -1.056221  0.040229  -0.274183  -0.460442  0.023076  2.362858  0.037
O  O80  1  0.89136884  0.25467750  0.22180106  1  -0.922934  -0.00152  -0.33931  -0.446219  -0.007052  2.176064  0.0
O  O81  1  0.74051146  0.92127963  0.81106370  1  -1.125973  0.08883  -0.272475  -0.504437  0.051086  2.308483  0.081
O  O82  1  0.70889775  0.40055964  0.74772044  1  -1.108682  0.098554  -0.268599  -0.497964  0.055882  2.307926  0.088
O  O83  1  0.61682241  0.56317767  0.81317086  1  -1.088077  0.030993  -0.295185  -0.521222  0.018029  2.347247  0.028
O  O84  1  0.81666205  0.05200741  0.73885467  1  -1.056577  0.040257  -0.274107  -0.460169  0.023093  2.362932  0.037
O  O85  1  0.10863892  0.25470792  0.77819056  1  -0.923219  -0.001513  -0.33926  -0.446065  -0.007045  2.176237  0.0
O  O86  1  0.75951822  0.07869611  0.31106916  1  -1.126  0.088882  -0.272572  -0.504573  0.051114  2.308653  0.081
O  O87  1  0.79108269  0.59941432  0.24771260  1  -1.107887  0.098541  -0.26868  -0.498005  0.055882  2.307675  0.088
O  O88  1  0.88303409  0.43677081  0.31316544  1  -1.087666  0.030966  -0.29512  -0.5214  0.018015  2.346654  0.028
O  O89  1  0.68336087  0.94798867  0.23886039  1  -1.056621  0.040288  -0.274141  -0.46025  0.02311  2.362967  0.037
O  O90  1  0.39132224  0.74528724  0.27818193  1  -0.923209  -0.001528  -0.338936  -0.44571  -0.00706  2.175762  0.0
O  O91  1  0.24049414  0.07870487  0.68893340  1  -1.126185  0.088866  -0.272504  -0.50454  0.051106  2.308585  0.081
O  O92  1  0.20891874  0.59941659  0.75228363  1  -1.107911  0.098538  -0.268589  -0.497946  0.05588  2.308024  0.088
O  O93  1  0.11691640  0.43677868  0.68683295  1  -1.08762  0.030966  -0.295169  -0.521434  0.018015  2.346995  0.028
O  O94  1  0.31663969  0.94800589  0.76114431  1  -1.056897  0.0403  -0.274204  -0.460358  0.023117  2.363015  0.037
O  O95  1  0.60864300  0.74529449  0.72181519  1  -0.923189  -0.00154  -0.33919  -0.445958  -0.007068  2.175771  0.0
