# generated using pymatgen
data_Al6H26C73O35
_symmetry_space_group_name_H-M   'P 1'
_cell_length_a   12.02728301
_cell_length_b   12.52093862
_cell_length_c   26.91196417
_cell_angle_alpha   82.61804623
_cell_angle_beta   81.96421616
_cell_angle_gamma   68.27582156
_symmetry_Int_Tables_number   1
_chemical_formula_structural   Al6H26C73O35
_chemical_formula_sum   'Al6 H26 C73 O35'
_cell_volume   3714.94542156
_cell_formula_units_Z   1
loop_
 _symmetry_equiv_pos_site_id
 _symmetry_equiv_pos_as_xyz
  1  'x, y, z'
loop_
 _atom_site_type_symbol
 _atom_site_label
 _atom_site_symmetry_multiplicity
 _atom_site_fract_x
 _atom_site_fract_y
 _atom_site_fract_z
 _atom_site_occupancy
 _atom_site_pbe_bader_charge
 _atom_site_pbe_bader_spin_density
 _atom_site_pbe_cm5_charge
 _atom_site_pbe_ddec_charge
 _atom_site_pbe_ddec_spin_density
 _atom_site_pbe_ddec_sum_bond_order
 _atom_site_pbe_magmom
Al  Al0  1  0.59640590  0.61133926  0.48669257  1  2.492829  0  0.404506  1.682903  0  2.55013  0
Al  Al1  1  0.56557125  0.36503018  0.50378467  1  2.480042  0  0.50797  1.660846  0  2.515688  0
Al  Al2  1  0.34161996  0.57785137  0.50197786  1  2.482198  0  0.511246  1.662171  0  2.506517  0
Al  Al3  1  0.06055595  0.07297224  0.02066931  1  2.497711  0  0.406413  1.681642  0  2.549177  0
Al  Al4  1  0.31824044  0.10132261  0.00401025  1  2.483957  0  0.513217  1.662553  0  2.506567  0
Al  Al5  1  0.09684780  0.31691167  0.00518880  1  2.479295  0  0.509063  1.659464  0  2.514845  0
H  H6  1  0.91844962  0.15754492  0.71377534  1  0.053648  0  0.109258  0.112676  0  1.004369  0
H  H7  1  0.75133262  0.52109321  0.79340570  1  0.09985  0  0.113567  0.111682  0  0.985329  0
H  H8  1  0.92200195  0.47602798  0.70724912  1  0.108451  0  0.115124  0.113916  0  0.966865  0
H  H9  1  0.01250532  0.83032910  0.75657997  1  0.056138  0  0.100701  0.100047  0  0.99809  0
H  H10  1  0.00294657  0.96786782  0.72545134  1  0.034063  0  0.092643  0.082212  0  1.017288  0
H  H11  1  0.91033228  0.95995210  0.78344849  1  0.085297  0  0.11307  0.125451  0  0.980911  0
H  H12  1  0.71796406  0.10512447  0.75014924  1  0.020832  0  0.096567  0.092449  0  0.994219  0
H  H13  1  0.58751993  0.22274653  0.77146976  1  0.044366  0  0.093351  0.087849  0  1.041192  0
H  H14  1  0.63699013  0.09111087  0.81060864  1  0.1099  0  0.119149  0.141232  0  0.962579  0
H  H15  1  0.13321349  0.24968144  0.71392852  1  0.053898  0  0.095201  0.017607  0  0.98844  0
H  H16  1  0.17503168  0.57144693  0.78625818  1  0.078012  0  0.103818  0.110526  0  0.996149  0
H  H17  1  0.17117541  0.50200659  0.22518989  1  0.089411  0  0.110369  0.102172  0  0.978758  0
H  H18  1  0.14304514  0.70341388  0.81481769  1  0.061549  0  0.106085  0.111077  0  0.993581  0
H  H19  1  0.28862538  0.59248001  0.81630443  1  0.079947  0  0.10021  0.107181  0  1.008355  0
H  H20  1  0.56851870  0.64062493  0.78095476  1  0.028494  0  0.091139  0.011673  0  1.005602  0
H  H21  1  0.34892662  0.13588823  0.72053815  1  0.044315  0  0.09271  0.01771  0  1.019858  0
H  H22  1  0.52873665  0.43833012  0.78933368  1  0.067871  0  0.103305  0.041848  0  0.972766  0
H  H23  1  0.14125828  0.33697460  0.30338573  1  0.089662  0  0.107693  0.098292  0  0.983436  0
H  H24  1  0.37229451  0.50317992  0.26862571  1  0.085159  0  0.107154  0.096782  0  0.985804  0
H  H25  1  0.52554803  0.32330022  0.20917879  1  0.09342  0  0.109271  0.099761  0  0.982082  0
H  H26  1  0.49566947  0.15828591  0.28731627  1  0.093913  0  0.110235  0.101459  0  0.979637  0
H  H27  1  0.29462684  0.15702223  0.24394745  1  0.079095  0  0.107091  0.096233  0  0.98561  0
H  H28  1  0.18378305  0.03049529  0.69648769  1  0.040063  0  0.103755  0.10795  0  0.998367  0
H  H29  1  0.52250473  0.82293506  0.70927368  1  0.068594  0  0.115295  0.116489  0  0.960586  0
H  H30  1  0.70527246  0.72000829  0.44189450  1  0.590858  0  0.297309  0.38895  0  0.91366  0
H  H31  1  0.95789548  0.95878397  0.06570492  1  0.587223  0  0.297813  0.389064  0  0.913842  0
C  C32  1  0.70893629  0.41416581  0.56233140  1  1.646487  0  0.281857  0.71039  0  4.162118  0
C  C33  1  0.30606685  0.89484071  0.79650413  1  0.083549  0  0.025072  0.058272  0  3.759312  0
C  C34  1  0.43009557  0.84184094  0.72651123  1  0.000621  0  -0.055174  -0.094239  0  3.600598  0
C  C35  1  0.37377444  0.40050296  0.58289565  1  1.671163  0  0.284701  0.704103  0  4.174815  0
C  C36  1  0.32448423  0.83878677  0.69882252  1  0.11446  0  0.008342  0.081256  0  3.822546  0
C  C37  1  0.39317813  0.77692233  0.77502629  1  -0.019116  0  -0.00856  -0.05935  0  3.665349  0
C  C38  1  0.28190838  0.77316676  0.74767444  1  0.631954  0  0.106684  0.14478  0  3.696716  0
C  C39  1  0.29681851  0.91917292  0.84704087  1  -0.294041  0  -0.010215  0.009566  0  4.031922  0
C  C40  1  0.33591331  0.80769375  0.64911789  1  -0.513999  0  -0.016684  -0.004398  0  4.042151  0
C  C41  1  0.88256954  0.41544344  0.72798346  1  -0.042397  0  -0.057112  -0.089963  0  3.594651  0
C  C42  1  0.78860801  0.44040283  0.77518235  1  -0.014144  0  -0.052889  -0.07242  0  3.605535  0
C  C43  1  0.33322691  0.35342538  0.73216204  1  -0.123272  0  0.007067  0.000588  0  4.174329  0
C  C44  1  0.90618519  0.29612599  0.89777413  1  0.126714  0  -0.025078  -0.175309  0  3.934216  0
C  C45  1  0.75912228  0.38789062  0.60975501  1  0.132631  0  -0.034993  -0.186848  0  3.95495  0
C  C46  1  0.95533558  0.29596558  0.75541176  1  -0.054252  0  0.004502  0.022559  0  3.659452  0
C  C47  1  0.38326805  0.72341594  0.56004039  1  1.632061  0  0.281816  0.710958  0  4.158772  0
C  C48  1  0.86013489  0.32138677  0.80346522  1  0.13848  0  0.015036  0.052513  0  3.807922  0
C  C49  1  0.87966182  0.23866507  0.73166795  1  -0.016144  0  -0.062173  -0.160809  0  3.573965  0
C  C50  1  0.80802542  0.35811797  0.70400783  1  0.136089  0  0.013379  0.121939  0  3.815914  0
C  C51  1  0.78608840  0.26361643  0.77984219  1  0.647959  0  0.108237  0.207226  0  3.738251  0
C  C52  1  0.71136172  0.38553158  0.75140581  1  -0.033357  0  -0.004614  -0.063404  0  3.63785  0
C  C53  1  0.88591336  0.30594186  0.85405570  1  -0.36256  0  -0.014215  -0.002845  0  4.050693  0
C  C54  1  0.33867264  0.36553219  0.68185851  1  -0.183972  0  0.001122  0.038005  0  4.248511  0
C  C55  1  0.78102102  0.37496784  0.65341695  1  -0.360138  0  -0.020568  -0.024895  0  4.05871  0
C  C56  1  0.22635619  0.33402472  0.28191362  1  -0.02715  0  -0.061282  -0.069648  0  3.616489  0
C  C57  1  0.24311372  0.42577903  0.23938439  1  -0.02476  0  -0.065414  -0.077727  0  3.626466  0
C  C58  1  0.31277138  0.30830721  0.11092705  1  0.24702  0  -0.044785  -0.220626  0  3.972532  0
C  C59  1  0.71204632  0.40929022  0.42114877  1  1.701149  0  0.276018  0.692591  0  4.187005  0
C  C60  1  0.35036648  0.35701252  0.40143718  1  0.247877  0  -0.047486  -0.227287  0  3.972198  0
C  C61  1  0.31187345  0.23392895  0.25004966  1  -0.015783  0  -0.059863  -0.062836  0  3.607458  0
C  C62  1  0.32818552  0.32612115  0.20585305  1  0.086719  0  0.010436  0.110015  0  3.792938  0
C  C63  1  0.42365872  0.23451049  0.27316790  1  -0.031916  0  -0.064734  -0.077179  0  3.626611  0
C  C64  1  0.33852950  0.33417226  0.30672177  1  0.135716  0  0.009962  0.107391  0  3.795108  0
C  C65  1  0.34596485  0.37583570  0.63568804  1  0.158417  0  0.002369  -0.137384  0  3.810653  0
C  C66  1  0.44039605  0.32627140  0.23061830  1  -0.031704  0  -0.062074  -0.069151  0  3.613786  0
C  C67  1  0.35494323  0.42634621  0.26248227  1  -0.017312  0  -0.059552  -0.063606  0  3.607397  0
C  C68  1  0.32186053  0.31775743  0.15460412  1  -0.492334  0  -0.003785  0.003313  0  4.045208  0
C  C69  1  0.34371134  0.34418432  0.35787119  1  -0.517377  0  -0.000859  0.010695  0  4.040851  0
C  C70  1  0.30120360  0.90541143  0.13447070  1  0.194686  0  0.007837  -0.121321  0  3.806168  0
C  C71  1  0.37588622  0.38720211  0.44673231  1  1.621742  0  0.284179  0.72792  0  4.149263  0
C  C72  1  0.31564266  0.87447286  0.17902757  1  -0.305173  0  -0.006805  0.024631  0  4.249362  0
C  C73  1  0.33027358  0.84301849  0.22797500  1  0.109308  0  0.000349  -0.004333  0  4.191675  0
C  C74  1  0.34204233  0.81668776  0.27328397  1  -0.16273  0  -0.001837  -0.008549  0  4.19309  0
C  C75  1  0.35543367  0.78693144  0.32241560  1  -0.311276  0  -0.007425  0.025297  0  4.253201  0
C  C76  1  0.24142666  0.95843064  0.71963300  1  -0.015427  0  -0.078717  -0.179626  0  3.64014  0
C  C77  1  0.36788508  0.75870190  0.36728887  1  0.260879  0  0.002903  -0.128542  0  3.814548  0
C  C78  1  0.89823117  0.30218060  0.13787628  1  0.13284  0  0.006934  -0.121248  0  3.814359  0
C  C79  1  0.87010533  0.31891093  0.18258829  1  -0.187336  0  -0.007946  0.021326  0  4.259828  0
C  C80  1  0.84232353  0.33581575  0.23163429  1  -0.008253  0  -4.4e-05  -0.002104  0  4.200515  0
C  C81  1  0.81941968  0.34968316  0.27701431  1  -0.044061  0  -0.002066  -0.009145  0  4.201718  0
C  C82  1  0.79174448  0.36570892  0.32613022  1  -0.434815  0  -0.007452  0.026863  0  4.262961  0
C  C83  1  0.39287837  0.71180911  0.41798752  1  1.683415  0  0.277502  0.692742  0  4.182705  0
C  C84  1  0.76439411  0.38102773  0.37099743  1  0.309144  0  0.002331  -0.131169  0  3.826128  0
C  C85  1  0.26220919  0.97367767  0.94131118  1  1.648049  0  0.285283  0.712124  0  4.151784  0
C  C86  1  0.29155651  0.28578815  0.92737370  1  1.679245  0  0.288911  0.701112  0  4.174223  0
C  C87  1  0.19970624  0.89386250  0.76861090  1  0.608528  0  0.089382  0.142526  0  3.773416  0
C  C88  1  0.95173956  0.27345191  0.94608390  1  1.67602  0  0.284515  0.711092  0  4.159144  0
C  C89  1  0.27243863  0.95846204  0.08483533  1  1.706488  0  0.279142  0.693226  0  4.182237  0
C  C90  1  0.28563503  0.28377283  0.06467464  1  1.659836  0  0.284062  0.726464  0  4.151453  0
C  C91  1  0.95064195  0.27171761  0.08787731  1  1.697572  0  0.277596  0.690057  0  4.187462  0
C  C92  1  0.31927808  0.31393595  0.87484542  1  -0.076729  0  0.016454  -0.111223  0  3.775928  0
C  C93  1  0.32643629  0.32645137  0.82869558  1  0.037971  0  0.005872  0.035224  0  4.234385  0
C  C94  1  0.33143658  0.34029004  0.77842897  1  0.077422  0  0.011546  0.003282  0  4.186209  0
C  C95  1  0.99824180  0.91995923  0.76258419  1  0.372608  0  -0.134895  -0.171917  0  3.908033  0
C  C96  1  0.66688886  0.15000662  0.78341580  1  0.398827  0  -0.137231  -0.178133  0  3.905237  0
C  C97  1  0.08737880  0.24210146  0.75285131  1  0.973763  0  0.106303  0.268653  0  3.977131  0
C  C98  1  0.28568299  0.93720300  0.89118960  1  0.152384  0  -0.018927  -0.163472  0  3.899526  0
C  C99  1  0.21195199  0.63471611  0.79393820  1  0.344111  0  -0.137975  -0.178683  0  3.866789  0
C  C100  1  0.47944734  0.68045130  0.80326083  1  0.955689  0  0.099101  0.287024  0  3.990743  0
C  C101  1  0.38998632  0.05796590  0.74645292  1  0.994173  0  0.103752  0.285026  0  3.969436  0
C  C102  1  0.57959563  0.43667229  0.75113158  1  0.918651  0  0.093357  0.260102  0  4.007625  0
C  C103  1  0.35104583  0.77693435  0.60676173  1  0.298546  0  -0.034234  -0.191162  0  3.943731  0
C  C104  1  0.34674404  0.96145975  0.74659019  1  -0.0324  0  0.003227  0.020686  0  3.661449  0
O  O105  1  0.48899785  0.70415175  0.53948950  1  -1.212679  0  -0.199014  -0.536638  0  2.283408  0
O  O106  1  0.19487571  0.35497903  0.94872021  1  -1.235511  0  -0.217285  -0.570199  0  2.249818  0
O  O107  1  0.98469421  0.35222338  0.95925269  1  -1.248385  0  -0.241464  -0.607439  0  2.234432  0
O  O108  1  0.69030920  0.51373792  0.54055418  1  -1.212394  0  -0.1987  -0.533878  0  2.277408  0
O  O109  1  0.97148276  0.16982774  0.07817368  1  -1.197168  0  -0.203234  -0.54564  0  2.286883  0
O  O110  1  0.16866010  0.97563488  0.07345411  1  -1.20128  0  -0.203577  -0.55043  0  2.286101  0
O  O111  1  0.35489539  0.98772964  0.05725500  1  -1.247256  0  -0.232925  -0.588167  0  2.228609  0
O  O112  1  0.35668667  0.19129682  0.04530449  1  -1.247966  0  -0.22721  -0.592157  0  2.251061  0
O  O113  1  0.18814295  0.35319434  0.04719117  1  -1.252821  0  -0.229343  -0.593836  0  2.248419  0
O  O114  1  0.97579638  0.35101991  0.05832469  1  -1.254302  0  -0.234826  -0.591608  0  2.235917  0
O  O115  1  0.15963797  0.16471779  0.01015263  1  -1.615178  0  -0.38957  -1.274807  0  2.292703  0
O  O116  1  0.47333657  0.32105476  0.46525352  1  -1.251124  0  -0.229743  -0.595472  0  2.249124  0
O  O117  1  0.68279189  0.33330556  0.54697307  1  -1.25438  0  -0.243446  -0.609086  0  2.235894  0
O  O118  1  0.47155403  0.33069101  0.56250176  1  -1.234446  0  -0.21995  -0.574024  0  2.251113  0
O  O119  1  0.30237585  0.49263516  0.56171581  1  -1.238383  0  -0.219123  -0.572129  0  2.249736  0
O  O120  1  0.30198246  0.69588068  0.54376413  1  -1.250348  0  -0.242013  -0.608001  0  2.228372  0
O  O121  1  0.49415855  0.69970744  0.43077757  1  -1.20874  0  -0.207239  -0.553626  0  2.283044  0
O  O122  1  0.69555358  0.50886733  0.43278034  1  -1.202466  0  -0.205547  -0.553382  0  2.290547  0
O  O123  1  0.68213249  0.33047754  0.44900063  1  -1.244429  0  -0.235033  -0.591588  0  2.237045  0
O  O124  1  0.08554811  0.92466599  0.79274801  1  -1.062745  0  -0.197586  -0.165994  0  2.527539  0
O  O125  1  0.74052277  0.18939062  0.80879153  1  -1.069392  0  -0.191766  -0.170499  0  2.542849  0
O  O126  1  0.14560844  0.19032427  0.78797236  1  -1.064539  0  -0.229591  -0.319549  0  2.169869  0
O  O127  1  0.30340974  0.48147347  0.46442130  1  -1.247619  0  -0.228791  -0.595501  0  2.247182  0
O  O128  1  0.25055111  0.68060027  0.74518810  1  -1.06917  0  -0.197727  -0.173625  0  2.550792  0
O  O129  1  0.46031203  0.64329205  0.84662322  1  -1.076885  0  -0.257435  -0.350933  0  2.104157  0
O  O130  1  0.46901480  0.05246541  0.77186143  1  -1.075665  0  -0.251028  -0.351154  0  2.147742  0
O  O131  1  0.52722492  0.47525201  0.71317458  1  -1.067013  0  -0.251937  -0.341234  0  2.140798  0
O  O132  1  0.30986547  0.68280078  0.44529383  1  -1.246135  0  -0.235698  -0.591949  0  2.234422  0
O  O133  1  0.50027911  0.51703413  0.49710875  1  -1.610864  0  -0.389705  -1.272589  0  2.290283  0
O  O134  1  0.96068940  0.17839024  0.97068257  1  -1.220599  0  -0.197308  -0.533115  0  2.278535  0
O  O135  1  0.15948534  0.98757524  0.96426431  1  -1.218204  0  -0.199428  -0.53814  0  2.275686  0
O  O136  1  0.34792861  0.99307393  0.95822756  1  -1.252188  0  -0.242852  -0.610962  0  2.230502  0
O  O137  1  0.36168699  0.19094841  0.94713349  1  -1.236866  0  -0.214119  -0.564303  0  2.247027  0
O  O138  1  0.68357985  0.69824302  0.47659690  1  -1.366739  0  -0.571339  -0.987908  0  1.789644  0
O  O139  1  0.96996224  0.98948003  0.03140796  1  -1.363215  0  -0.568217  -0.983291  0  1.785708  0
