# generated using pymatgen
data_DyH8(C3O5)2
_symmetry_space_group_name_H-M   'P 1'
_cell_length_a   5.99837728
_cell_length_b   7.36755857
_cell_length_c   13.10918239
_cell_angle_alpha   104.97097969
_cell_angle_beta   102.09030417
_cell_angle_gamma   90.08999137
_symmetry_Int_Tables_number   1
_chemical_formula_structural   DyH8(C3O5)2
_chemical_formula_sum   'Dy2 H16 C12 O20'
_cell_volume   546.30886796
_cell_formula_units_Z   2
loop_
 _symmetry_equiv_pos_site_id
 _symmetry_equiv_pos_as_xyz
  1  'x, y, z'
loop_
 _atom_site_type_symbol
 _atom_site_label
 _atom_site_symmetry_multiplicity
 _atom_site_fract_x
 _atom_site_fract_y
 _atom_site_fract_z
 _atom_site_occupancy
 _atom_site_pbe_bader_charge
 _atom_site_pbe_bader_spin_density
 _atom_site_pbe_cm5_charge
 _atom_site_pbe_ddec_charge
 _atom_site_pbe_ddec_spin_density
 _atom_site_pbe_ddec_sum_bond_order
 _atom_site_pbe_magmom
Dy  Dy0  1  0.01381927  0.82250601  0.68048360  1  2.166479  0  1.50091  2.005684  0  2.152383  0
Dy  Dy1  1  0.98817897  0.15733536  0.31404295  1  2.168385  0  1.500508  2.005475  0  2.160872  0
H  H2  1  0.37115190  0.96247298  0.05996552  1  0.051515  0  0.108266  0.05411  0  0.999319  0
H  H3  1  0.62808772  0.90050782  0.93934571  1  0.044261  0  0.109746  0.059184  0  0.989131  0
H  H4  1  0.50219611  0.31933970  0.56614491  1  0.100929  0  0.131722  0.11371  0  0.938739  0
H  H5  1  0.46959985  0.30225618  0.73799204  1  0.121416  0  0.132551  0.108349  0  0.943507  0
H  H6  1  0.50362765  0.75789048  0.43053141  1  0.119913  0  0.13236  0.11407  0  0.939341  0
H  H7  1  0.53331398  0.59139453  0.25743686  1  0.116002  0  0.132973  0.107532  0  0.938907  0
H  H8  1  0.18561275  0.24611290  0.07740665  1  0.637778  0  0.296676  0.34954  0  0.976028  0
H  H9  1  0.79827490  0.15575184  0.90530512  1  0.631523  0  0.297509  0.350116  0  0.97431  0
H  H10  1  0.19471155  0.99305047  0.48574548  1  0.648355  0  0.304825  0.344546  0  1.005491  0
H  H11  1  0.15266451  0.20702304  0.76991908  1  0.667401  0  0.33524  0.387954  0  0.881767  0
H  H12  1  0.81280585  0.50252070  0.50717656  1  0.642143  0  0.304801  0.343856  0  1.00999  0
H  H13  1  0.84330201  0.45493916  0.22111414  1  0.624939  0  0.334108  0.386018  0  0.883355  0
H  H14  1  0.76947610  0.65355910  0.81674678  1  0.635531  0  0.339255  0.42887  0  0.850162  0
H  H15  1  0.59363478  0.71534845  0.72302818  1  0.666259  0  0.307196  0.409046  0  0.924158  0
H  H16  1  0.23322691  0.86519562  0.17930316  1  0.624553  0  0.335559  0.423897  0  0.859788  0
H  H17  1  0.40965899  0.01390152  0.27276463  1  0.660153  0  0.306872  0.408738  0  0.924971  0
C  C18  1  0.20325020  0.96663998  0.90175725  1  1.556323  0  0.187877  0.544681  0  4.201895  0
C  C19  1  0.37434241  0.05789663  0.00739282  1  0.513141  0  -0.000605  0.063634  0  3.907116  0
C  C20  1  0.61723943  0.04826750  0.98463262  1  0.535304  0  -0.000597  0.065671  0  3.899728  0
C  C21  1  0.78913772  0.07527024  0.09242413  1  1.537744  0  0.187528  0.544935  0  4.198091  0
C  C22  1  0.15339605  0.38628565  0.56678978  1  1.632634  0  0.243149  0.637606  0  4.09424  0
C  C23  1  0.34218791  0.24658542  0.56649434  1  0.467079  0  0.007674  0.046493  0  3.841844  0
C  C24  1  0.37309544  0.18661557  0.67269035  1  0.429082  0  0.009526  0.037001  0  3.839321  0
C  C25  1  0.50818684  0.00987563  0.67099772  1  1.60994  0  0.232943  0.618079  0  4.144106  0
C  C26  1  0.85245086  0.82480441  0.42984190  1  1.607487  0  0.241663  0.636036  0  4.104669  0
C  C27  1  0.66285097  0.68450991  0.42875522  1  0.467104  0  0.007462  0.044607  0  3.843714  0
C  C28  1  0.62942802  0.53088764  0.32061671  1  0.454511  0  0.009694  0.040542  0  3.835103  0
C  C29  1  0.49293012  0.35506834  0.32079454  1  1.591121  0  0.233644  0.621194  0  4.137204  0
O  O30  1  0.22303173  0.79542895  0.85553594  1  -1.180967  0  -0.38115  -0.610319  0  2.188375  0
O  O31  1  0.04831509  0.06212150  0.85928688  1  -1.209542  0  -0.363136  -0.645605  0  2.289454  0
O  O32  1  0.33627961  0.24475986  0.05816935  1  -1.150138  0  -0.407266  -0.480407  0  2.236593  0
O  O33  1  0.64785791  0.17597851  0.92449091  1  -1.147848  0  -0.406413  -0.48227  0  2.23999  0
O  O34  1  0.78038581  0.95296280  0.14436902  1  -1.17932  0  -0.383615  -0.611113  0  2.198042  0
O  O35  1  0.93393685  0.21818225  0.13062918  1  -1.203188  0  -0.363809  -0.646331  0  2.26956  0
O  O36  1  0.17590207  0.53295522  0.64315134  1  -1.199912  0  -0.379827  -0.608656  0  2.304346  0
O  O37  1  0.97919258  0.34207164  0.48748496  1  -1.191533  0  -0.379912  -0.629859  0  2.363299  0
O  O38  1  0.28728950  0.09505924  0.47070671  1  -1.170272  0  -0.422062  -0.547968  0  2.372864  0
O  O39  1  0.15269768  0.15403771  0.69308187  1  -1.162773  0  -0.418854  -0.5393  0  2.406467  0
O  O40  1  0.40799407  0.86984663  0.68670265  1  -1.174341  0  -0.370437  -0.632768  0  2.380105  0
O  O41  1  0.70828459  0.01382064  0.65570859  1  -1.189386  0  -0.386243  -0.617511  0  2.300531  0
O  O42  1  0.03029660  0.84690143  0.50690803  1  -1.200347  0  -0.37763  -0.627921  0  2.349582  0
O  O43  1  0.82634854  0.90781125  0.35628966  1  -1.180014  0  -0.381291  -0.608462  0  2.321431  0
O  O44  1  0.71744446  0.61652918  0.52296293  1  -1.165244  0  -0.424177  -0.551089  0  2.373776  0
O  O45  1  0.84890021  0.47999273  0.29891314  1  -1.118816  0  -0.41228  -0.534563  0  2.390745  0
O  O46  1  0.59467937  0.20148482  0.30715328  1  -1.187686  0  -0.369959  -0.633927  0  2.376326  0
O  O47  1  0.29100941  0.37152281  0.33353738  1  -1.189491  0  -0.386843  -0.620183  0  2.293983  0
O  O48  1  0.74524158  0.66015366  0.74223820  1  -1.272081  0  -0.627425  -0.837128  0  2.044146  0
O  O49  1  0.25820595  0.94032056  0.25380850  1  -1.256105  0  -0.628705  -0.835795  0  2.057391  0
