# generated using pymatgen
data_NaH15C13(NO3)2
_symmetry_space_group_name_H-M   'P 1'
_cell_length_a   4.61808536
_cell_length_b   10.11965824
_cell_length_c   16.51234948
_cell_angle_alpha   96.72529322
_cell_angle_beta   104.63845120
_cell_angle_gamma   72.95325201
_symmetry_Int_Tables_number   1
_chemical_formula_structural   NaH15C13(NO3)2
_chemical_formula_sum   'Na2 H30 C26 N4 O12'
_cell_volume   713.05507131
_cell_formula_units_Z   2
loop_
 _symmetry_equiv_pos_site_id
 _symmetry_equiv_pos_as_xyz
  1  'x, y, z'
loop_
 _atom_site_type_symbol
 _atom_site_label
 _atom_site_symmetry_multiplicity
 _atom_site_fract_x
 _atom_site_fract_y
 _atom_site_fract_z
 _atom_site_occupancy
 _atom_site_hle17_bader_spin_density
 _atom_site_hle17_ddec_charge
 _atom_site_hle17_ddec_spin_density
 _atom_site_hle17_ddec_sum_bond_order
 _atom_site_hle17_magmom
 _atom_site_hse06_10hf_bader_spin_density
 _atom_site_hse06_10hf_ddec_charge
 _atom_site_hse06_10hf_ddec_spin_density
 _atom_site_hse06_10hf_ddec_sum_bond_order
 _atom_site_hse06_10hf_magmom
 _atom_site_hse06_bader_spin_density
 _atom_site_hse06_ddec_charge
 _atom_site_hse06_ddec_spin_density
 _atom_site_hse06_ddec_sum_bond_order
 _atom_site_hse06_magmom
 _atom_site_pbe_bader_spin_density
 _atom_site_pbe_cm5_charge
 _atom_site_pbe_ddec_charge
 _atom_site_pbe_ddec_spin_density
 _atom_site_pbe_ddec_sum_bond_order
 _atom_site_pbe_magmom
Na  Na0  1  0.99999597  0.00000372  0.99999981  1  0  0.924795  0  0.277062  0  0  0.881357  0  0.395974  0  0  0.894635  0  0.374005  0  0  0.628638  0.87128  0  0.412104  0
Na  Na1  1  0.00000374  0.49999934  0.00000167  1  0  0.899993  0  0.343902  0  0  0.855308  0  0.487857  0  0  0.864793  0  0.4669  0  0  0.623272  0.848017  0  0.50323  0
H  H2  1  0.35706196  0.63967456  0.61760996  1  0  0.106915  0  0.948404  0  0  0.117797  0  1.010648  0  0  0.120541  0  1.009734  0  0  0.107919  0.115881  0  1.011237  0
H  H3  1  0.64290479  0.36032568  0.38239051  1  0  0.106888  0  0.948406  0  0  0.117791  0  1.01062  0  0  0.12052  0  1.009721  0  0  0.107932  0.115878  0  1.011203  0
H  H4  1  0.23395738  0.71095122  0.75868528  1  0  0.082244  0  0.979319  0  0  0.091777  0  1.045825  0  0  0.095481  0  1.04271  0  0  0.098658  0.089116  0  1.048076  0
H  H5  1  0.76600944  0.28905901  0.24131467  1  0  0.082211  0  0.97939  0  0  0.091687  0  1.045953  0  0  0.095398  0  1.042829  0  0  0.098639  0.089029  0  1.048198  0
H  H6  1  0.27567599  0.59641609  0.19526694  1  0  0.405574  0  0.864907  0  0  0.379896  0  0.933061  0  0  0.391302  0  0.920238  0  0  0.308496  0.371768  0  0.942077  0
H  H7  1  0.72434274  0.40357991  0.80473744  1  0  0.40561  0  0.864852  0  0  0.37992  0  0.933021  0  0  0.391339  0  0.920181  0  0  0.308493  0.371798  0  0.942027  0
H  H8  1  0.57992293  0.50202237  0.11349014  1  0  0.413723  0  0.894974  0  0  0.385614  0  0.954944  0  0  0.396325  0  0.93928  0  0  0.287173  0.378041  0  0.965994  0
H  H9  1  0.42008888  0.49797892  0.88651347  1  0  0.413638  0  0.895082  0  0  0.3856  0  0.954949  0  0  0.396311  0  0.939286  0  0  0.287163  0.37803  0  0.965994  0
H  H10  1  0.45059749  0.64902169  0.07788040  1  0  0.417981  0  0.887597  0  0  0.390052  0  0.946249  0  0  0.400823  0  0.930403  0  0  0.28814  0.382452  0  0.957446  0
H  H11  1  0.54941321  0.35097825  0.92212009  1  0  0.41804  0  0.887517  0  0  0.390098  0  0.946183  0  0  0.40087  0  0.930335  0  0  0.288154  0.382495  0  0.957383  0
H  H12  1  0.62252954  0.05255366  0.77635859  1  0  0.09146  0  0.951416  0  0  0.100588  0  1.014534  0  0  0.105002  0  1.010767  0  0  0.101038  0.097322  0  1.017396  0
H  H13  1  0.37744293  0.94745316  0.22363290  1  0  0.091648  0  0.951546  0  0  0.100727  0  1.014674  0  0  0.105143  0  1.010916  0  0  0.101109  0.097468  0  1.017522  0
H  H14  1  0.49423146  0.76104868  0.97317976  1  0  0.410515  0  0.899385  0  0  0.380736  0  0.962584  0  0  0.390486  0  0.948226  0  0  0.294841  0.373914  0  0.972609  0
H  H15  1  0.50577633  0.23895458  0.02682191  1  0  0.410584  0  0.899308  0  0  0.380822  0  0.962468  0  0  0.390573  0  0.948111  0  0  0.294859  0.374004  0  0.972486  0
H  H16  1  0.64773678  0.80982877  0.06097959  1  0  0.429749  0  0.871508  0  0  0.401711  0  0.930199  0  0  0.412011  0  0.914909  0  0  0.298581  0.394442  0  0.940995  0
H  H17  1  0.35226522  0.19017779  0.93902195  1  0  0.429827  0  0.871411  0  0  0.401779  0  0.930117  0  0  0.41208  0  0.914827  0  0  0.298595  0.394508  0  0.940916  0
H  H18  1  0.74188347  0.98141619  0.63429645  1  0  0.103308  0  0.976385  0  0  0.10898  0  1.047171  0  0  0.111974  0  1.045525  0  0  0.103913  0.106789  0  1.048435  0
H  H19  1  0.25808946  0.01857853  0.36569494  1  0  0.103141  0  0.9764  0  0  0.108864  0  1.04715  0  0  0.111877  0  1.045462  0  0  0.103864  0.106673  0  1.048399  0
H  H20  1  0.91125878  0.28880724  0.12637052  1  0  0.433375  0  0.86519  0  0  0.401502  0  0.930547  0  0  0.411771  0  0.915479  0  0  0.295114  0.39415  0  0.941322  0
H  H21  1  0.08874735  0.71119626  0.87363234  1  0  0.433341  0  0.865246  0  0  0.401468  0  0.930601  0  0  0.411737  0  0.915533  0  0  0.295114  0.394111  0  0.941383  0
H  H22  1  0.05473572  0.41570194  0.16824018  1  0  0.418348  0  0.883575  0  0  0.386445  0  0.949312  0  0  0.396434  0  0.934786  0  0  0.296291  0.379382  0  0.959554  0
H  H23  1  0.94528444  0.58429600  0.83176425  1  0  0.4182  0  0.883738  0  0  0.386249  0  0.949572  0  0  0.39624  0  0.935041  0  0  0.296202  0.379184  0  0.959816  0
H  H24  1  0.03252946  0.91751228  0.42153587  1  0  0.105145  0  0.946579  0  0  0.110121  0  1.018279  0  0  0.113192  0  1.015452  0  0  0.107084  0.107914  0  1.02018  0
H  H25  1  0.96745559  0.08248651  0.57846081  1  0  0.105093  0  0.946545  0  0  0.110087  0  1.018227  0  0  0.113156  0  1.015403  0  0  0.10706  0.107881  0  1.020126  0
H  H26  1  0.22837289  0.80568199  0.29403370  1  0  0.108985  0  0.957285  0  0  0.122117  0  1.014185  0  0  0.124757  0  1.014059  0  0  0.103323  0.120333  0  1.014248  0
H  H27  1  0.77162192  0.19431873  0.70596635  1  0  0.109041  0  0.957295  0  0  0.122179  0  1.01419  0  0  0.124819  0  1.014061  0  0  0.103337  0.120396  0  1.014251  0
H  H28  1  0.94202094  0.44678937  0.31820569  1  0  0.105167  0  0.96846  0  0  0.11559  0  1.031812  0  0  0.118262  0  1.031382  0  0  0.101877  0.113817  0  1.031951  0
H  H29  1  0.05802761  0.55319751  0.68180252  1  0  0.105145  0  0.968613  0  0  0.115638  0  1.031865  0  0  0.118305  0  1.031436  0  0  0.101911  0.113864  0  1.032003  0
H  H30  1  0.73698396  0.56177854  0.44344998  1  0  0.104134  0  0.959215  0  0  0.108552  0  1.029612  0  0  0.111986  0  1.026573  0  0  0.107209  0.105961  0  1.031977  0
H  H31  1  0.26304570  0.43821407  0.55655590  1  0  0.104094  0  0.959288  0  0  0.1085  0  1.029721  0  0  0.111928  0  1.026686  0  0  0.107209  0.105908  0  1.032085  0
C  C32  1  0.55625014  0.80628142  0.61823391  1  0  0.172716  0  3.803387  0  0  0.178279  0  4.052108  0  0  0.180179  0  4.074844  0  0  0.0946  0.177364  0  4.036661  0
C  C33  1  0.44372586  0.19371061  0.38176123  1  0  0.172554  0  3.803352  0  0  0.177966  0  4.052309  0  0  0.179862  0  4.075047  0  0  0.094566  0.177049  0  4.036865  0
C  C34  1  0.40960440  0.73081490  0.65304125  1  0  -0.120941  0  3.705359  0  0  -0.146559  0  3.963754  0  0  -0.150498  0  3.984341  0  0  -0.083213  -0.144211  0  3.950047  0
C  C35  1  0.59037290  0.26918737  0.34695586  1  0  -0.12087  0  3.705196  0  0  -0.146467  0  3.963674  0  0  -0.150393  0  3.984247  0  0  -0.083225  -0.144121  0  3.94997  0
C  C36  1  0.34331711  0.77043369  0.73114757  1  0  -0.058793  0  3.761399  0  0  -0.082231  0  4.012034  0  0  -0.080958  0  4.031354  0  0  -0.086386  -0.083179  0  3.99924  0
C  C37  1  0.65665523  0.22956982  0.26884941  1  0  -0.05883  0  3.761706  0  0  -0.082228  0  4.012338  0  0  -0.08096  0  4.031652  0  0  -0.086375  -0.08319  0  3.999563  0
C  C38  1  0.42275671  0.88592134  0.77635898  1  0  -0.08529  0  3.751589  0  0  -0.062519  0  3.983852  0  0  -0.071133  0  4.00742  0  0  -0.024594  -0.056955  0  3.968154  0
C  C39  1  0.57722077  0.11408982  0.22363698  1  0  -0.085116  0  3.751525  0  0  -0.062304  0  3.983696  0  0  -0.070918  0  4.007274  0  0  -0.02454  -0.056736  0  3.968002  0
C  C40  1  0.56338350  0.96288226  0.74044808  1  0  -0.051223  0  3.746673  0  0  -0.076057  0  3.998238  0  0  -0.075829  0  4.018867  0  0  -0.082662  -0.076225  0  3.984308  0
C  C41  1  0.43659136  0.03711949  0.25954404  1  0  -0.051704  0  3.746775  0  0  -0.076511  0  3.99837  0  0  -0.076297  0  4.019009  0  0  -0.082739  -0.076679  0  3.984443  0
C  C42  1  0.62910919  0.92435542  0.66234141  1  0  -0.132777  0  3.724457  0  0  -0.150719  0  3.970666  0  0  -0.155552  0  3.994314  0  0  -0.085022  -0.147611  0  3.954724  0
C  C43  1  0.37086802  0.07564847  0.33765263  1  0  -0.132292  0  3.724271  0  0  -0.150218  0  3.970486  0  0  -0.155046  0  3.99414  0  0  -0.084936  -0.147102  0  3.954541  0
C  C44  1  0.36687625  0.92633304  0.86209692  1  0  0.674466  0  3.908348  0  0  0.624739  0  4.206435  0  0  0.658703  0  4.196227  0  0  0.209241  0.601781  0  4.21261  0
C  C45  1  0.63310505  0.07367499  0.13789973  1  0  0.674636  0  3.908243  0  0  0.624922  0  4.206301  0  0  0.658887  0  4.196086  0  0  0.209259  0.601956  0  4.212484  0
C  C46  1  0.87095002  0.74688688  0.43910350  1  0  0.122726  0  3.825691  0  0  0.126607  0  4.079126  0  0  0.121343  0  4.106168  0  0  0.075636  0.130125  0  4.060688  0
C  C47  1  0.12905089  0.25310674  0.56089850  1  0  0.122475  0  3.825976  0  0  0.126417  0  4.079343  0  0  0.121158  0  4.106375  0  0  0.075582  0.129938  0  4.060902  0
C  C48  1  0.01000226  0.81524650  0.39698399  1  0  -0.072766  0  3.714798  0  0  -0.097061  0  3.970926  0  0  -0.096635  0  3.99383  0  0  -0.074238  -0.097089  0  3.954998  0
C  C49  1  0.99000454  0.18475432  0.60301395  1  0  -0.07256  0  3.714938  0  0  -0.096899  0  3.971084  0  0  -0.096465  0  3.993986  0  0  -0.074212  -0.096931  0  3.95515  0
C  C50  1  0.11778915  0.75335039  0.32635456  1  0  -0.21155  0  3.749262  0  0  -0.228861  0  3.997222  0  0  -0.237745  0  4.020806  0  0  -0.10785  -0.222914  0  3.981105  0
C  C51  1  0.88221588  0.24664403  0.67364757  1  0  -0.211805  0  3.749053  0  0  -0.229128  0  3.99702  0  0  -0.238  0  4.020613  0  0  -0.107879  -0.223183  0  3.980897  0
C  C52  1  0.09196375  0.62001468  0.29822221  1  0  0.351369  0  3.809622  0  0  0.342464  0  4.065326  0  0  0.355522  0  4.081842  0  0  0.09  0.333553  0  4.05396  0
C  C53  1  0.90806250  0.37998388  0.70178178  1  0  0.351757  0  3.809443  0  0  0.342893  0  4.065074  0  0  0.355911  0  4.081649  0  0  0.090163  0.334001  0  4.053686  0
C  C54  1  0.95449503  0.55084273  0.34064384  1  0  -0.182523  0  3.746431  0  0  -0.204457  0  4.002494  0  0  -0.212149  0  4.023635  0  0  -0.104825  -0.199208  0  3.987847  0
C  C55  1  0.04553320  0.44914793  0.65936199  1  0  -0.182791  0  3.746797  0  0  -0.204778  0  4.002848  0  0  -0.212453  0  4.023998  0  0  -0.104907  -0.199546  0  3.988222  0
C  C56  1  0.84405661  0.61337038  0.40973610  1  0  -0.091549  0  3.745467  0  0  -0.111856  0  3.994531  0  0  -0.110609  0  4.015713  0  0  -0.07923  -0.112512  0  3.980076  0
C  C57  1  0.15596862  0.38662521  0.59026784  1  0  -0.091264  0  3.74532  0  0  -0.111586  0  3.994419  0  0  -0.110332  0  4.015591  0  0  -0.079186  -0.112242  0  3.979964  0
N  N58  1  0.63548593  0.74908055  0.54246209  1  0  -0.17748  0  3.030928  0  0  -0.154228  0  3.319275  0  0  -0.155289  0  3.32772  0  0  -0.161234  -0.153524  0  3.313471  0
N  N59  1  0.36449912  0.25091824  0.45753459  1  0  -0.177363  0  3.030624  0  0  -0.154074  0  3.319027  0  0  -0.155137  0  3.327476  0  0  -0.161176  -0.153368  0  3.313219  0
N  N60  1  0.77327115  0.81487460  0.51061240  1  0  -0.139745  0  2.997827  0  0  -0.1177  0  3.285516  0  0  -0.113867  0  3.293085  0  0  -0.14583  -0.119975  0  3.280095  0
N  N61  1  0.22671379  0.18512142  0.48938610  1  0  -0.139817  0  2.997778  0  0  -0.117788  0  3.285477  0  0  -0.11396  0  3.293047  0  0  -0.145886  -0.120062  0  3.280048  0
O  O62  1  0.22047304  0.86036439  0.89246281  1  0  -0.740109  0  2.009803  0  0  -0.676759  0  2.238687  0  0  -0.701834  0  2.225747  0  0  -0.386269  -0.659068  0  2.2471  0
O  O63  1  0.77952052  0.13964327  0.10753603  1  0  -0.740241  0  2.009608  0  0  -0.676904  0  2.238485  0  0  -0.70198  0  2.225542  0  0  -0.386266  -0.659211  0  2.246898  0
O  O64  1  0.46981582  0.02399874  0.90318952  1  0  -0.72746  0  1.99301  0  0  -0.678801  0  2.229017  0  0  -0.700602  0  2.213275  0  0  -0.371529  -0.663622  0  2.239563  0
O  O65  1  0.53018314  0.97601104  0.09680458  1  0  -0.727492  0  1.993239  0  0  -0.678844  0  2.22924  0  0  -0.700641  0  2.21349  0  0  -0.371553  -0.663663  0  2.23979  0
O  O66  1  0.20100851  0.54793006  0.23252848  1  0  -0.549151  0  2.213366  0  0  -0.482636  0  2.423204  0  0  -0.505875  0  2.415055  0  0  -0.339461  -0.465715  0  2.427976  0
O  O67  1  0.79903489  0.45206078  0.76747716  1  0  -0.549249  0  2.213146  0  0  -0.482729  0  2.423018  0  0  -0.505969  0  2.414864  0  0  -0.339544  -0.465815  0  2.427794  0
O  O68  1  0.38696061  0.58175950  0.10481085  1  0  -0.884199  0  1.816396  0  0  -0.833233  0  1.975111  0  0  -0.851943  0  1.942554  0  0  -0.636339  -0.820036  0  1.997887  0
O  O69  1  0.61305111  0.41823955  0.89519089  1  0  -0.884182  0  1.816405  0  0  -0.833257  0  1.975078  0  0  -0.851963  0  1.942494  0  0  -0.636329  -0.82006  0  1.997847  0
O  O70  1  0.63437269  0.72332458  0.02656994  1  0  -0.873866  0  1.811128  0  0  -0.820683  0  1.965437  0  0  -0.839206  0  1.934169  0  0  -0.617141  -0.807644  0  1.98725  0
O  O71  1  0.36563530  0.27667983  0.97343297  1  0  -0.874025  0  1.811046  0  0  -0.820837  0  1.965375  0  0  -0.839361  0  1.934096  0  0  -0.61719  -0.807799  0  1.987193  0
O  O72  1  0.92598583  0.38185316  0.11737565  1  0  -0.870897  0  1.824294  0  0  -0.817566  0  1.991571  0  0  -0.83612  0  1.960015  0  0  -0.609289  -0.804293  0  2.013724  0
O  O73  1  0.07403010  0.61814893  0.88262808  1  0  -0.870688  0  1.824439  0  0  -0.817358  0  1.991725  0  0  -0.835916  0  1.960173  0  0  -0.609198  -0.804079  0  2.01388  0
