# generated using pymatgen
data_NiH19C26S2(NO)4
_symmetry_space_group_name_H-M   'P 1'
_cell_length_a   8.98113139
_cell_length_b   10.95399998
_cell_length_c   12.73710346
_cell_angle_alpha   93.81126983
_cell_angle_beta   94.21660218
_cell_angle_gamma   100.66645236
_symmetry_Int_Tables_number   1
_chemical_formula_structural   NiH19C26S2(NO)4
_chemical_formula_sum   'Ni2 H38 C52 S4 N8 O8'
_cell_volume   1223.97659684
_cell_formula_units_Z   2
loop_
 _symmetry_equiv_pos_site_id
 _symmetry_equiv_pos_as_xyz
  1  'x, y, z'
loop_
 _atom_site_type_symbol
 _atom_site_label
 _atom_site_symmetry_multiplicity
 _atom_site_fract_x
 _atom_site_fract_y
 _atom_site_fract_z
 _atom_site_occupancy
 _atom_site_pbe_cm5_charge
 _atom_site_pbe_ddec_charge
 _atom_site_pbe_ddec_spin_density
 _atom_site_pbe_ddec_sum_bond_order
 _atom_site_pbe_magmom
Ni  Ni0  1  0.99999940  0.49999768  0.99999881  1  0.606059  0.581993  1.628359  2.912694  1.348
Ni  Ni1  1  0.00000064  0.00000035  0.99999955  1  0.606487  0.580636  -1.63364  2.884682  -1.356
H  H2  1  0.96200842  0.36877857  0.55063034  1  0.302112  0.350156  -2e-06  0.99477  0.0
H  H3  1  0.03798956  0.63122041  0.44937433  1  0.302132  0.350223  -2e-06  0.994689  0.0
H  H4  1  0.93181204  0.70562649  0.58364442  1  0.302262  0.350017  4e-06  0.993176  0.0
H  H5  1  0.06818681  0.29437629  0.41635742  1  0.302244  0.350078  4e-06  0.993112  0.0
H  H6  1  0.95811348  0.46590370  0.76517084  1  0.11166  0.085976  0.000814  1.057632  0.001
H  H7  1  0.04188927  0.53409640  0.23482711  1  0.111673  0.086034  0.000814  1.057654  0.001
H  H8  1  0.74321997  0.42784692  0.62429398  1  0.111148  0.126952  0.000464  1.016445  0.001
H  H9  1  0.25677695  0.57215216  0.37570592  1  0.111128  0.126936  0.000464  1.016447  0.001
H  H10  1  0.46153396  0.54489909  0.85823225  1  0.100146  0.110233  0.000733  1.038809  0.001
H  H11  1  0.53846522  0.45509525  0.14177215  1  0.100087  0.110122  0.000733  1.03899  0.001
H  H12  1  0.68668406  0.57511811  0.98865049  1  0.113575  0.089235  0.000872  1.005394  0.001
H  H13  1  0.31331758  0.42487721  0.01135255  1  0.113548  0.089207  0.000872  1.005403  0.001
H  H14  1  0.48062966  0.40920604  0.57144630  1  0.11267  0.109576  3.9e-05  0.989706  0.0
H  H15  1  0.51936995  0.59079018  0.42855748  1  0.112651  0.109509  3.9e-05  0.989732  0.0
H  H16  1  0.27012189  0.47178711  0.74025908  1  0.104773  0.12934  -1.9e-05  1.019647  0.0
H  H17  1  0.72987766  0.52821382  0.25974267  1  0.104767  0.12933  -1.9e-05  1.019591  0.0
H  H18  1  0.93845060  0.85664612  0.78440616  1  0.112148  0.08963  -0.000855  1.036414  -0.001
H  H19  1  0.06154806  0.14335576  0.21559404  1  0.112164  0.08965  -0.000855  1.036402  -0.001
H  H20  1  0.71705767  0.77082215  0.65449710  1  0.11032  0.125846  -0.00047  1.01343  -0.001
H  H21  1  0.28294121  0.22918067  0.34550318  1  0.110329  0.125847  -0.00047  1.013393  -0.001
H  H22  1  0.42756316  0.88567920  0.88341620  1  0.103463  0.111079  8.7e-05  1.031854  0.0
H  H23  1  0.57243639  0.11432170  0.11658633  1  0.103467  0.111065  8.7e-05  1.031895  0.0
H  H24  1  0.66078612  0.96496469  0.00376442  1  0.109662  0.079859  -0.000805  1.032634  -0.001
H  H25  1  0.33921568  0.03503626  0.99623667  1  0.109657  0.079858  -0.000805  1.032659  -0.001
H  H26  1  0.44620964  0.72336373  0.60818365  1  0.110429  0.107777  -3.6e-05  0.993602  0.0
H  H27  1  0.55378989  0.27663716  0.39181967  1  0.110404  0.107758  -3.6e-05  0.99363  0.0
H  H28  1  0.24800289  0.84316490  0.75727234  1  0.107815  0.132054  0.000294  1.013068  0.0
H  H29  1  0.75199926  0.15684261  0.24272767  1  0.107803  0.132031  0.000295  1.013047  0.0
H  H30  1  0.86098359  0.13267832  0.70775375  1  0.087854  0.088343  -0.000106  1.056927  0.0
H  H31  1  0.13901651  0.86731990  0.29224391  1  0.087852  0.088329  -0.000106  1.05693  0.0
H  H32  1  0.68308714  0.21125373  0.82319725  1  0.098813  0.104902  -3.1e-05  0.995848  0.0
H  H33  1  0.31691448  0.78874633  0.17680220  1  0.098799  0.104888  -3.1e-05  0.995846  0.0
H  H34  1  0.40650711  0.17911208  0.76506826  1  0.08744  0.08766  -0.000615  1.049382  0.0
H  H35  1  0.59349535  0.82089173  0.23492993  1  0.087466  0.087714  -0.000615  1.049321  0.0
H  H36  1  0.19107484  0.09770242  0.63014334  1  0.090135  0.092555  -0.000771  1.038655  0.0
H  H37  1  0.80892562  0.90230235  0.36985324  1  0.090107  0.092567  -0.000771  1.038611  0.0
H  H38  1  0.90629248  0.01825484  0.54277304  1  0.09868  0.103103  1.3e-05  1.016117  0.0
H  H39  1  0.09370915  0.98174523  0.45722563  1  0.098679  0.103145  1.3e-05  1.016105  0.0
C  C40  1  0.07868300  0.26062260  0.88733072  1  0.157869  0.273341  0.002694  4.239651  0.013
C  C41  1  0.92132161  0.73937570  0.11266485  1  0.157951  0.273389  0.002695  4.23941  0.013
C  C42  1  0.14738914  0.77279522  0.93626227  1  0.159177  0.266547  -0.002009  4.25884  -0.012
C  C43  1  0.85260668  0.22720389  0.06373600  1  0.159121  0.266427  -0.00201  4.258785  -0.012
C  C44  1  0.84636735  0.48219700  0.78229756  1  0.047202  0.097442  -0.001412  3.924301  -0.002
C  C45  1  0.15363183  0.51780213  0.21770090  1  0.047183  0.097366  -0.001412  3.924416  -0.002
C  C46  1  0.72610905  0.46120271  0.70409610  1  -0.072571  -0.149117  0.003164  3.889747  0.004
C  C47  1  0.27388745  0.53879448  0.29590443  1  -0.072604  -0.149172  0.003164  3.88971  0.004
C  C48  1  0.58153506  0.47799464  0.72942130  1  0.007448  0.132838  -0.002658  4.010535  -0.003
C  C49  1  0.41846164  0.52200347  0.27058009  1  0.007412  0.132809  -0.002658  4.010546  -0.003
C  C50  1  0.56830764  0.52375452  0.83362455  1  -0.082322  -0.166295  0.003555  3.920858  0.004
C  C51  1  0.43169003  0.47623800  0.16637728  1  -0.082207  -0.16616  0.003555  3.920928  0.004
C  C52  1  0.69375295  0.54173222  0.90699786  1  0.041057  0.085902  -0.000604  3.955316  -0.002
C  C53  1  0.30624738  0.45826218  0.09300425  1  0.04109  0.085939  -0.000604  3.955271  -0.002
C  C54  1  0.45374551  0.44233534  0.64940282  1  -0.053961  -0.040799  0.000539  3.921348  0.001
C  C55  1  0.54625189  0.55766091  0.35059848  1  -0.053928  -0.040743  0.000539  3.921368  0.001
C  C56  1  0.30668266  0.44138289  0.66475101  1  -0.09149  -0.240323  -0.002069  3.903978  -0.002
C  C57  1  0.69331292  0.55861521  0.33525031  1  -0.091481  -0.240252  -0.002069  3.903921  -0.002
C  C58  1  0.18463040  0.39597463  0.58082935  1  0.231598  0.62658  -0.000262  4.126772  0.0
C  C59  1  0.81536606  0.60402251  0.41917353  1  0.231601  0.626529  -0.000262  4.12664  0.0
C  C60  1  0.82354646  0.86160869  0.80332490  1  0.046116  0.097691  0.002168  3.922727  0.003
C  C61  1  0.17645423  0.13839228  0.19667535  1  0.046074  0.097589  0.002168  3.922771  0.003
C  C62  1  0.69950528  0.81378351  0.73106598  1  -0.075194  -0.159041  -0.00336  3.90071  -0.004
C  C63  1  0.30049717  0.18622028  0.26893378  1  -0.075194  -0.15897  -0.00336  3.900743  -0.004
C  C64  1  0.55232306  0.82295325  0.75632760  1  0.008684  0.134969  0.003472  4.011842  0.004
C  C65  1  0.44767785  0.17704867  0.24367194  1  0.008688  0.13496  0.003472  4.011805  0.004
C  C66  1  0.53833495  0.87787402  0.85727073  1  -0.078947  -0.160282  -0.002616  3.919505  -0.004
C  C67  1  0.46166574  0.12212693  0.14273030  1  -0.078941  -0.160254  -0.002616  3.919665  -0.004
C  C68  1  0.66763961  0.92221467  0.92508378  1  0.041775  0.086485  0.001411  3.959427  0.002
C  C69  1  0.33236261  0.07778817  0.07491669  1  0.041788  0.086497  0.001411  3.959602  0.002
C  C70  1  0.42328240  0.77529723  0.67950443  1  -0.055765  -0.043829  0.001149  3.927196  0.001
C  C71  1  0.57671758  0.22470558  0.32049669  1  -0.055695  -0.043764  0.001149  3.927045  0.001
C  C72  1  0.27914666  0.78973363  0.68999281  1  -0.094728  -0.248714  0.002292  3.940969  0.002
C  C73  1  0.72085487  0.21027107  0.31000775  1  -0.094759  -0.248761  0.002292  3.940986  0.002
C  C74  1  0.15404659  0.73294088  0.61179094  1  0.232664  0.625071  0.000171  4.11856  0.0
C  C75  1  0.84595228  0.26706192  0.38821012  1  0.232655  0.62503  0.000171  4.118546  0.0
C  C76  1  0.68693373  0.05387695  0.58286777  1  -0.013247  0.070337  -3.2e-05  4.036964  0.0
C  C77  1  0.31306547  0.94612221  0.41712912  1  -0.013312  0.070171  -3.2e-05  4.036979  0.0
C  C78  1  0.74022604  0.11904571  0.68136236  1  -0.094047  -0.127786  1.6e-05  3.962673  0.0
C  C79  1  0.25977537  0.88095342  0.31863701  1  -0.094004  -0.127617  1.6e-05  3.962664  0.0
C  C80  1  0.63978605  0.16277080  0.74632071  1  -0.096294  -0.074737  -9e-06  4.033262  0.0
C  C81  1  0.36021425  0.83722834  0.25367781  1  -0.096282  -0.07476  -9e-06  4.033267  0.0
C  C82  1  0.48489369  0.14520083  0.71382201  1  -0.0988  -0.139926  -0.00037  3.980722  0.0
C  C83  1  0.51510614  0.85480114  0.28617434  1  -0.098829  -0.139986  -0.00037  3.980596  0.0
C  C84  1  0.42670055  0.08188545  0.61537843  1  -0.013997  0.068896  -1.6e-05  4.031217  0.0
C  C85  1  0.57329906  0.91811556  0.38461940  1  -0.01398  0.068948  -1.6e-05  4.031112  0.0
C  C86  1  0.52837907  0.03414355  0.54926362  1  -0.003392  -0.00762  2.5e-05  3.919103  0.0
C  C87  1  0.47162255  0.96585653  0.45073505  1  -0.003425  -0.007693  2.5e-05  3.919044  0.0
C  C88  1  0.26815786  0.06105880  0.57931666  1  -0.096508  -0.131438  -0.000462  4.00897  -0.001
C  C89  1  0.73184109  0.93894413  0.42067814  1  -0.096502  -0.131526  -0.000462  4.008955  -0.001
C  C90  1  0.78578026  0.00387680  0.51547513  1  -0.095717  -0.135071  0.000112  4.003157  0.0
C  C91  1  0.21421802  0.99612327  0.48452257  1  -0.095687  -0.135114  0.000112  4.003211  0.0
S  S92  1  0.10857058  0.12175907  0.85369808  1  -0.101283  -0.256896  -0.059246  2.57248  -0.066
S  S93  1  0.89143377  0.87823823  0.14630054  1  -0.10128  -0.256899  -0.059247  2.572489  -0.066
S  S94  1  0.19642012  0.63818169  0.91597799  1  -0.109697  -0.270992  0.056852  2.656823  0.063
S  S95  1  0.80357662  0.36181651  0.08401948  1  -0.109687  -0.270936  0.056848  2.656887  0.063
N  N96  1  0.05704235  0.36150770  0.91208266  1  -0.385489  -0.443013  0.012347  3.360144  0.015
N  N97  1  0.94296048  0.63848775  0.08791496  1  -0.385545  -0.443025  0.012346  3.359904  0.015
N  N98  1  0.11232532  0.87130980  0.94927985  1  -0.386386  -0.444392  -0.012404  3.369932  -0.015
N  N99  1  0.88767344  0.12868745  0.05071923  1  -0.386341  -0.444295  -0.012401  3.369744  -0.015
N  N100  1  0.83007866  0.51795102  0.88305565  1  -0.317703  -0.206138  0.047974  3.581815  0.069
N  N101  1  0.16992254  0.48204718  0.11694364  1  -0.31771  -0.206104  0.047975  3.581882  0.069
N  N102  1  0.80892269  0.91617087  0.89873209  1  -0.318247  -0.206548  -0.047156  3.590036  -0.068
N  N103  1  0.19107913  0.08383012  0.10126744  1  -0.318274  -0.206571  -0.047155  3.59004  -0.068
O  O104  1  0.20737863  0.35702406  0.48981280  1  -0.29026  -0.519246  -0.000299  2.21672  0.0
O  O105  1  0.79261890  0.64297778  0.51018890  1  -0.290265  -0.519199  -0.000299  2.216588  0.0
O  O106  1  0.04781256  0.39860788  0.61168696  1  -0.319215  -0.465813  -0.00025  2.326235  0.0
O  O107  1  0.95218522  0.60139019  0.38831684  1  -0.319241  -0.46585  -0.00025  2.326123  0.0
O  O108  1  0.01959804  0.75222924  0.63749791  1  -0.319782  -0.468964  4.2e-05  2.324432  0.0
O  O109  1  0.98040195  0.24777358  0.36250243  1  -0.31976  -0.468985  4.2e-05  2.324366  0.0
O  O110  1  0.17208865  0.67030072  0.52927169  1  -0.289899  -0.514706  0.000281  2.231077  0.0
O  O111  1  0.82790908  0.32970205  0.47073009  1  -0.289892  -0.514646  0.000281  2.23095  0.0
