# generated using pymatgen
data_ZnH28C34N4(ClO2)2
_symmetry_space_group_name_H-M   'P 1'
_cell_length_a   8.75868434
_cell_length_b   11.63032413
_cell_length_c   15.35442183
_cell_angle_alpha   79.34877748
_cell_angle_beta   89.66145140
_cell_angle_gamma   76.46561146
_symmetry_Int_Tables_number   1
_chemical_formula_structural   ZnH28C34N4(ClO2)2
_chemical_formula_sum   'Zn2 H56 C68 N8 Cl4 O8'
_cell_volume   1493.32081301
_cell_formula_units_Z   2
loop_
 _symmetry_equiv_pos_site_id
 _symmetry_equiv_pos_as_xyz
  1  'x, y, z'
loop_
 _atom_site_type_symbol
 _atom_site_label
 _atom_site_symmetry_multiplicity
 _atom_site_fract_x
 _atom_site_fract_y
 _atom_site_fract_z
 _atom_site_occupancy
 _atom_site_pbe_bader_spin_density
 _atom_site_pbe_cm5_charge
 _atom_site_pbe_ddec_charge
 _atom_site_pbe_ddec_spin_density
 _atom_site_pbe_ddec_sum_bond_order
 _atom_site_pbe_magmom
Zn  Zn0  1  0.40280776  0.64199746  0.73746374  1  0  0.706062  0.817426  0  2.343307  0
Zn  Zn1  1  0.59719512  0.35800259  0.26253525  1  0  0.70605  0.817419  0  2.343254  0
H  H2  1  0.44959443  0.36724091  0.75159308  1  0  0.135529  0.11072  0  1.061084  0
H  H3  1  0.55040132  0.63276003  0.24840584  1  0  0.135518  0.110689  0  1.061108  0
H  H4  1  0.74892107  0.69415952  0.70638846  1  0  0.1391  0.107243  0  0.996768  0
H  H5  1  0.25108125  0.30583875  0.29361340  1  0  0.139116  0.107271  0  0.996783  0
H  H6  1  0.67954564  0.96820776  0.73017340  1  0  0.097442  0.100993  0  1.031708  0
H  H7  1  0.32045237  0.03179317  0.26982225  1  0  0.097453  0.101005  0  1.031734  0
H  H8  1  0.82115592  0.29101198  0.50287661  1  0  0.100781  0.116515  0  1.038179  0
H  H9  1  0.17884526  0.70898629  0.49712526  1  0  0.100788  0.116528  0  1.038162  0
H  H10  1  0.96959342  0.83308380  0.61713716  1  0  0.102729  0.108628  0  1.050273  0
H  H11  1  0.03041152  0.16692078  0.38286508  1  0  0.102731  0.108634  0  1.050337  0
H  H12  1  0.59977373  0.71264241  0.55274181  1  0  0.096592  0.12483  0  1.070767  0
H  H13  1  0.40022829  0.28735674  0.44725732  1  0  0.09657  0.12475  0  1.070819  0
H  H14  1  0.99326655  0.74309250  0.76172202  1  0  0.119897  0.118406  0  0.984466  0
H  H15  1  0.00673521  0.25690757  0.23827958  1  0  0.119896  0.118418  0  0.984491  0
H  H16  1  0.00300868  0.75723756  0.87301825  1  0  0.114333  0.103958  0  0.980997  0
H  H17  1  0.99698939  0.24276701  0.12698338  1  0  0.114336  0.103975  0  0.981044  0
H  H18  1  0.31556530  0.73217544  0.92140645  1  0  0.100878  0.1183  0  1.045053  0
H  H19  1  0.68443218  0.26782732  0.07859285  1  0  0.100891  0.118331  0  1.045049  0
H  H20  1  0.62342656  0.18120437  0.58749458  1  0  0.115675  0.108435  0  0.987311  0
H  H21  1  0.37656977  0.81879838  0.41250407  1  0  0.115643  0.108393  0  0.987338  0
H  H22  1  0.52497772  0.17814513  0.68780849  1  0  0.120158  0.106995  0  0.972084  0
H  H23  1  0.47502030  0.82185582  0.31218911  1  0  0.12015  0.10697  0  0.972116  0
H  H24  1  0.81007346  0.85653645  0.98443013  1  0  0.105336  0.120235  0  0.998255  0
H  H25  1  0.18992402  0.14346631  0.01556981  1  0  0.105345  0.120248  0  0.998241  0
H  H26  1  0.15840438  0.91258408  0.82460211  1  0  0.099271  0.102588  0  1.02074  0
H  H27  1  0.84158972  0.08741870  0.17540241  1  0  0.099319  0.10265  0  1.020742  0
H  H28  1  0.74521109  0.44583758  0.98691097  1  0  0.110727  0.12922  0  0.994661  0
H  H29  1  0.25479262  0.55416335  0.01308334  1  0  0.110768  0.129245  0  0.994659  0
H  H30  1  0.90544787  0.26374618  0.69111973  1  0  0.096122  0.09422  0  1.049599  0
H  H31  1  0.09454877  0.73625568  0.30888230  1  0  0.096092  0.094164  0  1.049492  0
H  H32  1  0.71951395  0.79034665  0.42244502  1  0  0.081735  0.117929  0  1.048402  0
H  H33  1  0.28048748  0.20965069  0.57755242  1  0  0.081716  0.117881  0  1.048404  0
H  H34  1  0.77159420  0.69810570  0.34053209  1  0  0.089383  0.128313  0  1.013031  0
H  H35  1  0.22840780  0.30188985  0.65946756  1  0  0.089408  0.128328  0  1.013046  0
H  H36  1  0.91383034  0.70308969  0.41938072  1  0  0.086993  0.126287  0  1.025396  0
H  H37  1  0.08617082  0.29690856  0.58061855  1  0  0.086996  0.126294  0  1.025394  0
H  H38  1  0.02204115  0.49735834  0.38844050  1  0  0.082768  0.116186  0  1.050081  0
H  H39  1  0.97796086  0.50263722  0.61156045  1  0  0.082767  0.116172  0  1.050066  0
H  H40  1  0.85879151  0.50554678  0.31881326  1  0  0.085745  0.126949  0  1.056693  0
H  H41  1  0.14121133  0.49444606  0.68118677  1  0  0.08574  0.126977  0  1.056621  0
H  H42  1  0.95899117  0.36409394  0.38190019  1  0  0.083504  0.122406  0  1.033715  0
H  H43  1  0.04100999  0.63590072  0.61810285  1  0  0.083535  0.122428  0  1.033701  0
H  H44  1  0.14623225  0.12947875  0.76803798  1  0  0.101399  0.098612  0  1.021518  0
H  H45  1  0.85375930  0.87052493  0.23196838  1  0  0.10136  0.098573  0  1.021533  0
H  H46  1  0.20454651  0.79476887  0.04923316  1  0  0.084379  0.118957  0  1.017578  0
H  H47  1  0.79545298  0.20523120  0.95077041  1  0  0.084374  0.118951  0  1.017547  0
H  H48  1  0.26844409  0.91272781  0.08606727  1  0  0.085832  0.119049  0  1.033425  0
H  H49  1  0.73155625  0.08727316  0.91393421  1  0  0.085839  0.119061  0  1.033435  0
H  H50  1  0.34195905  0.76221167  0.13945675  1  0  0.084222  0.117221  0  1.032698  0
H  H51  1  0.65804470  0.23778930  0.86054341  1  0  0.084217  0.117213  0  1.032676  0
H  H52  1  0.62266957  0.81298175  0.16945551  1  0  0.089102  0.130551  0  1.024853  0
H  H53  1  0.37733302  0.18701560  0.83054387  1  0  0.089101  0.130565  0  1.024856  0
H  H54  1  0.49286261  0.95438740  0.12480125  1  0  0.08453  0.117309  0  1.047242  0
H  H55  1  0.50714116  0.04561358  0.87520152  1  0  0.084521  0.117301  0  1.047235  0
H  H56  1  0.69764173  0.93126117  0.10798134  1  0  0.089449  0.125358  0  1.014528  0
H  H57  1  0.30236457  0.06873530  0.89201945  1  0  0.089462  0.125377  0  1.014555  0
C  C58  1  0.13404592  0.92603625  0.55247678  1  0  -0.018172  -0.071737  0  3.936821  0
C  C59  1  0.86595560  0.07396834  0.44752678  1  0  -0.018086  -0.071575  0  3.936577  0
C  C60  1  0.67367197  0.40525765  0.58271839  1  0  0.086016  0.078219  0  4.045259  0
C  C61  1  0.32632636  0.59474240  0.41728128  1  0  0.085989  0.078241  0  4.045224  0
C  C62  1  0.61394623  0.52296091  0.59859283  1  0  0.080646  0.141887  0  4.077104  0
C  C63  1  0.38605409  0.47704005  0.40140670  1  0  0.08067  0.141935  0  4.077085  0
C  C64  1  0.51986412  0.39986531  0.69791239  1  0  0.155179  0.115548  0  3.917322  0
C  C65  1  0.48013420  0.60013474  0.30208729  1  0  0.155196  0.115628  0  3.917369  0
C  C66  1  0.70061455  0.71785643  0.76772882  1  0  0.160562  0.12494  0  3.941356  0
C  C67  1  0.29938578  0.28214453  0.23227137  1  0  0.160485  0.124738  0  3.941303  0
C  C68  1  0.78284620  0.00288983  0.73874133  1  0  -0.09865  -0.205445  0  3.978715  0
C  C69  1  0.21714898  0.99711290  0.26125473  1  0  -0.098725  -0.205498  0  3.978907  0
C  C70  1  0.77355644  0.38230836  0.51371835  1  0  -0.100766  -0.227342  0  3.978715  0
C  C71  1  0.22644331  0.61769080  0.48628275  1  0  -0.100825  -0.227417  0  3.978684  0
C  C72  1  0.98304536  0.90687707  0.56532619  1  0  -0.090222  -0.15632  0  3.995551  0
C  C73  1  0.01695701  0.09312841  0.43467658  1  0  -0.090252  -0.156421  0  3.99543  0
C  C74  1  0.65021144  0.62137853  0.54246539  1  0  -0.103563  -0.23708  0  3.953673  0
C  C75  1  0.34979030  0.37862153  0.45753361  1  0  -0.103567  -0.237037  0  3.953736  0
C  C76  1  0.91929369  0.92596732  0.78127879  1  0  -0.014145  0.094722  0  3.983342  0
C  C77  1  0.08070035  0.07403541  0.21871858  1  0  -0.014061  0.094834  0  3.98333  0
C  C78  1  0.54467621  0.74937313  0.87656071  1  0  0.081359  0.147374  0  4.074127  0
C  C79  1  0.45532211  0.25062693  0.12343961  1  0  0.081335  0.147243  0  4.074211  0
C  C80  1  0.85108867  0.97775780  0.51522080  1  0  0.013914  0.114179  0  4.024284  0
C  C81  1  0.14891399  0.02224679  0.48478276  1  0  0.013958  0.114246  0  4.024377  0
C  C82  1  0.26765754  0.84039470  0.60997700  1  0  0.196095  0.559883  0  4.233705  0
C  C83  1  0.73234850  0.15960627  0.39002314  1  0  0.195981  0.559756  0  4.233704  0
C  C84  1  0.74795558  0.59995153  0.47213004  1  0  -0.015304  0.11444  0  3.925175  0
C  C85  1  0.25204558  0.40004672  0.52786923  1  0  -0.01527  0.114519  0  3.925164  0
C  C86  1  0.77691310  0.12425104  0.70480147  1  0  -0.012426  0.098282  0  3.983988  0
C  C87  1  0.22308436  0.87575170  0.29519522  1  0  -0.012447  0.098184  0  3.984114  0
C  C88  1  0.93138140  0.79249462  0.81114663  1  0  -0.041499  -0.106485  0  3.890762  0
C  C89  1  0.06861751  0.20750724  0.18885408  1  0  -0.041529  -0.106621  0  3.890871  0
C  C90  1  0.68297727  0.78443826  0.89464009  1  0  0.087013  0.081727  0  4.046855  0
C  C91  1  0.31702192  0.21556271  0.10536075  1  0  0.087046  0.081815  0  4.046806  0
C  C92  1  0.10553747  0.49443990  0.92930715  1  0  -0.016575  -0.071641  0  3.956097  0
C  C93  1  0.89446052  0.50555743  0.07068836  1  0  -0.01644  -0.071258  0  3.95583  0
C  C94  1  0.42152480  0.76073369  0.93500509  1  0  -0.099345  -0.2297  0  3.965156  0
C  C95  1  0.57847382  0.23926906  0.06499419  1  0  -0.099372  -0.229746  0  3.965122  0
C  C96  1  0.81149241  0.48028487  0.45825462  1  0  -0.008582  0.1263  0  3.922907  0
C  C97  1  0.18850904  0.51971249  0.54174608  1  0  -0.008525  0.126254  0  3.922992  0
C  C98  1  0.62853237  0.20078572  0.65483427  1  0  -0.03904  -0.099514  0  3.884457  0
C  C99  1  0.37146650  0.79921252  0.34516436  1  0  -0.038996  -0.099419  0  3.884403  0
C  C100  1  0.22334006  0.48952148  0.85684665  1  0  0.208159  0.585996  0  4.225515  0
C  C101  1  0.77665965  0.51047406  0.14315172  1  0  0.208125  0.585942  0  4.225574  0
C  C102  1  0.70252537  0.83015987  0.97053300  1  0  -0.095776  -0.224429  0  3.982716  0
C  C103  1  0.29747240  0.16984199  0.02946708  1  0  -0.09583  -0.224534  0  3.982735  0
C  C104  1  0.96052660  0.46370031  0.92342221  1  0  0.014207  0.116335  0  4.034346  0
C  C105  1  0.03947337  0.53629431  0.07657368  1  0  0.014118  0.116219  0  4.03416  0
C  C106  1  0.05082983  0.97203474  0.79185275  1  0  -0.092858  -0.135801  0  3.967866  0
C  C107  1  0.94916453  0.02796712  0.20814995  1  0  -0.092927  -0.135927  0  3.968127  0
C  C108  1  0.85761577  0.46917146  0.99300200  1  0  -0.092058  -0.167491  0  3.9799  0
C  C109  1  0.14238565  0.53082587  0.00699414  1  0  -0.092016  -0.167347  0  3.979749  0
C  C110  1  0.90842525  0.16922526  0.71586960  1  0  -0.098705  -0.147683  0  3.989718  0
C  C111  1  0.09156968  0.83077840  0.28413088  1  0  -0.098639  -0.14754  0  3.989488  0
C  C112  1  0.43860782  0.80702894  0.01100917  1  0  -0.01241  0.115351  0  3.927755  0
C  C113  1  0.56139167  0.19297472  0.98899064  1  0  -0.012371  0.115443  0  3.927622  0
C  C114  1  0.57965019  0.84138851  0.02910480  1  0  -0.005164  0.13297  0  3.915764  0
C  C115  1  0.42034671  0.15861244  0.97089410  1  0  -0.005144  0.132982  0  3.915787  0
C  C116  1  0.78902242  0.70372784  0.41041081  1  0  -0.246388  -0.41054  0  3.953107  0
C  C117  1  0.21097902  0.29626951  0.58958858  1  0  -0.246423  -0.410551  0  3.953052  0
C  C118  1  0.91864319  0.46031846  0.38304119  1  0  -0.252126  -0.418711  0  3.960947  0
C  C119  1  0.08135768  0.53967710  0.61695977  1  0  -0.252151  -0.418713  0  3.960898  0
C  C120  1  0.04457903  0.09318802  0.75950555  1  0  -0.089323  -0.061336  0  4.012032  0
C  C121  1  0.95541704  0.90681565  0.24049558  1  0  -0.089278  -0.061262  0  4.012038  0
C  C122  1  0.30670269  0.82004982  0.07420283  1  0  -0.244351  -0.402096  0  3.977226  0
C  C123  1  0.69329878  0.17995115  0.92579800  1  0  -0.244361  -0.402107  0  3.977122  0
C  C124  1  0.59846825  0.88814243  0.11227991  1  0  -0.243246  -0.410638  0  3.953399  0
C  C125  1  0.40153350  0.11185763  0.88772040  1  0  -0.243249  -0.410657  0  3.953473  0
N  N126  1  0.61050347  0.32992699  0.64657432  1  0  -0.24023  -0.011143  0  3.742298  0
N  N127  1  0.38949398  0.67007215  0.35342419  1  0  -0.240222  -0.011242  0  3.742317  0
N  N128  1  0.55996260  0.70775287  0.79660936  1  0  -0.355877  -0.345936  0  3.54963  0
N  N129  1  0.44003772  0.29224808  0.20339017  1  0  -0.355821  -0.34577  0  3.5495  0
N  N130  1  0.51856356  0.51589791  0.67186916  1  0  -0.359116  -0.353969  0  3.558474  0
N  N131  1  0.48143420  0.48410394  0.32812961  1  0  -0.359117  -0.353974  0  3.55847  0
N  N132  1  0.77973800  0.76258014  0.82437433  1  0  -0.242018  -0.018503  0  3.752395  0
N  N133  1  0.22026147  0.23741992  0.17562664  1  0  -0.242009  -0.018353  0  3.752295  0
Cl  Cl134  1  0.67530704  0.94042951  0.54207429  1  0  0.03699  -0.028002  0  1.819181  0
Cl  Cl135  1  0.32469931  0.05957416  0.45792677  1  0  0.037007  -0.027968  0  1.819235  0
Cl  Cl136  1  0.90035780  0.42182536  0.82897239  1  0  0.015536  -0.056644  0  1.600085  0
Cl  Cl137  1  0.09964477  0.57817198  0.17102439  1  0  0.015478  -0.05676  0  1.599965  0
O  O138  1  0.22435801  0.76333080  0.67204322  1  0  -0.33177  -0.551432  0  2.345789  0
O  O139  1  0.77564433  0.23667107  0.32795747  1  0  -0.331737  -0.551364  0  2.345702  0
O  O140  1  0.28211036  0.58314609  0.84019473  1  0  -0.332879  -0.563273  0  2.339132  0
O  O141  1  0.71789590  0.41684675  0.15980333  1  0  -0.33286  -0.563321  0  2.339148  0
O  O142  1  0.25464964  0.39977674  0.82062076  1  0  -0.309852  -0.537671  0  2.212855  0
O  O143  1  0.74534749  0.60022328  0.17937307  1  0  -0.309835  -0.537671  0  2.21298  0
O  O144  1  0.40722784  0.84314960  0.59607016  1  0  -0.322977  -0.551594  0  2.244714  0
O  O145  1  0.59277674  0.15684865  0.40392844  1  0  -0.322938  -0.55157  0  2.244661  0
