# generated using pymatgen
data_CuH2C8N4(OF)2
_symmetry_space_group_name_H-M   'P 1'
_cell_length_a   7.41120987
_cell_length_b   6.33567935
_cell_length_c   12.08721769
_cell_angle_alpha   105.16795502
_cell_angle_beta   107.97016342
_cell_angle_gamma   90.08323990
_symmetry_Int_Tables_number   1
_chemical_formula_structural   CuH2C8N4(OF)2
_chemical_formula_sum   'Cu2 H4 C16 N8 O4 F4'
_cell_volume   518.96998982
_cell_formula_units_Z   2
loop_
 _symmetry_equiv_pos_site_id
 _symmetry_equiv_pos_as_xyz
  1  'x, y, z'
loop_
 _atom_site_type_symbol
 _atom_site_label
 _atom_site_symmetry_multiplicity
 _atom_site_fract_x
 _atom_site_fract_y
 _atom_site_fract_z
 _atom_site_occupancy
 _atom_site_pbe_bader_charge
 _atom_site_pbe_bader_spin_density
 _atom_site_pbe_cm5_charge
 _atom_site_pbe_ddec_charge
 _atom_site_pbe_ddec_spin_density
 _atom_site_pbe_ddec_sum_bond_order
 _atom_site_pbe_magmom
Cu  Cu0  1  0.09914983  0.09678147  0.19725939  1  1.076135  0.546112  0.789196  0.748989  0.701566  2.247302  0.548
Cu  Cu1  1  0.59898843  0.10271722  0.19704163  1  1.07936  0.546416  0.789201  0.748142  0.702159  2.246581  0.548
H  H2  1  0.77755767  0.07864645  0.64049260  1  0.090869  0.000476  0.115047  0.14778  0.000271  0.985871  0.0
H  H3  1  0.86323808  0.56575158  0.64167420  1  0.116046  0.000484  0.114704  0.147733  0.000279  0.986429  0.0
H  H4  1  0.27886790  0.56073352  0.64090260  1  0.101651  0.000474  0.115002  0.148407  0.000272  0.985976  0.0
H  H5  1  0.36159097  0.07436874  0.64073019  1  0.11491  0.00048  0.115015  0.148166  0.000277  0.985842  0.0
C  C6  1  0.99637212  0.15010897  0.81280525  1  0.497438  0.001208  0.112768  0.310909  0.000344  4.038792  0.001
C  C7  1  0.92997558  0.09361189  0.68755606  1  0.053552  0.001182  -0.102808  -0.275359  0.000843  3.98407  0.001
C  C8  1  0.81727029  0.66448497  0.81387445  1  0.473178  0.001312  0.1134  0.310894  0.000441  4.038003  0.001
C  C9  1  0.75794366  0.59573922  0.68857943  1  0.044478  0.0012  -0.103309  -0.276452  0.000865  3.98297  0.001
C  C10  1  0.49734783  0.66195986  0.81335494  1  0.374093  0.001237  0.113752  0.312175  0.000326  4.039442  0.001
C  C11  1  0.43124791  0.59297549  0.68810084  1  0.1293  0.001159  -0.103549  -0.27743  0.000854  3.985397  0.001
C  C12  1  0.31609788  0.14780794  0.81306923  1  0.414075  0.0013  0.113206  0.311205  0.000444  4.038844  0.001
C  C13  1  0.25649828  0.09127272  0.68777597  1  0.151112  0.001154  -0.103211  -0.276436  0.000862  3.982825  0.001
C  C14  1  0.19093823  0.17559036  0.88218203  1  0.089568  0.021339  -0.02749  -0.25807  0.015026  3.912531  0.017
C  C15  1  0.99585011  0.02718153  0.49313288  1  0.923055  0.006072  0.221379  0.238652  0.004944  3.9991  0.007
C  C16  1  0.25754297  0.20052519  0.01560216  1  1.599838  0.001184  0.230454  0.643703  0.001794  4.112565  -0.002
C  C17  1  0.06124193  0.06307412  0.62392407  1  -0.002807  0.000353  0.009548  0.103954  7.1e-05  4.01748  0.0
C  C18  1  0.69189669  0.70612546  0.88280851  1  0.129655  0.021457  -0.02805  -0.258677  0.015144  3.910522  0.017
C  C19  1  0.49719828  0.46594199  0.49372974  1  0.931249  0.006098  0.220287  0.237277  0.004941  3.999196  0.007
C  C20  1  0.75827019  0.81598892  0.01609075  1  1.606375  0.001176  0.230976  0.644481  0.001754  4.109829  -0.002
C  C21  1  0.56273128  0.56002350  0.62459517  1  0.022029  0.000335  0.010741  0.105399  4.6e-05  4.01781  0.0
N  N22  1  0.00096168  0.03159699  0.32007655  1  -0.191096  0.084056  -0.140098  -0.07655  0.058284  3.642447  0.076
N  N23  1  0.11367230  0.02602516  0.42718987  1  -0.581881  0.012537  -0.197435  -0.215322  0.007058  3.201876  0.009
N  N24  1  0.31910134  0.28965365  0.31992258  1  -0.20097  0.08367  -0.139874  -0.07914  0.057965  3.640051  0.076
N  N25  1  0.31331043  0.40033113  0.42720583  1  -0.583265  0.01259  -0.196312  -0.213443  0.007091  3.203203  0.009
N  N26  1  0.50157219  0.29081945  0.32014469  1  -0.195377  0.084105  -0.139056  -0.073802  0.058337  3.640755  0.076
N  N27  1  0.61470667  0.40223302  0.42749462  1  -0.568879  0.012537  -0.197463  -0.215551  0.007089  3.201594  0.009
N  N28  1  0.81842973  0.03212984  0.31965932  1  -0.195059  0.083975  -0.139051  -0.075217  0.058166  3.637009  0.076
N  N29  1  0.81213769  0.02701477  0.42662760  1  -0.590629  0.012612  -0.196899  -0.215212  0.007087  3.201577  0.009
O  O30  1  0.43672095  0.21356788  0.06734580  1  -1.099386  0.112136  -0.317217  -0.513807  0.070725  2.399305  0.1
O  O31  1  0.62895709  0.86827191  0.06479100  1  -1.107341  0.110586  -0.318509  -0.518676  0.070024  2.415978  0.099
O  O32  1  0.93742720  0.85464322  0.06803074  1  -1.103141  0.112702  -0.318074  -0.51472  0.071021  2.397109  0.101
O  O33  1  0.12851965  0.19874177  0.06477188  1  -1.10351  0.110388  -0.318857  -0.518592  0.0697  2.415858  0.099
F  F34  1  0.86229488  0.18193284  0.86843906  1  -0.625691  0.001553  -0.082508  -0.114731  0.001042  1.439139  0.001
F  F35  1  0.00730023  0.69136293  0.86980825  1  -0.624682  0.001405  -0.081666  -0.113324  0.000926  1.440679  0.001
F  F36  1  0.36310045  0.68553519  0.86882846  1  -0.623436  0.001555  -0.082198  -0.114236  0.001044  1.439936  0.001
F  F37  1  0.50617495  0.17691231  0.86878525  1  -0.620819  0.001386  -0.081042  -0.113122  0.000917  1.442027  0.001
