# generated using pymatgen
data_CdH24C12(NO2)2
_symmetry_space_group_name_H-M   'P 1'
_cell_length_a   4.98826070
_cell_length_b   9.87406104
_cell_length_c   14.64723204
_cell_angle_alpha   103.07248881
_cell_angle_beta   89.99961541
_cell_angle_gamma   90.00045306
_symmetry_Int_Tables_number   1
_chemical_formula_structural   CdH24C12(NO2)2
_chemical_formula_sum   'Cd2 H48 C24 N4 O8'
_cell_volume   702.74413074
_cell_formula_units_Z   2
loop_
 _symmetry_equiv_pos_site_id
 _symmetry_equiv_pos_as_xyz
  1  'x, y, z'
loop_
 _atom_site_type_symbol
 _atom_site_label
 _atom_site_symmetry_multiplicity
 _atom_site_fract_x
 _atom_site_fract_y
 _atom_site_fract_z
 _atom_site_occupancy
 _atom_site_hle17_bader_spin_density
 _atom_site_hle17_ddec_charge
 _atom_site_hle17_ddec_spin_density
 _atom_site_hle17_ddec_sum_bond_order
 _atom_site_hle17_magmom
 _atom_site_hse06_10hf_bader_spin_density
 _atom_site_hse06_10hf_ddec_charge
 _atom_site_hse06_10hf_ddec_spin_density
 _atom_site_hse06_10hf_ddec_sum_bond_order
 _atom_site_hse06_10hf_magmom
 _atom_site_hse06_bader_spin_density
 _atom_site_hse06_ddec_charge
 _atom_site_hse06_ddec_spin_density
 _atom_site_hse06_ddec_sum_bond_order
 _atom_site_hse06_magmom
 _atom_site_pbe_bader_spin_density
 _atom_site_pbe_cm5_charge
 _atom_site_pbe_ddec_charge
 _atom_site_pbe_ddec_spin_density
 _atom_site_pbe_ddec_sum_bond_order
 _atom_site_pbe_magmom
Cd  Cd0  1  0.40847003  0.25304115  0.50355540  1  0  1.151919  0  1.579213  0  0  0.964078  0  2.014903  0  0  1.01993  0  1.964467  0  0  0.767203  0.924332  0  2.04933  0
Cd  Cd1  1  0.90845456  0.74694976  0.49643804  1  0  1.1519  0  1.579205  0  0  0.96406  0  2.014886  0  0  1.019905  0  1.964442  0  0  0.767262  0.924327  0  2.049314  0
H  H2  1  0.74952637  0.34000290  0.65981144  1  0  0.291844  0  0.913052  0  0  0.281071  0  0.973719  0  0  0.286945  0  0.97024  0  0  0.290566  0.276807  0  0.976326  0
H  H3  1  0.24952791  0.65998926  0.34018962  1  0  0.291847  0  0.913053  0  0  0.281056  0  0.973721  0  0  0.286931  0  0.970239  0  0  0.290608  0.276795  0  0.976333  0
H  H4  1  0.81500133  0.42891230  0.58071811  1  0  0.31101  0  0.941076  0  0  0.294037  0  1.004844  0  0  0.301232  0  1.000224  0  0  0.287034  0.288948  0  1.008083  0
H  H5  1  0.31499638  0.57107686  0.41928418  1  0  0.310928  0  0.941014  0  0  0.293974  0  1.004791  0  0  0.301168  0  1.000175  0  0  0.286983  0.288892  0  1.008021  0
H  H6  1  0.53248579  0.44004536  0.79577779  1  0  0.06952  0  0.944431  0  0  0.090606  0  1.004112  0  0  0.090943  0  1.005552  0  0  0.092084  0.090322  0  1.003147  0
H  H7  1  0.03247529  0.55996135  0.20422646  1  0  0.069464  0  0.944596  0  0  0.090604  0  1.0042  0  0  0.090931  0  1.005647  0  0  0.092069  0.090324  0  1.003236  0
H  H8  1  0.25155812  0.37519449  0.72580166  1  0  0.088057  0  0.956677  0  0  0.102439  0  1.02383  0  0  0.104432  0  1.02288  0  0  0.093246  0.100816  0  1.024871  0
H  H9  1  0.75154767  0.62480702  0.27420559  1  0  0.088041  0  0.956598  0  0  0.102389  0  1.023816  0  0  0.104368  0  1.022873  0  0  0.093224  0.100748  0  1.024886  0
H  H10  1  0.03308381  0.60961375  0.77433531  1  0  0.033023  0  0.926371  0  0  0.051415  0  0.980752  0  0  0.051334  0  0.98198  0  0  0.088845  0.051357  0  0.980034  0
H  H11  1  0.53307609  0.39038564  0.22566101  1  0  0.033084  0  0.926372  0  0  0.051431  0  0.980817  0  0  0.051359  0  0.982042  0  0  0.088855  0.051363  0  0.980103  0
H  H12  1  0.92518886  0.58911328  0.93578639  1  0  0.0876  0  0.981846  0  0  0.1085  0  1.047367  0  0  0.109617  0  1.047726  0  0  0.082494  0.107651  0  1.047142  0
H  H13  1  0.42519829  0.41089714  0.06421008  1  0  0.087713  0  0.981712  0  0  0.108631  0  1.047192  0  0  0.109748  0  1.047547  0  0  0.082479  0.107786  0  1.046965  0
H  H14  1  0.21852503  0.48904960  0.93973156  1  0  0.093751  0  0.963153  0  0  0.118256  0  1.022283  0  0  0.119059  0  1.023299  0  0  0.085092  0.117635  0  1.021585  0
H  H15  1  0.71854371  0.51096068  0.06027140  1  0  0.093844  0  0.963048  0  0  0.118359  0  1.022165  0  0  0.119164  0  1.023176  0  0  0.085142  0.117742  0  1.021466  0
H  H16  1  0.95435070  0.42031765  0.86172867  1  0  0.085616  0  0.977021  0  0  0.104119  0  1.048116  0  0  0.105766  0  1.047346  0  0  0.080513  0.102868  0  1.048794  0
H  H17  1  0.45435939  0.57969237  0.13827129  1  0  0.085624  0  0.976986  0  0  0.104064  0  1.048145  0  0  0.105708  0  1.047373  0  0  0.080461  0.102817  0  1.048825  0
H  H18  1  0.63156799  0.60375397  0.69331727  1  0  0.045527  0  0.932216  0  0  0.059237  0  0.992421  0  0  0.060523  0  0.991461  0  0  0.102804  0.058213  0  0.993324  0
H  H19  1  0.13157640  0.39623256  0.30667417  1  0  0.045566  0  0.932046  0  0  0.059271  0  0.99225  0  0  0.060558  0  0.991293  0  0  0.102825  0.058244  0  0.993155  0
H  H20  1  0.52645639  0.68375367  0.90094911  1  0  0.089103  0  0.959099  0  0  0.112664  0  1.020048  0  0  0.113587  0  1.020829  0  0  0.08273  0.111943  0  1.019539  0
H  H21  1  0.02645440  0.31626036  0.09904803  1  0  0.089042  0  0.959043  0  0  0.112593  0  1.020002  0  0  0.113517  0  1.020781  0  0  0.082709  0.111871  0  1.019495  0
H  H22  1  0.22950740  0.78500321  0.91036449  1  0  0.093443  0  0.966215  0  0  0.117189  0  1.026603  0  0  0.117787  0  1.028208  0  0  0.085022  0.116699  0  1.025541  0
H  H23  1  0.72950887  0.21500583  0.08962810  1  0  0.093393  0  0.966171  0  0  0.117145  0  1.026555  0  0  0.117737  0  1.028167  0  0  0.084991  0.116656  0  1.025492  0
H  H24  1  0.42862000  0.76193711  0.80792234  1  0  0.090432  0  0.983841  0  0  0.10704  0  1.057051  0  0  0.108992  0  1.05599  0  0  0.082709  0.105548  0  1.057955  0
H  H25  1  0.92862124  0.23806806  0.19207200  1  0  0.090402  0  0.983583  0  0  0.106907  0  1.056953  0  0  0.108879  0  1.05587  0  0  0.082625  0.105414  0  1.05785  0
H  H26  1  0.37777239  0.81461507  0.23226264  1  0  0.070667  0  0.954909  0  0  0.086147  0  1.022872  0  0  0.087589  0  1.021948  0  0  0.088436  0.085004  0  1.023751  0
H  H27  1  0.87781018  0.18537940  0.76773461  1  0  0.070722  0  0.954938  0  0  0.086244  0  1.022881  0  0  0.087687  0  1.021961  0  0  0.088443  0.085098  0  1.02376  0
H  H28  1  0.06895432  0.84707053  0.29303828  1  0  0.080627  0  0.948507  0  0  0.097388  0  1.012981  0  0  0.098294  0  1.013565  0  0  0.092949  0.096673  0  1.01272  0
H  H29  1  0.56898009  0.15292422  0.70696503  1  0  0.080442  0  0.948532  0  0  0.097351  0  1.01288  0  0  0.098259  0  1.013459  0  0  0.092909  0.096635  0  1.012617  0
H  H30  1  0.14019311  0.73489721  0.08125264  1  0  0.090402  0  0.961415  0  0  0.113837  0  1.023419  0  0  0.114562  0  1.024454  0  0  0.084059  0.113273  0  1.022754  0
H  H31  1  0.64026593  0.26510378  0.91874649  1  0  0.090434  0  0.961493  0  0  0.113797  0  1.023586  0  0  0.114526  0  1.024621  0  0  0.084047  0.11323  0  1.022922  0
H  H32  1  0.89140507  0.83964132  0.04486051  1  0  0.085219  0  0.976961  0  0  0.104809  0  1.044978  0  0  0.106211  0  1.04472  0  0  0.081259  0.103782  0  1.045202  0
H  H33  1  0.39147760  0.16038624  0.95514453  1  0  0.085118  0  0.976962  0  0  0.104727  0  1.04497  0  0  0.106129  0  1.044712  0  0  0.081211  0.103697  0  1.045197  0
H  H34  1  0.82918758  0.76277313  0.14166073  1  0  0.094427  0  0.97182  0  0  0.115104  0  1.038323  0  0  0.116108  0  1.039084  0  0  0.084858  0.114275  0  1.037951  0
H  H35  1  0.32927296  0.23724598  0.85834819  1  0  0.094454  0  0.971797  0  0  0.115152  0  1.038244  0  0  0.116157  0  1.039001  0  0  0.084935  0.114324  0  1.03787  0
H  H36  1  0.21731536  0.03260371  0.05754063  1  0  0.091228  0  0.968151  0  0  0.115063  0  1.029567  0  0  0.115949  0  1.030379  0  0  0.084582  0.114322  0  1.029142  0
H  H37  1  0.71736978  0.96740139  0.94246291  1  0  0.091296  0  0.968069  0  0  0.115108  0  1.029509  0  0  0.115992  0  1.030322  0  0  0.084564  0.114367  0  1.029084  0
H  H38  1  0.48208249  0.94376801  0.10045905  1  0  0.092687  0  0.966714  0  0  0.116716  0  1.029068  0  0  0.117445  0  1.030209  0  0  0.084685  0.116143  0  1.028298  0
H  H39  1  0.98213392  0.05622184  0.89953460  1  0  0.092854  0  0.966635  0  0  0.116906  0  1.028954  0  0  0.117635  0  1.030093  0  0  0.084738  0.116334  0  1.028184  0
H  H40  1  0.37834062  0.11048742  0.16414788  1  0  0.092948  0  0.968267  0  0  0.113866  0  1.032837  0  0  0.115152  0  1.032952  0  0  0.085335  0.112876  0  1.03287  0
H  H41  1  0.87835055  0.88950706  0.83585211  1  0  0.092888  0  0.968298  0  0  0.113852  0  1.032823  0  0  0.115141  0  1.032937  0  0  0.08533  0.112864  0  1.032862  0
H  H42  1  0.93798885  0.01391192  0.19810786  1  0  0.025219  0  0.92898  0  0  0.044582  0  0.984155  0  0  0.0444  0  0.98534  0  0  0.087829  0.044622  0  0.983474  0
H  H43  1  0.43802247  0.98610149  0.80190483  1  0  0.02538  0  0.929029  0  0  0.044608  0  0.984285  0  0  0.044433  0  0.985478  0  0  0.087806  0.044639  0  0.983598  0
H  H44  1  0.03009477  0.06747553  0.41715203  1  0  0.308457  0  0.927572  0  0  0.292955  0  0.98993  0  0  0.299715  0  0.985946  0  0  0.288191  0.288129  0  0.992757  0
H  H45  1  0.53009912  0.93252600  0.58284938  1  0  0.308208  0  0.927638  0  0  0.292825  0  0.989835  0  0  0.299583  0  0.985851  0  0  0.288088  0.288005  0  0.992658  0
H  H46  1  0.07162386  0.16969039  0.34429531  1  0  0.29525  0  0.913675  0  0  0.28256  0  0.976786  0  0  0.289342  0  0.97174  0  0  0.288768  0.277844  0  0.980203  0
H  H47  1  0.57163105  0.83030224  0.65570701  1  0  0.295289  0  0.913494  0  0  0.282578  0  0.976632  0  0  0.289358  0  0.971594  0  0  0.288783  0.277865  0  0.980055  0
H  H48  1  0.49639471  0.06971773  0.29334061  1  0  0.061693  0  0.921073  0  0  0.078944  0  0.977135  0  0  0.079886  0  0.977072  0  0  0.112528  0.078119  0  0.977486  0
H  H49  1  0.99642286  0.93027607  0.70665097  1  0  0.061584  0  0.921179  0  0  0.078971  0  0.977146  0  0  0.079905  0  0.977089  0  0  0.112509  0.078135  0  0.977505  0
C  C50  1  0.28117264  0.55566748  0.60702879  1  0  0.649668  0  3.847772  0  0  0.597166  0  4.152323  0  0  0.630901  0  4.145288  0  0  0.207372  0.574352  0  4.156187  0
C  C51  1  0.78116822  0.44432837  0.39296684  1  0  0.6494  0  3.847724  0  0  0.596914  0  4.152326  0  0  0.630642  0  4.1453  0  0  0.207278  0.574106  0  4.156177  0
C  C52  1  0.36984903  0.46990503  0.75316427  1  0  -0.190296  0  3.62598  0  0  -0.233661  0  3.867927  0  0  -0.236113  0  3.88242  0  0  -0.164114  -0.23163  0  3.857888  0
C  C53  1  0.86985827  0.53009581  0.24683800  1  0  -0.190147  0  3.626191  0  0  -0.233496  0  3.868077  0  0  -0.235946  0  3.882621  0  0  -0.164062  -0.231454  0  3.858042  0
C  C54  1  0.19453776  0.57914597  0.81716023  1  0  0.115668  0  3.653017  0  0  0.127521  0  3.885437  0  0  0.127581  0  3.904535  0  0  -0.095264  0.127537  0  3.872241  0
C  C55  1  0.69453228  0.42086361  0.18284251  1  0  0.115569  0  3.653128  0  0  0.127402  0  3.885586  0  0  0.127441  0  3.904691  0  0  -0.095289  0.127436  0  3.872384  0
C  C56  1  0.06551691  0.51584685  0.89266624  1  0  -0.323395  0  3.700695  0  0  -0.403785  0  3.94283  0  0  -0.406441  0  3.953586  0  0  -0.247687  -0.401632  0  3.935441  0
C  C57  1  0.56552332  0.48416248  0.10733174  1  0  -0.323652  0  3.700476  0  0  -0.403993  0  3.942662  0  0  -0.406638  0  3.953411  0  0  -0.2477  -0.401854  0  3.935272  0
C  C58  1  0.50141528  0.51263239  0.66894225  1  0  0.072658  0  3.620853  0  0  0.054127  0  3.861644  0  0  0.054042  0  3.875507  0  0  -0.00411  0.054027  0  3.852358  0
C  C59  1  0.00141794  0.48736746  0.33105808  1  0  0.072622  0  3.620905  0  0  0.054119  0  3.861664  0  0  0.054038  0  3.875517  0  0  -0.004081  0.05402  0  3.852369  0
C  C60  1  0.35350511  0.70986883  0.86146832  1  0  -0.318768  0  3.68652  0  0  -0.398591  0  3.927773  0  0  -0.4015  0  3.939217  0  0  -0.248791  -0.396227  0  3.919946  0
C  C61  1  0.85350541  0.29014365  0.13852607  1  0  -0.318561  0  3.686001  0  0  -0.398297  0  3.927319  0  0  -0.401209  0  3.938737  0  0  -0.248629  -0.395937  0  3.919485  0
C  C62  1  0.55384554  0.95725928  0.39702060  1  0  0.650026  0  3.838024  0  0  0.596113  0  4.144059  0  0  0.630158  0  4.136915  0  0  0.208157  0.573153  0  4.147897  0
C  C63  1  0.05385589  0.04272009  0.60298031  1  0  0.649899  0  3.837284  0  0  0.595903  0  4.143553  0  0  0.629942  0  4.136414  0  0  0.20808  0.572936  0  4.147387  0
C  C64  1  0.22600065  0.89528829  0.25799652  1  0  -0.194584  0  3.657207  0  0  -0.240787  0  3.906318  0  0  -0.242309  0  3.919691  0  0  -0.171346  -0.239498  0  3.8971  0
C  C65  1  0.72603523  0.10471254  0.74201051  1  0  -0.194426  0  3.656719  0  0  -0.240824  0  3.906002  0  0  -0.242338  0  3.919384  0  0  -0.171292  -0.239554  0  3.896762  0
C  C66  1  0.98279189  0.81242811  0.10664734  1  0  -0.324628  0  3.70305  0  0  -0.405142  0  3.945034  0  0  -0.407827  0  3.956241  0  0  -0.24704  -0.403035  0  3.937389  0
C  C67  1  0.48287192  0.18758360  0.89335916  1  0  -0.324551  0  3.703329  0  0  -0.405058  0  3.94518  0  0  -0.407736  0  3.956404  0  0  -0.247067  -0.402965  0  3.937514  0
C  C68  1  0.30636888  0.01101581  0.12142545  1  0  -0.324754  0  3.690827  0  0  -0.405582  0  3.930143  0  0  -0.408518  0  3.941919  0  0  -0.247722  -0.403266  0  3.922054  0
C  C69  1  0.80640439  0.98898594  0.87857870  1  0  -0.324857  0  3.690728  0  0  -0.405773  0  3.930036  0  0  -0.408701  0  3.941821  0  0  -0.24773  -0.403475  0  3.921935  0
C  C70  1  0.10255628  0.93985581  0.17326362  1  0  0.1164  0  3.650325  0  0  0.128715  0  3.882423  0  0  0.128784  0  3.901374  0  0  -0.095205  0.128651  0  3.869411  0
C  C71  1  0.60257791  0.06014887  0.82674544  1  0  0.116158  0  3.650591  0  0  0.128667  0  3.882525  0  0  0.128693  0  3.901543  0  0  -0.0952  0.128658  0  3.869429  0
C  C72  1  0.36117709  0.01103857  0.32989224  1  0  0.073752  0  3.613059  0  0  0.054267  0  3.85262  0  0  0.054056  0  3.867131  0  0  -0.004557  0.054408  0  3.842492  0
C  C73  1  0.86118949  0.98895199  0.67010707  1  0  0.073962  0  3.612617  0  0  0.054246  0  3.852644  0  0  0.054038  0  3.867155  0  0  -0.004487  0.054413  0  3.842514  0
N  N74  1  0.66043543  0.39465442  0.61645937  1  0  -0.659393  0  3.106868  0  0  -0.605276  0  3.355029  0  0  -0.626714  0  3.354298  0  0  -0.633491  -0.590427  0  3.355482  0
N  N75  1  0.16042447  0.60534838  0.38354423  1  0  -0.659334  0  3.107017  0  0  -0.605176  0  3.35515  0  0  -0.62661  0  3.354418  0  0  -0.633477  -0.59034  0  3.355609  0
N  N76  1  0.17402816  0.11426036  0.38429591  1  0  -0.659114  0  3.103744  0  0  -0.60352  0  3.35073  0  0  -0.625021  0  3.349653  0  0  -0.632215  -0.588451  0  3.350998  0
N  N77  1  0.67404363  0.88573182  0.61570069  1  0  -0.658974  0  3.10353  0  0  -0.603415  0  3.350541  0  0  -0.624918  0  3.349474  0  0  -0.632115  -0.588358  0  3.35081  0
O  O78  1  0.16550521  0.46013882  0.54641355  1  0  -0.658271  0  2.0685  0  0  -0.579922  0  2.312109  0  0  -0.609585  0  2.302318  0  0  -0.32655  -0.559142  0  2.317962  0
O  O79  1  0.66551655  0.53983481  0.45358909  1  0  -0.658007  0  2.068613  0  0  -0.579861  0  2.31254  0  0  -0.609527  0  2.302758  0  0  -0.326504  -0.559047  0  2.318309  0
O  O80  1  0.21636357  0.68282036  0.62337887  1  0  -0.645914  0  1.931907  0  0  -0.591121  0  2.181055  0  0  -0.617333  0  2.170443  0  0  -0.32787  -0.572928  0  2.187788  0
O  O81  1  0.71635696  0.31715664  0.37661018  1  0  -0.645833  0  1.931548  0  0  -0.591023  0  2.180665  0  0  -0.617242  0  2.170074  0  0  -0.32784  -0.572826  0  2.187376  0
O  O82  1  0.61469134  0.82946059  0.37914209  1  0  -0.641736  0  1.969789  0  0  -0.578855  0  2.218644  0  0  -0.605541  0  2.207922  0  0  -0.323361  -0.560133  0  2.225317  0
O  O83  1  0.11469980  0.17054384  0.62084514  1  0  -0.641756  0  1.968987  0  0  -0.578852  0  2.217909  0  0  -0.605548  0  2.207197  0  0  -0.323409  -0.560126  0  2.224587  0
O  O84  1  0.65583115  0.04842608  0.46379381  1  0  -0.65706  0  2.068708  0  0  -0.584283  0  2.317477  0  0  -0.61341  0  2.307525  0  0  -0.330072  -0.563976  0  2.323514  0
O  O85  1  0.15583917  0.95157049  0.53619654  1  0  -0.656954  0  2.068419  0  0  -0.584091  0  2.317153  0  0  -0.613166  0  2.307152  0  0  -0.330029  -0.56379  0  2.323192  0
