# generated using pymatgen
data_GdAg3H6C14N2O11
_symmetry_space_group_name_H-M   'P 1'
_cell_length_a   8.03558691
_cell_length_b   13.91609692
_cell_length_c   14.61291800
_cell_angle_alpha   90.00005533
_cell_angle_beta   89.99996046
_cell_angle_gamma   89.99997975
_symmetry_Int_Tables_number   1
_chemical_formula_structural   GdAg3H6C14N2O11
_chemical_formula_sum   'Gd4 Ag12 H24 C56 N8 O44'
_cell_volume   1634.07503434
_cell_formula_units_Z   4
loop_
 _symmetry_equiv_pos_site_id
 _symmetry_equiv_pos_as_xyz
  1  'x, y, z'
loop_
 _atom_site_type_symbol
 _atom_site_label
 _atom_site_symmetry_multiplicity
 _atom_site_fract_x
 _atom_site_fract_y
 _atom_site_fract_z
 _atom_site_occupancy
 _atom_site_hle17_bader_spin_density
 _atom_site_hle17_ddec_charge
 _atom_site_hle17_ddec_spin_density
 _atom_site_hle17_ddec_sum_bond_order
 _atom_site_hle17_magmom
 _atom_site_hse06_10hf_bader_spin_density
 _atom_site_hse06_10hf_ddec_charge
 _atom_site_hse06_10hf_ddec_spin_density
 _atom_site_hse06_10hf_ddec_sum_bond_order
 _atom_site_hse06_10hf_magmom
 _atom_site_hse06_bader_spin_density
 _atom_site_hse06_ddec_charge
 _atom_site_hse06_ddec_spin_density
 _atom_site_hse06_ddec_sum_bond_order
 _atom_site_hse06_magmom
 _atom_site_pbe_bader_spin_density
 _atom_site_pbe_cm5_charge
 _atom_site_pbe_ddec_charge
 _atom_site_pbe_ddec_spin_density
 _atom_site_pbe_ddec_sum_bond_order
 _atom_site_pbe_magmom
Gd  Gd0  1  0.96906883  0.75000056  0.25000020  1  0  2.080388  0  1.868234  0  0  1.945046  0  2.274839  0  0  2.004787  0  2.214971  0  0  1.445569  1.899351  0  2.321892  0
Gd  Gd1  1  0.53093126  0.74999942  0.75000035  1  0  2.080399  0  1.868212  0  0  1.945048  0  2.274831  0  0  2.004798  0  2.214945  0  0  1.445559  1.899358  0  2.321876  0
Gd  Gd2  1  0.03093185  0.25000007  0.75000021  1  0  2.080431  0  1.868194  0  0  1.945144  0  2.274712  0  0  2.004889  0  2.214836  0  0  1.44558  1.899452  0  2.321762  0
Gd  Gd3  1  0.46906942  0.24999978  0.25000006  1  0  2.080436  0  1.868169  0  0  1.945096  0  2.274782  0  0  2.004836  0  2.214916  0  0  1.445593  1.899422  0  2.321802  0
Ag  Ag4  1  0.55601512  0.82354265  0.01459626  1  0  0.672438  0  1.256361  0  0  0.559653  0  1.688566  0  0  0.599564  0  1.623721  0  0  0.447922  0.530679  0  1.734473  0
Ag  Ag5  1  0.94398119  0.82354310  0.98540503  1  0  0.67242  0  1.256379  0  0  0.559636  0  1.68859  0  0  0.599545  0  1.623741  0  0  0.447916  0.530661  0  1.7345  0
Ag  Ag6  1  0.94398402  0.67645708  0.51459688  1  0  0.672408  0  1.256378  0  0  0.559624  0  1.688589  0  0  0.599537  0  1.623747  0  0  0.447913  0.530649  0  1.734497  0
Ag  Ag7  1  0.55601736  0.67645639  0.48540497  1  0  0.672415  0  1.256351  0  0  0.559636  0  1.688563  0  0  0.599546  0  1.623716  0  0  0.447924  0.53066  0  1.734471  0
Ag  Ag8  1  0.44398182  0.17645654  0.98540414  1  0  0.672451  0  1.256339  0  0  0.559659  0  1.688544  0  0  0.599573  0  1.623701  0  0  0.447926  0.530686  0  1.734458  0
Ag  Ag9  1  0.05601576  0.17645681  0.01459606  1  0  0.672423  0  1.256364  0  0  0.559636  0  1.688579  0  0  0.599546  0  1.623732  0  0  0.447919  0.53066  0  1.734484  0
Ag  Ag10  1  0.05601417  0.32354283  0.48540285  1  0  0.672424  0  1.25637  0  0  0.559651  0  1.688579  0  0  0.599564  0  1.623733  0  0  0.447927  0.530677  0  1.734485  0
Ag  Ag11  1  0.44398208  0.32354352  0.51459612  1  0  0.672431  0  1.256362  0  0  0.55965  0  1.688576  0  0  0.59956  0  1.623728  0  0  0.447914  0.530676  0  1.734486  0
Ag  Ag12  1  0.24999887  0.94419001  0.00000039  1  0  0.650186  0  1.304494  0  0  0.540436  0  1.738823  0  0  0.576438  0  1.678919  0  0  0.43479  0.514543  0  1.781104  0
Ag  Ag13  1  0.24999743  0.55580909  0.50000096  1  0  0.650184  0  1.304495  0  0  0.540419  0  1.738847  0  0  0.576427  0  1.678931  0  0  0.434777  0.514526  0  1.781129  0
Ag  Ag14  1  0.75000181  0.05580918  0.99999934  1  0  0.650159  0  1.304532  0  0  0.54041  0  1.738863  0  0  0.576411  0  1.678957  0  0  0.434775  0.514517  0  1.781144  0
Ag  Ag15  1  0.75000076  0.44419154  0.50000082  1  0  0.650156  0  1.30454  0  0  0.540394  0  1.738892  0  0  0.5764  0  1.67898  0  0  0.434773  0.514501  0  1.781174  0
H  H16  1  0.27345050  0.76748557  0.55549100  1  0  0.439818  0  0.858238  0  0  0.40911  0  0.919963  0  0  0.420297  0  0.904047  0  0  0.294717  0.401167  0  0.931227  0
H  H17  1  0.22655044  0.76748552  0.44450907  1  0  0.439826  0  0.858227  0  0  0.409114  0  0.919959  0  0  0.420301  0  0.904043  0  0  0.294723  0.401171  0  0.931224  0
H  H18  1  0.22654946  0.73251431  0.05549092  1  0  0.439814  0  0.85824  0  0  0.409104  0  0.919971  0  0  0.42029  0  0.904055  0  0  0.29471  0.40116  0  0.931235  0
H  H19  1  0.27344902  0.73251403  0.94450911  1  0  0.439827  0  0.858224  0  0  0.409112  0  0.919961  0  0  0.4203  0  0.904044  0  0  0.294721  0.401169  0  0.931225  0
H  H20  1  0.72654894  0.23251434  0.44450941  1  0  0.439838  0  0.858205  0  0  0.409128  0  0.919935  0  0  0.420315  0  0.904018  0  0  0.294717  0.401185  0  0.931199  0
H  H21  1  0.77344899  0.23251439  0.55549134  1  0  0.439826  0  0.858226  0  0  0.409112  0  0.919963  0  0  0.420299  0  0.904046  0  0  0.294716  0.401169  0  0.931227  0
H  H22  1  0.77344998  0.26748489  0.94450949  1  0  0.439834  0  0.858213  0  0  0.409121  0  0.919948  0  0  0.420308  0  0.904032  0  0  0.294715  0.401178  0  0.931213  0
H  H23  1  0.72655042  0.26748516  0.05549130  1  0  0.43983  0  0.858219  0  0  0.409118  0  0.919952  0  0  0.420305  0  0.904036  0  0  0.294718  0.401175  0  0.931216  0
H  H24  1  0.61440795  0.47198792  0.06558591  1  0  0.143982  0  0.924546  0  0  0.151541  0  0.987532  0  0  0.156236  0  0.984855  0  0  0.116712  0.148195  0  0.989588  0
H  H25  1  0.88559356  0.47198618  0.93441575  1  0  0.143995  0  0.924504  0  0  0.151513  0  0.98751  0  0  0.156204  0  0.984833  0  0  0.116727  0.148167  0  0.989566  0
H  H26  1  0.88559269  0.02801308  0.56558572  1  0  0.143972  0  0.924532  0  0  0.15151  0  0.987534  0  0  0.156202  0  0.984857  0  0  0.116711  0.148163  0  0.98959  0
H  H27  1  0.61440661  0.02801232  0.43441484  1  0  0.143981  0  0.924553  0  0  0.151535  0  0.987522  0  0  0.156226  0  0.984846  0  0  0.116724  0.148189  0  0.989578  0
H  H28  1  0.38559149  0.52801127  0.93441382  1  0  0.14399  0  0.92453  0  0  0.151556  0  0.987507  0  0  0.156251  0  0.984828  0  0  0.116719  0.148209  0  0.989563  0
H  H29  1  0.11440712  0.52801230  0.06558603  1  0  0.143967  0  0.924532  0  0  0.151499  0  0.987539  0  0  0.156191  0  0.984862  0  0  0.116712  0.148153  0  0.989594  0
H  H30  1  0.11440799  0.97198683  0.43441537  1  0  0.144008  0  0.924529  0  0  0.151542  0  0.987527  0  0  0.156234  0  0.98485  0  0  0.116735  0.148195  0  0.989583  0
H  H31  1  0.38559282  0.97198615  0.56558420  1  0  0.143998  0  0.924517  0  0  0.151526  0  0.987518  0  0  0.156218  0  0.984841  0  0  0.116726  0.14818  0  0.989573  0
H  H32  1  0.90080260  0.35437744  0.29055593  1  0  0.137733  0  0.922706  0  0  0.146557  0  0.98587  0  0  0.151557  0  0.981725  0  0  0.117324  0.142855  0  0.98921  0
H  H33  1  0.59919774  0.35437625  0.70944562  1  0  0.137749  0  0.922713  0  0  0.146565  0  0.985883  0  0  0.151574  0  0.981728  0  0  0.117345  0.142863  0  0.989223  0
H  H34  1  0.59919899  0.14562307  0.79055459  1  0  0.137751  0  0.922727  0  0  0.146563  0  0.985898  0  0  0.151577  0  0.981736  0  0  0.117333  0.142862  0  0.989239  0
H  H35  1  0.90080023  0.14562346  0.20944540  1  0  0.137744  0  0.922739  0  0  0.146559  0  0.985904  0  0  0.151574  0  0.98174  0  0  0.11734  0.142857  0  0.989243  0
H  H36  1  0.09919807  0.64562319  0.70944585  1  0  0.137751  0  0.922717  0  0  0.14656  0  0.985893  0  0  0.151575  0  0.98173  0  0  0.117344  0.142859  0  0.989232  0
H  H37  1  0.40080045  0.64562295  0.29055478  1  0  0.137759  0  0.922725  0  0  0.146571  0  0.985895  0  0  0.151586  0  0.981731  0  0  0.117333  0.142869  0  0.989237  0
H  H38  1  0.40080168  0.85437684  0.20944514  1  0  0.137746  0  0.922722  0  0  0.146549  0  0.985902  0  0  0.151548  0  0.98176  0  0  0.117333  0.142847  0  0.989242  0
H  H39  1  0.09919920  0.85437573  0.79055364  1  0  0.137742  0  0.922712  0  0  0.146548  0  0.985887  0  0  0.151541  0  0.981754  0  0  0.117329  0.142846  0  0.989228  0
C  C40  1  0.69329196  0.66109555  0.10532411  1  0  0.633327  0  3.901983  0  0  0.584144  0  4.186939  0  0  0.618147  0  4.18131  0  0  0.209473  0.560953  0  4.189698  0
C  C41  1  0.80670819  0.66109522  0.89467704  1  0  0.633234  0  3.902138  0  0  0.584101  0  4.187021  0  0  0.618107  0  4.181391  0  0  0.209429  0.560905  0  4.189781  0
C  C42  1  0.80670956  0.83890499  0.60532424  1  0  0.633241  0  3.902156  0  0  0.584141  0  4.186976  0  0  0.618146  0  4.181347  0  0  0.209411  0.560943  0  4.189742  0
C  C43  1  0.69329172  0.83890490  0.39467708  1  0  0.633217  0  3.90216  0  0  0.584104  0  4.187014  0  0  0.61811  0  4.181384  0  0  0.209403  0.560909  0  4.189774  0
C  C44  1  0.30670996  0.33890651  0.89467630  1  0  0.633355  0  3.902159  0  0  0.584235  0  4.186979  0  0  0.618239  0  4.18135  0  0  0.209443  0.561042  0  4.189739  0
C  C45  1  0.19329373  0.33890469  0.10532337  1  0  0.633233  0  3.902077  0  0  0.58402  0  4.187073  0  0  0.618025  0  4.181447  0  0  0.209418  0.560829  0  4.189831  0
C  C46  1  0.19329112  0.16109564  0.39467549  1  0  0.633243  0  3.902125  0  0  0.584123  0  4.186993  0  0  0.618128  0  4.181365  0  0  0.209437  0.560929  0  4.189753  0
C  C47  1  0.30670772  0.16109430  0.60532333  1  0  0.633332  0  3.902025  0  0  0.584132  0  4.187024  0  0  0.618136  0  4.181394  0  0  0.209395  0.560936  0  4.189784  0
C  C48  1  0.75414252  0.57039054  0.14950209  1  0  0.141096  0  3.779047  0  0  0.143757  0  4.029333  0  0  0.147332  0  4.047212  0  0  0.114575  0.141365  0  4.017246  0
C  C49  1  0.74585644  0.57038946  0.85049966  1  0  0.141165  0  3.779176  0  0  0.143805  0  4.029422  0  0  0.147378  0  4.047301  0  0  0.114616  0.141426  0  4.017313  0
C  C50  1  0.74585894  0.92961005  0.64950164  1  0  0.141057  0  3.779137  0  0  0.143705  0  4.029382  0  0  0.147278  0  4.04726  0  0  0.114575  0.141329  0  4.017269  0
C  C51  1  0.75414104  0.92960990  0.35049839  1  0  0.141104  0  3.779075  0  0  0.143742  0  4.029343  0  0  0.147314  0  4.04722  0  0  0.114577  0.141363  0  4.01723  0
C  C52  1  0.24586064  0.42961009  0.85049695  1  0  0.141158  0  3.779266  0  0  0.143872  0  4.029433  0  0  0.147446  0  4.047312  0  0  0.114654  0.141489  0  4.017329  0
C  C53  1  0.25414549  0.42960973  0.14950075  1  0  0.141101  0  3.779081  0  0  0.143776  0  4.029332  0  0  0.147349  0  4.047211  0  0  0.114571  0.141386  0  4.017244  0
C  C54  1  0.25414174  0.07038986  0.35049808  1  0  0.141149  0  3.779069  0  0  0.143787  0  4.029342  0  0  0.147362  0  4.04722  0  0  0.114571  0.141408  0  4.017231  0
C  C55  1  0.24585840  0.07038929  0.64950134  1  0  0.141118  0  3.779205  0  0  0.143779  0  4.029488  0  0  0.147352  0  4.047367  0  0  0.114622  0.141399  0  4.01738  0
C  C56  1  0.70057212  0.47988096  0.12263336  1  0  -0.209635  0  3.593094  0  0  -0.241823  0  3.848986  0  0  -0.249623  0  3.865173  0  0  -0.081194  -0.236924  0  3.838525  0
C  C57  1  0.79942939  0.47987917  0.87736830  1  0  -0.209681  0  3.593064  0  0  -0.241768  0  3.848953  0  0  -0.249561  0  3.86513  0  0  -0.081161  -0.236874  0  3.838491  0
C  C58  1  0.79942969  0.02012082  0.62263320  1  0  -0.209544  0  3.593053  0  0  -0.241688  0  3.84894  0  0  -0.249481  0  3.86512  0  0  -0.081149  -0.236792  0  3.838474  0
C  C59  1  0.70057086  0.02012071  0.37736735  1  0  -0.209617  0  3.5931  0  0  -0.241769  0  3.848994  0  0  -0.249561  0  3.865172  0  0  -0.081176  -0.236874  0  3.838529  0
C  C60  1  0.29942731  0.52012039  0.87736636  1  0  -0.20963  0  3.593099  0  0  -0.241855  0  3.848992  0  0  -0.249655  0  3.865179  0  0  -0.081205  -0.236957  0  3.838527  0
C  C61  1  0.20057254  0.52012074  0.12263279  1  0  -0.209549  0  3.592985  0  0  -0.24169  0  3.848852  0  0  -0.249482  0  3.865031  0  0  -0.081169  -0.236791  0  3.838389  0
C  C62  1  0.20057223  0.97988053  0.37736789  1  0  -0.209689  0  3.593111  0  0  -0.241805  0  3.849034  0  0  -0.249602  0  3.865216  0  0  -0.08117  -0.23691  0  3.838569  0
C  C63  1  0.29942982  0.97987920  0.62263237  1  0  -0.209617  0  3.593053  0  0  -0.241738  0  3.848938  0  0  -0.249533  0  3.865119  0  0  -0.08116  -0.236841  0  3.838472  0
C  C64  1  0.74840932  0.39840627  0.17460993  1  0  0.421764  0  3.85762  0  0  0.407502  0  4.12288  0  0  0.425907  0  4.13418  0  0  0.103606  0.395064  0  4.114723  0
C  C65  1  0.75159349  0.39840588  0.82539029  1  0  0.421917  0  3.857507  0  0  0.407538  0  4.122882  0  0  0.425941  0  4.134184  0  0  0.103601  0.395099  0  4.114728  0
C  C66  1  0.75159119  0.10159485  0.67460918  1  0  0.421781  0  3.857655  0  0  0.40747  0  4.122974  0  0  0.425872  0  4.134281  0  0  0.103597  0.395032  0  4.114816  0
C  C67  1  0.74840807  0.10159467  0.32539077  1  0  0.421768  0  3.857652  0  0  0.407466  0  4.122941  0  0  0.425869  0  4.134245  0  0  0.103594  0.395027  0  4.114785  0
C  C68  1  0.25159012  0.60159508  0.82539048  1  0  0.421804  0  3.857612  0  0  0.407534  0  4.122871  0  0  0.425937  0  4.134178  0  0  0.103607  0.395096  0  4.114714  0
C  C69  1  0.24840844  0.60159475  0.17461012  1  0  0.421739  0  3.857679  0  0  0.407442  0  4.122949  0  0  0.425845  0  4.134251  0  0  0.103582  0.395005  0  4.114789  0
C  C70  1  0.24840949  0.89840578  0.32539055  1  0  0.421875  0  3.857469  0  0  0.407499  0  4.122872  0  0  0.425902  0  4.134174  0  0  0.103598  0.39506  0  4.114715  0
C  C71  1  0.25159137  0.89840452  0.67460896  1  0  0.42177  0  3.857631  0  0  0.407447  0  4.122945  0  0  0.425851  0  4.134245  0  0  0.103577  0.395008  0  4.114788  0
C  C72  1  0.85962952  0.41462276  0.24867863  1  0  -0.210898  0  3.602739  0  0  -0.24287  0  3.856048  0  0  -0.25048  0  3.87295  0  0  -0.084252  -0.237966  0  3.844954  0
C  C73  1  0.64037328  0.41462160  0.75132161  1  0  -0.210953  0  3.602795  0  0  -0.242913  0  3.856119  0  0  -0.25053  0  3.873014  0  0  -0.084296  -0.238008  0  3.845027  0
C  C74  1  0.64036965  0.08537770  0.74867790  1  0  -0.210909  0  3.602807  0  0  -0.242853  0  3.856105  0  0  -0.250477  0  3.873007  0  0  -0.084245  -0.23795  0  3.845014  0
C  C75  1  0.85962713  0.08537815  0.25132203  1  0  -0.210887  0  3.602849  0  0  -0.242833  0  3.85616  0  0  -0.250455  0  3.87306  0  0  -0.084272  -0.237929  0  3.845064  0
C  C76  1  0.14036867  0.58537787  0.75132246  1  0  -0.210908  0  3.602792  0  0  -0.242849  0  3.856082  0  0  -0.250473  0  3.872984  0  0  -0.084251  -0.237946  0  3.844989  0
C  C77  1  0.35962989  0.58537759  0.24867812  1  0  -0.210911  0  3.602846  0  0  -0.242869  0  3.856139  0  0  -0.25049  0  3.873036  0  0  -0.084241  -0.237966  0  3.845045  0
C  C78  1  0.35963227  0.91462221  0.25132319  1  0  -0.210961  0  3.602719  0  0  -0.242869  0  3.856056  0  0  -0.250481  0  3.87296  0  0  -0.084264  -0.237966  0  3.844962  0
C  C79  1  0.14036857  0.91462176  0.74867633  1  0  -0.210896  0  3.602834  0  0  -0.24283  0  3.85616  0  0  -0.250432  0  3.873059  0  0  -0.084239  -0.237927  0  3.845065  0
C  C80  1  0.90767077  0.50784575  0.26919613  1  0  0.117684  0  3.812008  0  0  0.127217  0  4.053538  0  0  0.128029  0  4.074905  0  0  0.103209  0.12683  0  4.038924  0
C  C81  1  0.59233072  0.50784458  0.73080488  1  0  0.1177  0  3.812085  0  0  0.127305  0  4.053492  0  0  0.128116  0  4.074865  0  0  0.103246  0.126913  0  4.038882  0
C  C82  1  0.59232805  0.99215424  0.76919511  1  0  0.117672  0  3.812094  0  0  0.127224  0  4.053584  0  0  0.128034  0  4.074959  0  0  0.103199  0.126837  0  4.038973  0
C  C83  1  0.90766939  0.99215466  0.23080429  1  0  0.117681  0  3.812136  0  0  0.127218  0  4.053617  0  0  0.128026  0  4.074993  0  0  0.103194  0.12683  0  4.039002  0
C  C84  1  0.09232742  0.49215488  0.73080497  1  0  0.117721  0  3.812022  0  0  0.127237  0  4.053559  0  0  0.128046  0  4.074935  0  0  0.103222  0.126848  0  4.038948  0
C  C85  1  0.40767245  0.49215390  0.26919484  1  0  0.117673  0  3.812127  0  0  0.127224  0  4.053583  0  0  0.128034  0  4.074955  0  0  0.103188  0.126837  0  4.038971  0
C  C86  1  0.40767138  0.00784567  0.23080393  1  0  0.117713  0  3.812025  0  0  0.127235  0  4.053543  0  0  0.128046  0  4.074912  0  0  0.103199  0.126847  0  4.03893  0
C  C87  1  0.09232880  0.00784382  0.76919475  1  0  0.117702  0  3.812072  0  0  0.127228  0  4.053581  0  0  0.128037  0  4.074953  0  0  0.103212  0.126841  0  4.038969  0
C  C88  1  0.01638174  0.53374825  0.34836530  1  0  0.629376  0  3.892708  0  0  0.575447  0  4.177523  0  0  0.61119  0  4.171404  0  0  0.211206  0.550852  0  4.180796  0
C  C89  1  0.48362060  0.53374692  0.65163524  1  0  0.629308  0  3.892795  0  0  0.575363  0  4.177593  0  0  0.611108  0  4.171485  0  0  0.211167  0.550771  0  4.180864  0
C  C90  1  0.48361909  0.96625192  0.84836411  1  0  0.629398  0  3.892765  0  0  0.575452  0  4.177583  0  0  0.611195  0  4.17147  0  0  0.2112  0.550856  0  4.180858  0
C  C91  1  0.01638048  0.96625233  0.15163477  1  0  0.629345  0  3.892945  0  0  0.575438  0  4.177718  0  0  0.611183  0  4.171607  0  0  0.211221  0.550843  0  4.180987  0
C  C92  1  0.98361645  0.46625166  0.65163579  1  0  0.629344  0  3.892782  0  0  0.575426  0  4.177584  0  0  0.611169  0  4.171472  0  0  0.211208  0.550832  0  4.180857  0
C  C93  1  0.51637884  0.46625155  0.34836517  1  0  0.629389  0  3.892925  0  0  0.575489  0  4.177671  0  0  0.611234  0  4.171555  0  0  0.211228  0.550893  0  4.180946  0
C  C94  1  0.51638159  0.03374728  0.15163425  1  0  0.629308  0  3.892942  0  0  0.575389  0  4.17774  0  0  0.611135  0  4.171623  0  0  0.211168  0.550794  0  4.181012  0
C  C95  1  0.98361895  0.03374686  0.84836496  1  0  0.62934  0  3.892898  0  0  0.575429  0  4.177681  0  0  0.611176  0  4.171571  0  0  0.211221  0.550834  0  4.180953  0
N  N96  1  0.85617360  0.58511308  0.22110105  1  0  -0.464611  0  3.299072  0  0  -0.424199  0  3.551371  0  0  -0.440923  0  3.572788  0  0  -0.412416  -0.412486  0  3.536839  0
N  N97  1  0.64382659  0.58511195  0.77890002  1  0  -0.46463  0  3.29922  0  0  -0.42424  0  3.551482  0  0  -0.44097  0  3.572905  0  0  -0.412453  -0.412529  0  3.536945  0
N  N98  1  0.64382653  0.91488686  0.72110063  1  0  -0.46466  0  3.299115  0  0  -0.424258  0  3.551407  0  0  -0.440984  0  3.572827  0  0  -0.412435  -0.41255  0  3.536871  0
N  N99  1  0.85617346  0.91488733  0.27889938  1  0  -0.464625  0  3.299097  0  0  -0.42421  0  3.551389  0  0  -0.440935  0  3.572807  0  0  -0.412417  -0.412501  0  3.536853  0
N  N100  1  0.14382583  0.41488755  0.77890004  1  0  -0.464714  0  3.299167  0  0  -0.424333  0  3.551452  0  0  -0.441058  0  3.572871  0  0  -0.412488  -0.412621  0  3.536917  0
N  N101  1  0.35617657  0.41488724  0.22109970  1  0  -0.464654  0  3.299161  0  0  -0.424267  0  3.551464  0  0  -0.440991  0  3.572883  0  0  -0.41242  -0.412558  0  3.536932  0
N  N102  1  0.35617291  0.08511305  0.27889909  1  0  -0.464653  0  3.299064  0  0  -0.424233  0  3.551365  0  0  -0.440958  0  3.572784  0  0  -0.412412  -0.412526  0  3.536829  0
N  N103  1  0.14382722  0.08511186  0.72110034  1  0  -0.464675  0  3.299204  0  0  -0.424269  0  3.5515  0  0  -0.440997  0  3.572923  0  0  -0.412469  -0.412559  0  3.536964  0
O  O104  1  0.76303667  0.74016011  0.13233858  1  0  -0.751207  0  2.090193  0  0  -0.689618  0  2.357659  0  0  -0.721573  0  2.345513  0  0  -0.395518  -0.666392  0  2.365228  0
O  O105  1  0.73696343  0.74016049  0.86766264  1  0  -0.751196  0  2.090235  0  0  -0.689639  0  2.357699  0  0  -0.721591  0  2.345545  0  0  -0.395513  -0.666414  0  2.365271  0
O  O106  1  0.73696606  0.75984046  0.63233867  1  0  -0.751167  0  2.090226  0  0  -0.6896  0  2.357642  0  0  -0.721554  0  2.345492  0  0  -0.395494  -0.666373  0  2.365209  0
O  O107  1  0.76303527  0.75984032  0.36766120  1  0  -0.751166  0  2.090233  0  0  -0.689609  0  2.357677  0  0  -0.721558  0  2.34552  0  0  -0.395496  -0.666384  0  2.365246  0
O  O108  1  0.23696650  0.25984195  0.86765977  1  0  -0.751275  0  2.09024  0  0  -0.689719  0  2.357645  0  0  -0.721681  0  2.345515  0  0  -0.395531  -0.666495  0  2.36522  0
O  O109  1  0.26303476  0.25983942  0.13233846  1  0  -0.751162  0  2.090194  0  0  -0.689575  0  2.357691  0  0  -0.721524  0  2.345534  0  0  -0.395499  -0.666354  0  2.36526  0
O  O110  1  0.26303586  0.24016017  0.36766106  1  0  -0.751197  0  2.090251  0  0  -0.689636  0  2.357707  0  0  -0.721585  0  2.345551  0  0  -0.395513  -0.666412  0  2.365274  0
O  O111  1  0.23696292  0.24015887  0.63233715  1  0  -0.751217  0  2.090191  0  0  -0.68964  0  2.357676  0  0  -0.721591  0  2.345524  0  0  -0.395492  -0.666414  0  2.365248  0
O  O112  1  0.57821888  0.65739694  0.04741372  1  0  -0.566939  0  1.989403  0  0  -0.504446  0  2.22869  0  0  -0.533832  0  2.22145  0  0  -0.299317  -0.483688  0  2.232908  0
O  O113  1  0.92178251  0.65739665  0.95258742  1  0  -0.566923  0  1.989439  0  0  -0.50443  0  2.22867  0  0  -0.533814  0  2.221426  0  0  -0.299321  -0.483682  0  2.232914  0
O  O114  1  0.92178146  0.84260354  0.54741313  1  0  -0.566894  0  1.989426  0  0  -0.504445  0  2.228692  0  0  -0.533832  0  2.22145  0  0  -0.299298  -0.483687  0  2.232912  0
O  O115  1  0.57821857  0.84260281  0.45258682  1  0  -0.566878  0  1.989421  0  0  -0.504427  0  2.2287  0  0  -0.533813  0  2.221458  0  0  -0.299298  -0.48367  0  2.232919  0
O  O116  1  0.42178428  0.34260441  0.95258600  1  0  -0.566946  0  1.989414  0  0  -0.504454  0  2.228627  0  0  -0.53384  0  2.221389  0  0  -0.299293  -0.483701  0  2.232859  0
O  O117  1  0.07821941  0.34260326  0.04741367  1  0  -0.566916  0  1.989388  0  0  -0.504406  0  2.228673  0  0  -0.533791  0  2.221432  0  0  -0.299311  -0.483647  0  2.232886  0
O  O118  1  0.07821921  0.15739708  0.45258660  1  0  -0.566875  0  1.989417  0  0  -0.504419  0  2.228695  0  0  -0.533806  0  2.221455  0  0  -0.299292  -0.483658  0  2.232904  0
O  O119  1  0.42178211  0.15739566  0.54741359  1  0  -0.566955  0  1.989355  0  0  -0.504446  0  2.228625  0  0  -0.53383  0  2.221382  0  0  -0.299305  -0.483702  0  2.232875  0
O  O120  1  0.68546684  0.31286144  0.15868632  1  0  -0.715425  0  2.048909  0  0  -0.656787  0  2.294577  0  0  -0.682365  0  2.285129  0  0  -0.414982  -0.638015  0  2.300619  0
O  O121  1  0.81453352  0.31286106  0.84131519  1  0  -0.715521  0  2.048909  0  0  -0.656845  0  2.294612  0  0  -0.682428  0  2.285165  0  0  -0.414971  -0.638071  0  2.300656  0
O  O122  1  0.81453492  0.18713893  0.65868562  1  0  -0.715455  0  2.048943  0  0  -0.656807  0  2.294622  0  0  -0.682387  0  2.285177  0  0  -0.414983  -0.638032  0  2.300664  0
O  O123  1  0.68546428  0.18713878  0.34131509  1  0  -0.715453  0  2.048961  0  0  -0.656811  0  2.29465  0  0  -0.682391  0  2.285205  0  0  -0.414963  -0.638039  0  2.300692  0
O  O124  1  0.31453508  0.68713847  0.84131477  1  0  -0.715489  0  2.048942  0  0  -0.656832  0  2.294591  0  0  -0.682413  0  2.285145  0  0  -0.414988  -0.638058  0  2.300633  0
O  O125  1  0.18546467  0.68713885  0.15868522  1  0  -0.715447  0  2.048961  0  0  -0.656789  0  2.29462  0  0  -0.68237  0  2.285174  0  0  -0.414959  -0.638013  0  2.300662  0
O  O126  1  0.18546700  0.81286098  0.34131410  1  0  -0.715461  0  2.04884  0  0  -0.656787  0  2.294549  0  0  -0.682363  0  2.285102  0  0  -0.414994  -0.638013  0  2.300592  0
O  O127  1  0.31453516  0.81286041  0.65868532  1  0  -0.715458  0  2.048961  0  0  -0.656804  0  2.294645  0  0  -0.682386  0  2.285198  0  0  -0.414984  -0.638031  0  2.300689  0
O  O128  1  0.07908032  0.46937534  0.39982657  1  0  -0.653145  0  2.199212  0  0  -0.573654  0  2.497444  0  0  -0.60809  0  2.482423  0  0  -0.320252  -0.549332  0  2.506972  0
O  O129  1  0.42091832  0.46937253  0.60017527  1  0  -0.653144  0  2.199249  0  0  -0.573664  0  2.497521  0  0  -0.608091  0  2.482471  0  0  -0.320239  -0.549336  0  2.507035  0
O  O130  1  0.42091951  0.03062538  0.89982569  1  0  -0.65316  0  2.199192  0  0  -0.573665  0  2.497425  0  0  -0.608105  0  2.482412  0  0  -0.320234  -0.549341  0  2.506953  0
O  O131  1  0.07908065  0.03062717  0.10017438  1  0  -0.65319  0  2.199269  0  0  -0.573707  0  2.497492  0  0  -0.608149  0  2.482481  0  0  -0.320272  -0.549383  0  2.507017  0
O  O132  1  0.92091787  0.53062601  0.60017384  1  0  -0.653139  0  2.199223  0  0  -0.573647  0  2.497452  0  0  -0.608084  0  2.482433  0  0  -0.320256  -0.549322  0  2.506979  0
O  O133  1  0.57907987  0.53062594  0.39982582  1  0  -0.653156  0  2.199231  0  0  -0.573679  0  2.497455  0  0  -0.608114  0  2.482429  0  0  -0.320241  -0.549355  0  2.506983  0
O  O134  1  0.57908117  0.96937381  0.10017335  1  0  -0.653143  0  2.199335  0  0  -0.573653  0  2.49756  0  0  -0.60809  0  2.482538  0  0  -0.320232  -0.54933  0  2.507087  0
O  O135  1  0.92092003  0.96937275  0.89982603  1  0  -0.653168  0  2.199288  0  0  -0.573682  0  2.49752  0  0  -0.608118  0  2.482493  0  0  -0.320257  -0.549359  0  2.507047  0
O  O136  1  0.04276310  0.62360894  0.36101921  1  0  -0.693542  0  2.163879  0  0  -0.621508  0  2.427492  0  0  -0.653604  0  2.418311  0  0  -0.361033  -0.598545  0  2.433296  0
O  O137  1  0.45723793  0.62360689  0.63898278  1  0  -0.693461  0  2.163929  0  0  -0.621461  0  2.427615  0  0  -0.653532  0  2.418367  0  0  -0.361031  -0.598498  0  2.433415  0
O  O138  1  0.45723896  0.87639196  0.86101795  1  0  -0.693514  0  2.1639  0  0  -0.621488  0  2.427555  0  0  -0.653566  0  2.41833  0  0  -0.361033  -0.598524  0  2.433357  0
O  O139  1  0.04276067  0.87639307  0.13898153  1  0  -0.693452  0  2.164028  0  0  -0.62147  0  2.427718  0  0  -0.653534  0  2.418462  0  0  -0.361041  -0.598506  0  2.433518  0
O  O140  1  0.95723758  0.37639241  0.63898120  1  0  -0.69348  0  2.163916  0  0  -0.621473  0  2.427567  0  0  -0.653556  0  2.418352  0  0  -0.361015  -0.598511  0  2.43337  0
O  O141  1  0.54276150  0.37639159  0.36101832  1  0  -0.693527  0  2.164027  0  0  -0.621514  0  2.427651  0  0  -0.6536  0  2.418446  0  0  -0.361059  -0.598553  0  2.433452  0
O  O142  1  0.54276172  0.12360795  0.13898109  1  0  -0.693473  0  2.163913  0  0  -0.621467  0  2.427573  0  0  -0.653545  0  2.41835  0  0  -0.361014  -0.598505  0  2.433375  0
O  O143  1  0.95723877  0.12360684  0.86101819  1  0  -0.693459  0  2.163976  0  0  -0.621485  0  2.427679  0  0  -0.653541  0  2.418401  0  0  -0.361044  -0.598521  0  2.433479  0
O  O144  1  0.24999986  0.72708988  0.50000036  1  0  -0.874211  0  2.037557  0  0  -0.785486  0  2.271925  0  0  -0.816765  0  2.232973  0  0  -0.579915  -0.763079  0  2.298778  0
O  O145  1  0.24999892  0.77290994  0.00000031  1  0  -0.874199  0  2.037543  0  0  -0.785486  0  2.271918  0  0  -0.816765  0  2.232965  0  0  -0.579918  -0.763078  0  2.298772  0
O  O146  1  0.74999957  0.27291075  0.50000005  1  0  -0.874218  0  2.037519  0  0  -0.785506  0  2.271906  0  0  -0.816784  0  2.232951  0  0  -0.57991  -0.763099  0  2.298761  0
O  O147  1  0.74999991  0.22708946  0.99999996  1  0  -0.874217  0  2.037512  0  0  -0.785498  0  2.271888  0  0  -0.816778  0  2.232933  0  0  -0.579912  -0.763091  0  2.298743  0
