# generated using pymatgen
data_GdH15C18(NO2)6
_symmetry_space_group_name_H-M   'P 1'
_cell_length_a   9.88811807
_cell_length_b   10.18244479
_cell_length_c   11.35390000
_cell_angle_alpha   83.04330970
_cell_angle_beta   82.23209897
_cell_angle_gamma   70.26368687
_symmetry_Int_Tables_number   1
_chemical_formula_structural   GdH15C18(NO2)6
_chemical_formula_sum   'Gd2 H30 C36 N12 O24'
_cell_volume   1062.64535560
_cell_formula_units_Z   2
loop_
 _symmetry_equiv_pos_site_id
 _symmetry_equiv_pos_as_xyz
  1  'x, y, z'
loop_
 _atom_site_type_symbol
 _atom_site_label
 _atom_site_symmetry_multiplicity
 _atom_site_fract_x
 _atom_site_fract_y
 _atom_site_fract_z
 _atom_site_occupancy
 _atom_site_pbe_bader_charge
 _atom_site_pbe_bader_spin_density
 _atom_site_pbe_cm5_charge
 _atom_site_pbe_ddec_charge
 _atom_site_pbe_ddec_spin_density
 _atom_site_pbe_ddec_sum_bond_order
 _atom_site_pbe_magmom
Gd  Gd0  1  0.66011757  0.04414596  0.09464760  1  2.163621  0  1.44227  1.886133  0  2.251178  0
Gd  Gd1  1  0.33988297  0.95585233  0.90535243  1  2.16367  0  1.442263  1.886128  0  2.251145  0
H  H2  1  0.65026299  0.63272489  0.05242891  1  0.175267  0  0.139978  0.128709  0  0.992849  0
H  H3  1  0.34973822  0.36727444  0.94757005  1  0.175235  0  0.139989  0.128733  0  0.992823  0
H  H4  1  0.65668480  0.44599226  0.21917183  1  0.114101  0  0.117363  0.136434  0  0.993903  0
H  H5  1  0.34331676  0.55400603  0.78082720  1  0.114  0  0.117366  0.136429  0  0.993938  0
H  H6  1  0.38079343  0.77317817  0.43889278  1  0.148637  0  0.108563  0.122699  0  1.061425  0
H  H7  1  0.61920711  0.22682012  0.56110726  1  0.148772  0  0.108571  0.122713  0  1.061433  0
H  H8  1  0.38788701  0.94444946  0.26133993  1  0.193982  0  0.136644  0.120941  0  1.033339  0
H  H9  1  0.61211181  0.05555092  0.73866096  1  0.193972  0  0.136645  0.120938  0  1.033366  0
H  H10  1  0.58439237  0.37904370  0.42043434  1  0.097884  0  0.105487  0.108744  0  1.016599  0
H  H11  1  0.41560715  0.62095459  0.57956581  1  0.097907  0  0.105492  0.108759  0  1.016578  0
H  H12  1  0.89860069  0.02346837  0.71258001  1  0.129735  0  0.134678  0.126838  0  0.9791  0
H  H13  1  0.10139710  0.97653201  0.28742012  1  0.129728  0  0.134687  0.126828  0  0.979158  0
H  H14  1  0.04101739  0.84481224  0.57090464  1  0.116044  0  0.113274  0.124143  0  0.995629  0
H  H15  1  0.95898178  0.15518709  0.42909545  1  0.116036  0  0.113262  0.124138  0  0.995637  0
H  H16  1  0.99484695  0.52623004  0.84762159  1  0.123648  0  0.116331  0.134069  0  0.987993  0
H  H17  1  0.00515288  0.47377034  0.15237918  1  0.123714  0  0.116316  0.134045  0  0.98803  0
H  H18  1  0.85364821  0.72106078  0.97753618  1  0.152087  0  0.135925  0.127976  0  1.027967  0
H  H19  1  0.14635061  0.27893961  0.02246471  1  0.152096  0  0.135926  0.127989  0  1.027924  0
H  H20  1  0.12192844  0.44898194  0.66492489  1  0.111166  0  0.103028  0.105567  0  1.033826  0
H  H21  1  0.87807175  0.55101739  0.33507507  1  0.111162  0  0.103028  0.10556  0  1.033877  0
H  H22  1  0.12575637  0.67332636  0.45627876  1  0.069025  0  0.104477  0.106329  0  1.003627  0
H  H23  1  0.87424516  0.32667507  0.54372258  1  0.069089  0  0.104488  0.106307  0  1.003619  0
H  H24  1  0.23750129  0.59672519  0.26925810  1  0.129572  0  0.114105  0.1295  0  1.004391  0
H  H25  1  0.76249820  0.40327624  0.73074084  1  0.129598  0  0.1141  0.129499  0  1.004319  0
H  H26  1  0.37083095  0.40667208  0.13686900  1  0.167697  0  0.133492  0.127996  0  1.01791  0
H  H27  1  0.62916786  0.59332830  0.86313101  1  0.167699  0  0.133474  0.127953  0  1.017938  0
H  H28  1  0.23916978  0.27499524  0.55737459  1  0.129932  0  0.113919  0.132891  0  0.999297  0
H  H29  1  0.76082935  0.72500724  0.44262516  1  0.129898  0  0.113907  0.13283  0  0.999305  0
H  H30  1  0.36343052  0.09972096  0.41266672  1  0.128449  0  0.12866  0.122447  0  1.015024  0
H  H31  1  0.63656794  0.90028047  0.58733498  1  0.128429  0  0.128652  0.122439  0  1.015028  0
C  C32  1  0.59337271  0.65520299  0.13984300  1  0.397276  0  0.061436  0.02495  0  3.834121  0
C  C33  1  0.40662815  0.34479740  0.86015677  1  0.397097  0  0.061437  0.024946  0  3.834071  0
C  C34  1  0.59545083  0.55482254  0.23320657  1  0.033098  0  -0.070992  -0.152564  0  3.920842  0
C  C35  1  0.40454799  0.44517785  0.76679344  1  0.033188  0  -0.070987  -0.152562  0  3.920814  0
C  C36  1  0.52160463  0.59266148  0.34529474  1  0.042984  0  0.006049  0.133799  0  4.035215  0
C  C37  1  0.47839591  0.40733681  0.65470529  1  0.04299  0  0.005994  0.133764  0  4.03524  0
C  C38  1  0.44251031  0.73513196  0.35590881  1  -0.03611  0  -0.078274  -0.154057  0  3.930932  0
C  C39  1  0.55748886  0.26486738  0.64409039  1  -0.036254  0  -0.078244  -0.154075  0  3.931048  0
C  C40  1  0.44204306  0.83226835  0.26042685  1  0.329231  0  0.053827  -0.011813  0  3.849571  0
C  C41  1  0.55795713  0.16773098  0.73957311  1  0.329231  0  0.053815  -0.011796  0  3.849528  0
C  C42  1  0.52853003  0.48659059  0.44335094  1  -0.082906  0  -0.080246  -0.118388  0  3.969356  0
C  C43  1  0.47146914  0.51340875  0.55664914  1  0.018297  0  -0.080209  -0.118325  0  3.969285  0
C  C44  1  0.92158680  0.91180373  0.73404366  1  0.326274  0  0.045061  -0.021266  0  3.827377  0
C  C45  1  0.07841236  0.08819561  0.26595642  1  0.326254  0  0.045047  -0.021298  0  3.827544  0
C  C46  1  0.00040183  0.81027284  0.65883645  1  0.091403  0  -0.072569  -0.138995  0  3.954486  0
C  C47  1  0.99959835  0.18972650  0.34116351  1  0.091399  0  -0.072562  -0.138986  0  3.954522  0
C  C48  1  0.02858122  0.66689478  0.69538734  1  0.015985  0  -0.001517  0.115711  0  4.029884  0
C  C49  1  0.97141862  0.33310561  0.30461343  1  0.016011  0  -0.001501  0.115761  0  4.029844  0
C  C50  1  0.97618186  0.63491691  0.81323899  1  0.00974  0  -0.072343  -0.142977  0  3.942381  0
C  C51  1  0.02381935  0.36508243  0.18676174  1  0.009707  0  -0.072343  -0.143006  0  3.942385  0
C  C52  1  0.89703079  0.73911401  0.88629045  1  0.376994  0  0.04423  -0.03171  0  3.834765  0
C  C53  1  0.10296940  0.26088532  0.11370951  1  0.376994  0  0.044253  -0.031691  0  3.834707  0
C  C54  1  0.10454601  0.55373595  0.62003806  1  -0.120181  0  -0.079748  -0.109755  0  3.947752  0
C  C55  1  0.89545347  0.44626548  0.37996264  1  -0.12019  0  -0.079757  -0.109792  0  3.947777  0
C  C56  1  0.14852834  0.56857131  0.50220825  1  0.046179  0  -0.082663  -0.117331  0  3.949177  0
C  C57  1  0.85147181  0.43143117  0.49779226  1  0.046364  0  -0.082645  -0.117227  0  3.949096  0
C  C58  1  0.22388461  0.45565534  0.42663118  1  0.000611  0  0.001513  0.123817  0  4.027173  0
C  C59  1  0.77611554  0.54434714  0.57336932  1  0.000373  0  0.001457  0.123706  0  4.027128  0
C  C60  1  0.26481871  0.48831992  0.30591384  1  0.051097  0  -0.074447  -0.141405  0  3.951137  0
C  C61  1  0.73518077  0.51168151  0.69408509  1  0.051103  0  -0.074431  -0.141382  0  3.951041  0
C  C62  1  0.33724318  0.38536537  0.23012742  1  0.340987  0  0.043119  -0.032192  0  3.851485  0
C  C63  1  0.66275631  0.61463606  0.76987239  1  0.341006  0  0.043123  -0.032178  0  3.851463  0
C  C64  1  0.26341919  0.31195591  0.46547294  1  -0.000706  0  -0.073902  -0.137602  0  3.924315  0
C  C65  1  0.73657892  0.68804657  0.53452780  1  -0.000258  0  -0.073878  -0.1375  0  3.924174  0
C  C66  1  0.33415381  0.21134412  0.38698781  1  0.383379  0  0.033757  -0.046307  0  3.858787  0
C  C67  1  0.66584465  0.78865731  0.61301212  1  0.382937  0  0.03378  -0.046303  0  3.85877  0
N  N68  1  0.51922529  0.79162082  0.15518613  1  -0.683141  0  -0.122496  0.325304  0  3.915838  0
N  N69  1  0.48077490  0.20837851  0.84481383  1  -0.682917  0  -0.122485  0.325312  0  3.915762  0
N  N70  1  0.74310990  0.29521432  0.01492720  1  0.828203  0  0.08681  0.714356  0  4.424036  0
N  N71  1  0.25689065  0.70478397  0.98507283  1  0.828048  0  0.08684  0.714459  0  4.423906  0
N  N72  1  0.90516991  0.81141804  0.19098316  1  0.838658  0  0.083041  0.712072  0  4.455712  0
N  N73  1  0.09483063  0.18858025  0.80901688  1  0.838644  0  0.083087  0.726087  0  4.435951  0
N  N74  1  0.86777473  0.87639861  0.84614114  1  -0.614025  0  -0.09517  0.377285  0  3.91746  0
N  N75  1  0.13222341  0.12360073  0.15385906  1  -0.614019  0  -0.095153  0.377321  0  3.917321  0
N  N76  1  0.36856957  0.24793422  0.26974244  1  -0.664181  0  -0.115853  0.337698  0  3.954406  0
N  N77  1  0.63142956  0.75206826  0.73025818  1  -0.664172  0  -0.115839  0.337723  0  3.954373  0
N  N78  1  0.68860213  0.06843503  0.34876605  1  0.83578  0  0.081775  0.721498  0  4.430766  0
N  N79  1  0.31139908  0.93156431  0.65123291  1  0.835787  0  0.081838  0.721553  0  4.430775  0
O  O80  1  0.52476840  0.88901892  0.06566110  1  -0.683698  0  -0.320944  -0.613791  0  2.191619  0
O  O81  1  0.47523041  0.11098147  0.93433891  1  -0.683607  0  -0.320965  -0.613796  0  2.191556  0
O  O82  1  0.84024577  0.17904802  0.03569065  1  -0.512183  0  -0.194288  -0.439796  0  2.051604  0
O  O83  1  0.15975544  0.82095132  0.96430831  1  -0.512349  0  -0.194298  -0.439861  0  2.051543  0
O  O84  1  0.61142927  0.29271455  0.02629174  1  -0.603414  0  -0.261362  -0.545131  0  2.063623  0
O  O85  1  0.38857265  0.70728270  0.97370736  1  -0.603428  0  -0.261355  -0.545128  0  2.063548  0
O  O86  1  0.76992028  0.40604505  0.98593648  1  -0.51119  0  -0.157392  -0.392085  0  1.966931  0
O  O87  1  0.23007991  0.59395429  0.01406613  1  -0.51085  0  -0.157414  -0.39214  0  1.966941  0
O  O88  1  0.90416574  0.93743585  0.16970023  1  -0.543818  0  -0.216615  -0.477774  0  2.110683  0
O  O89  1  0.09583480  0.06256244  0.83029892  1  -0.543908  0  -0.216643  -0.482502  0  2.105273  0
O  O90  1  0.80324394  0.78237856  0.15195308  1  -0.5968  0  -0.230293  -0.531135  0  2.107361  0
O  O91  1  0.19675558  0.21761973  0.84804620  1  -0.596762  0  -0.230276  -0.535743  0  2.102042  0
O  O92  1  0.99724360  0.72174853  0.24825981  1  -0.512166  0  -0.160712  -0.39854  0  1.986463  0
O  O93  1  0.00275694  0.27824976  0.75174022  1  -0.512141  0  -0.160756  -0.403317  0  1.980657  0
O  O94  1  0.78816194  0.97655399  0.91260912  1  -0.656165  0  -0.311578  -0.569648  0  2.153132  0
O  O95  1  0.21183519  0.02344534  0.08739033  1  -0.65617  0  -0.311597  -0.569672  0  2.152998  0
O  O96  1  0.42436099  0.15063976  0.19349180  1  -0.66718  0  -0.304557  -0.582827  0  2.160325  0
O  O97  1  0.57563850  0.84936167  0.80650890  1  -0.667212  0  -0.304571  -0.582833  0  2.160303  0
O  O98  1  0.65491682  0.96685218  0.31913594  1  -0.572929  0  -0.224712  -0.511976  0  2.075481  0
O  O99  1  0.34508336  0.03314715  0.68086402  1  -0.572919  0  -0.224768  -0.512053  0  2.075655  0
O  O100  1  0.68576098  0.16948648  0.26943310  1  -0.561628  0  -0.220514  -0.505862  0  2.058254  0
O  O101  1  0.31424059  0.83051181  0.73056505  1  -0.561638  0  -0.220497  -0.505838  0  2.058217  0
O  O102  1  0.72366378  0.06745312  0.45041409  1  -0.526961  0  -0.165637  -0.40295  0  1.95635  0
O  O103  1  0.27633809  0.93254726  0.54958380  1  -0.526993  0  -0.165655  -0.402948  0  1.956361  0
