# generated using pymatgen
data_FeH16Au2(C14N3)2
_symmetry_space_group_name_H-M   'P 1'
_cell_length_a   11.16842375
_cell_length_b   15.86549092
_cell_length_c   16.86917680
_cell_angle_alpha   89.99041817
_cell_angle_beta   90.85678209
_cell_angle_gamma   89.98376066
_symmetry_Int_Tables_number   1
_chemical_formula_structural   FeH16Au2(C14N3)2
_chemical_formula_sum   'Fe4 H64 Au8 C112 N24'
_cell_volume   2988.75768570
_cell_formula_units_Z   4
loop_
 _symmetry_equiv_pos_site_id
 _symmetry_equiv_pos_as_xyz
  1  'x, y, z'
loop_
 _atom_site_type_symbol
 _atom_site_label
 _atom_site_symmetry_multiplicity
 _atom_site_fract_x
 _atom_site_fract_y
 _atom_site_fract_z
 _atom_site_occupancy
 _atom_site_pbe_bader_charge
 _atom_site_pbe_bader_spin_density
 _atom_site_pbe_cm5_charge
 _atom_site_pbe_ddec_charge
 _atom_site_pbe_ddec_spin_density
 _atom_site_pbe_ddec_sum_bond_order
 _atom_site_pbe_magmom
Fe  Fe0  1  0.99995926  0.41910834  0.25000332  1  1.294188  1.884762  0.824916  0.677958  2.018081  3.508361  1.865
Fe  Fe1  1  0.00035540  0.58014605  0.75000790  1  1.430293  3.591549  0.79152  0.804131  3.831145  2.964563  3.567
Fe  Fe2  1  0.50000458  0.35043123  0.75000372  1  1.430718  3.619685  0.771066  0.810295  3.85389  2.852464  3.591
Fe  Fe3  1  0.49952673  0.65141319  0.24952032  1  1.434323  3.594678  0.796954  0.827956  3.837728  2.958226  3.565
H  H4  1  0.15618461  0.56519560  0.31767035  1  0.113908  0.001606  0.112807  0.080545  0.000247  1.038256  0.001
H  H5  1  0.84386610  0.56523315  0.18226284  1  0.113884  0.001588  0.112608  0.080371  0.00024  1.038928  0.001
H  H6  1  0.84337524  0.43514796  0.68301232  1  0.125566  0.001749  0.112132  0.080822  0.000362  1.04368  0.001
H  H7  1  0.15681789  0.43498499  0.81707162  1  0.12657  0.001737  0.112152  0.08038  0.000359  1.044371  0.001
H  H8  1  0.16436966  0.72190457  0.31938952  1  0.090149  0.001013  0.10778  0.121118  0.000283  1.002492  0.0
H  H9  1  0.83545898  0.72195730  0.18063961  1  0.088184  0.000997  0.10794  0.121229  0.000258  1.002472  0.0
H  H10  1  0.83523769  0.27878378  0.68112029  1  0.091199  0.000966  0.106628  0.119325  0.000315  1.007722  0.0
H  H11  1  0.16484316  0.27862265  0.81893809  1  0.089177  0.000971  0.10655  0.119133  0.000316  1.0076  0.0
H  H12  1  0.89717253  0.75938138  0.38010308  1  0.039535  -0.000237  0.094808  0.093563  -0.000313  1.050976  0.0
H  H13  1  0.10270383  0.75935557  0.11995118  1  0.039789  2.2e-05  0.095316  0.094563  -2.7e-05  1.048906  0.0
H  H14  1  0.10269740  0.23985033  0.62030696  1  0.047274  -9.6e-05  0.096153  0.096242  -0.000136  1.042994  0.0
H  H15  1  0.89730561  0.23985791  0.87970085  1  0.047145  -9.8e-05  0.096159  0.096273  -0.000136  1.043067  0.0
H  H16  1  0.81221733  0.83732201  0.49188756  1  0.099979  -0.000121  0.097722  0.095459  -0.00014  1.021314  0.0
H  H17  1  0.18777524  0.83728278  0.00817690  1  0.100347  -0.000114  0.098072  0.096126  -0.000135  1.020597  0.0
H  H18  1  0.18763530  0.16221667  0.50831428  1  0.104555  -0.000102  0.097252  0.095023  -0.00013  1.023303  0.0
H  H19  1  0.81234100  0.16222314  0.99169209  1  0.104917  -0.000103  0.097154  0.094842  -0.000131  1.023288  0.0
H  H20  1  0.81528698  0.99514840  0.49336253  1  0.052789  -7e-06  0.103052  0.102597  -5e-06  0.990458  0.0
H  H21  1  0.18471653  0.99510437  0.00667867  1  0.054182  -4e-06  0.103088  0.102745  -3e-06  0.990315  0.0
H  H22  1  0.18482700  0.00433795  0.50673409  1  0.049914  3e-06  0.102406  0.101348  5e-06  0.991329  0.0
H  H23  1  0.81514453  0.00434484  0.99328136  1  0.050017  2e-06  0.102449  0.101421  5e-06  0.991236  0.0
H  H24  1  0.90123512  0.07396109  0.38211253  1  0.029598  -8e-06  0.101182  0.10505  -1.8e-05  1.012841  0.0
H  H25  1  0.09878405  0.07393265  0.11792056  1  0.029377  -8e-06  0.101091  0.104705  -1.8e-05  1.012671  0.0
H  H26  1  0.09920748  0.92532481  0.61788756  1  0.088122  -0.000105  0.101171  0.104982  -0.000134  1.012842  0.0
H  H27  1  0.90076275  0.92532875  0.88213256  1  0.08795  -0.000107  0.101068  0.104926  -0.000137  1.012842  0.0
H  H28  1  0.18370338  0.11135728  0.29226866  1  0.088971  0.001035  0.108628  0.119944  0.000368  0.996615  0.0
H  H29  1  0.81632909  0.11139390  0.20774728  1  0.090396  0.001034  0.108555  0.119847  0.000368  0.996882  0.0
H  H30  1  0.81597734  0.88529964  0.70851991  1  0.069512  0.000934  0.108383  0.11967  0.000395  0.997996  0.0
H  H31  1  0.18401478  0.88534504  0.79152804  1  0.068981  0.00093  0.108478  0.119797  0.000393  0.997915  0.0
H  H32  1  0.17437809  0.26891333  0.29284305  1  0.09641  0.001605  0.115487  0.081366  0.000353  1.024896  0.001
H  H33  1  0.82555571  0.26894756  0.20719410  1  0.094573  0.001606  0.11557  0.081385  0.000351  1.025301  0.001
H  H34  1  0.82541178  0.72856617  0.70749198  1  0.123353  0.001477  0.114869  0.082444  0.000228  1.026229  0.001
H  H35  1  0.17481138  0.72861134  0.79255434  1  0.120395  0.001496  0.115021  0.082209  0.000245  1.026377  0.001
H  H36  1  0.68542055  0.49500988  0.74728979  1  0.109889  0.001853  0.115555  0.08792  0.000476  1.016496  0.001
H  H37  1  0.31470295  0.49506265  0.75274036  1  0.110717  0.001853  0.115582  0.088098  0.000477  1.016974  0.001
H  H38  1  0.31489784  0.50589145  0.25314044  1  0.122696  0.001748  0.118191  0.089816  0.000408  1.014485  0.001
H  H39  1  0.68537801  0.50551050  0.24554140  1  0.11473  0.001934  0.118233  0.090019  0.000619  1.013805  0.001
H  H40  1  0.69304528  0.65052720  0.74678700  1  0.092465  0.000995  0.10344  0.112335  0.000382  1.042925  0.0
H  H41  1  0.30705016  0.65057258  0.75325856  1  0.09296  0.000988  0.103288  0.111998  0.000374  1.043146  0.0
H  H42  1  0.30708242  0.34992148  0.25483907  1  0.102587  0.001144  0.105192  0.114567  0.000371  1.038592  0.0
H  H43  1  0.69286403  0.34960286  0.24517759  1  0.09821  0.001135  0.105213  0.114552  0.000363  1.038625  0.0
H  H44  1  0.46445892  0.69189627  0.89583375  1  0.091033  -0.000298  0.095591  0.096135  -0.000382  1.039369  0.0
H  H45  1  0.53540316  0.69190000  0.60422288  1  0.091284  -0.000281  0.095818  0.096428  -0.000367  1.039061  0.0
H  H46  1  0.53552076  0.30882364  0.10373559  1  0.074248  -6.6e-05  0.093956  0.094197  -7e-05  1.044887  0.0
H  H47  1  0.46427653  0.30878897  0.39626718  1  0.075144  -7.1e-05  0.093943  0.094369  -7.2e-05  1.04395  0.0
H  H48  1  0.42658135  0.76990751  0.01869187  1  0.082857  -0.000193  0.098123  0.1027  -0.000289  1.011305  0.0
H  H49  1  0.57322883  0.76992492  0.48134967  1  0.082671  -6.2e-05  0.097895  0.102471  -0.000112  1.011111  0.0
H  H50  1  0.57308239  0.23042351  0.98116027  1  0.087887  -4e-06  0.09831  0.102963  -7.6e-05  1.012523  0.0
H  H51  1  0.42676599  0.23033419  0.51884876  1  0.087102  -6e-06  0.098349  0.103292  -7.7e-05  1.01244  0.0
H  H52  1  0.41421748  0.92763803  0.01691399  1  0.062683  -1e-05  0.096771  0.092296  -2e-06  1.02337  0.0
H  H53  1  0.58574883  0.92763689  0.48311461  1  0.062813  -5e-06  0.09675  0.092378  -0.0  1.023274  0.0
H  H54  1  0.58531717  0.07278817  0.98311051  1  0.070867  -1e-05  0.098536  0.095293  -6e-06  1.019587  0.0
H  H55  1  0.41460933  0.07270036  0.51687898  1  0.070146  -1e-05  0.098409  0.095226  -6e-06  1.019874  0.0
H  H56  1  0.44723802  0.00602911  0.89317368  1  0.038191  -0.000122  0.096107  0.095235  -0.000154  1.03555  0.0
H  H57  1  0.55278210  0.00602389  0.60684533  1  0.038114  -0.000121  0.096101  0.095198  -0.000152  1.0356  0.0
H  H58  1  0.55262446  0.99467563  0.10705302  1  0.051234  2.1e-05  0.096637  0.095289  3e-06  1.034889  0.0
H  H59  1  0.44758776  0.99463293  0.39297699  1  0.050549  2.3e-05  0.096582  0.095059  3e-06  1.035136  0.0
H  H60  1  0.68624158  0.04731575  0.78679335  1  0.055966  0.000893  0.104237  0.114564  0.000387  1.023309  0.0
H  H61  1  0.31376091  0.04736312  0.71322848  1  0.056577  0.000893  0.104298  0.114873  0.000387  1.023095  0.0
H  H62  1  0.31372818  0.95525907  0.21345337  1  0.091874  0.000957  0.105194  0.115388  0.000322  1.022387  0.0
H  H63  1  0.68650269  0.95474339  0.28665537  1  0.095216  0.000958  0.105476  0.115385  0.000328  1.02264  0.0
H  H64  1  0.67843892  0.20422012  0.78499509  1  0.118797  0.001759  0.113733  0.083853  0.000446  1.024854  0.001
H  H65  1  0.32150686  0.20426436  0.71500680  1  0.117902  0.001757  0.113763  0.08391  0.000444  1.024653  0.001
H  H66  1  0.32117316  0.79774771  0.21584425  1  0.125273  0.001951  0.116844  0.088716  0.000649  1.024736  0.001
H  H67  1  0.67802842  0.79720372  0.28491862  1  0.127436  0.001762  0.116293  0.087013  0.000476  1.025758  0.001
Au  Au68  1  0.73251291  0.39542273  0.48817310  1  0.260485  0.004935  0.262054  0.018283  0.006548  2.825936  0.007
Au  Au69  1  0.26746572  0.39518608  0.01189637  1  0.26196  0.005241  0.26191  0.018187  0.006894  2.830793  0.007
Au  Au70  1  0.26992636  0.60297022  0.50745392  1  0.255047  0.005541  0.265607  0.014872  0.00664  2.886902  0.008
Au  Au71  1  0.73000105  0.60302445  0.99220166  1  0.256177  0.005408  0.265861  0.014701  0.006704  2.888074  0.008
Au  Au72  1  0.76500357  0.39446346  0.99734001  1  0.254601  -0.000804  0.269184  0.026961  -0.000289  2.872817  0.003
Au  Au73  1  0.23503411  0.39448514  0.50264992  1  0.254679  -0.000747  0.26923  0.027037  -0.000227  2.873327  0.003
Au  Au74  1  0.23170725  0.60342770  0.01264334  1  0.254089  0.005798  0.278396  0.032973  0.007085  2.913689  0.009
Au  Au75  1  0.76979511  0.60453901  0.48736244  1  0.254221  0.005456  0.278812  0.032845  0.007055  2.910276  0.009
C  C76  1  0.08740967  0.60230010  0.28749109  1  0.442872  0.002684  0.052505  0.106924  0.000858  3.935269  0.001
C  C77  1  0.91253884  0.60232995  0.21250557  1  0.442428  0.002677  0.052206  0.10575  0.000875  3.937058  0.001
C  C78  1  0.91246416  0.39814052  0.71297697  1  0.406137  -0.003805  0.049035  0.10753  -0.004869  3.930233  -0.002
C  C79  1  0.08772231  0.39805524  0.78708851  1  0.412662  -0.003886  0.049097  0.108009  -0.00492  3.930808  -0.002
C  C80  1  0.09102729  0.68972081  0.28878328  1  -0.050083  0.001986  -0.08148  -0.173168  0.000836  3.933571  0.001
C  C81  1  0.90880381  0.68974658  0.21126047  1  0.004356  0.001956  -0.081372  -0.173119  0.000794  3.934361  0.001
C  C82  1  0.90886914  0.31063912  0.71170567  1  0.014901  0.004061  -0.082796  -0.174752  0.00164  3.936694  0.003
C  C83  1  0.09124433  0.31054787  0.78834190  1  0.014098  0.004115  -0.082469  -0.173985  0.001668  3.936605  0.003
C  C84  1  0.99990350  0.73476199  0.25002769  1  0.086386  0.002378  0.012219  0.118578  0.001069  4.019066  0.001
C  C85  1  0.00004697  0.26509878  0.75001995  1  0.035964  -0.006658  0.010438  0.114986  -0.007265  4.016989  -0.004
C  C86  1  0.99992566  0.82798570  0.25001685  1  -0.062121  0.000198  -0.002688  -0.029357  9.2e-05  3.94611  0.0
C  C87  1  0.00000944  0.17158135  0.75000998  1  -0.074978  -0.000166  -0.001093  -0.026708  -0.000318  3.938058  0.0
C  C88  1  0.94972794  0.87135899  0.31442585  1  -0.115251  0.000103  -0.007966  0.030907  4.9e-05  3.993703  0.0
C  C89  1  0.05018069  0.87133637  0.18560901  1  -0.085036  0.00011  -0.007786  0.030845  4.1e-05  3.993451  0.0
C  C90  1  0.05022164  0.12781096  0.68579317  1  0.010495  -0.000299  -0.007615  0.03117  -0.000321  3.987227  0.0
C  C91  1  0.94977228  0.12781029  0.81421996  1  0.010071  -0.000298  -0.007733  0.031119  -0.000319  3.987176  0.0
C  C92  1  0.89838362  0.82805863  0.38002088  1  0.111481  -3.6e-05  -0.09163  -0.126156  -0.000104  3.979491  0.0
C  C93  1  0.10153012  0.82802737  0.12002149  1  0.080233  0.000131  -0.091726  -0.12601  3.2e-05  3.978911  0.0
C  C94  1  0.10159392  0.17116427  0.62022082  1  -0.120287  -0.0001  -0.091996  -0.127589  -0.000172  3.980916  0.0
C  C95  1  0.89840211  0.17116531  0.87979373  1  -0.120685  -0.000101  -0.09199  -0.127721  -0.000173  3.980893  0.0
C  C96  1  0.85096790  0.87165997  0.44248873  1  -0.090059  -2.9e-05  -0.093439  -0.083281  -5.9e-05  4.017781  0.0
C  C97  1  0.14899717  0.87162030  0.05756181  1  -0.089747  -2e-06  -0.093249  -0.08346  -4.7e-05  4.017106  0.0
C  C98  1  0.14901409  0.12773437  0.55766050  1  -0.101347  -0.000108  -0.094287  -0.08464  -0.00014  4.023116  0.0
C  C99  1  0.85096908  0.12773940  0.94234843  1  -0.101467  -0.000111  -0.094213  -0.084331  -0.000143  4.022747  0.0
C  C100  1  0.85219891  0.96125867  0.44305232  1  -0.142714  3.6e-05  -0.091517  -0.080046  2.5e-05  4.029221  0.0
C  C101  1  0.14779334  0.96122122  0.05699479  1  -0.14136  3.5e-05  -0.091524  -0.080307  2.3e-05  4.029129  0.0
C  C102  1  0.14789729  0.03816781  0.55705605  1  -0.028158  -5.5e-05  -0.092551  -0.080226  -3.9e-05  4.032041  0.0
C  C103  1  0.85207932  0.03817125  0.94295997  1  -0.028413  -5.5e-05  -0.092628  -0.080634  -3.9e-05  4.03193  0.0
C  C104  1  0.90011496  0.00530096  0.38095212  1  0.005336  2.2e-05  -0.094701  -0.138302  -1.3e-05  3.995014  0.0
C  C105  1  0.09988557  0.00527336  0.11908585  1  0.003926  5.5e-05  -0.094585  -0.137665  1.4e-05  3.994416  0.0
C  C106  1  0.10010993  0.99399314  0.61912795  1  -0.007027  -7.5e-05  -0.094364  -0.137628  -0.000144  3.995696  0.0
C  C107  1  0.89986013  0.99399307  0.88088599  1  -0.007153  -7.8e-05  -0.094123  -0.137215  -0.000148  3.995683  0.0
C  C108  1  0.94990773  0.96236969  0.31455657  1  0.08445  3.1e-05  -0.009152  0.029145  -1.2e-05  4.009693  0.0
C  C109  1  0.05007235  0.96235091  0.18548260  1  0.086886  4.2e-05  -0.009274  0.028575  -5e-06  4.009544  0.0
C  C110  1  0.05010990  0.03658028  0.68565752  1  0.026941  -0.000507  -0.009178  0.028692  -0.000565  4.00329  0.0
C  C111  1  0.94984761  0.03658208  0.81435391  1  0.027433  -0.000501  -0.009384  0.028383  -0.000558  4.003773  0.0
C  C112  1  0.00000988  0.00570026  0.25001991  1  -0.061503  5.3e-05  -0.008988  -0.047004  -3.9e-05  3.967712  0.0
C  C113  1  0.99996663  0.99264591  0.75000370  1  0.011135  -0.000139  -0.007298  -0.044511  -0.000532  3.952707  0.0
C  C114  1  0.00001775  0.09886221  0.25001136  1  -0.086003  -0.001013  0.01421  0.122892  -0.001175  4.031393  -0.001
C  C115  1  0.99998542  0.89903191  0.75001543  1  -0.047451  -0.013305  0.012643  0.119583  -0.014356  4.017958  -0.009
C  C116  1  0.10214312  0.14404428  0.27348715  1  0.062155  0.002441  -0.081358  -0.180154  0.001156  3.941186  0.002
C  C117  1  0.89785910  0.14407015  0.22653173  1  0.061361  0.002443  -0.081398  -0.180122  0.001156  3.94157  0.002
C  C118  1  0.89806339  0.85313577  0.72705360  1  -0.010502  0.00493  -0.082173  -0.179225  0.001773  3.940664  0.004
C  C119  1  0.10197765  0.85315792  0.77299915  1  -0.011022  0.004865  -0.082376  -0.179766  0.00174  3.940581  0.004
C  C120  1  0.09772131  0.23154598  0.27316886  1  0.434671  0.000263  0.053678  0.103939  -0.00088  3.950762  0.0
C  C121  1  0.90222858  0.23156462  0.22687196  1  0.436757  0.00026  0.053615  0.103879  -0.000886  3.951386  0.0
C  C122  1  0.90242463  0.76552126  0.72721920  1  0.438639  -0.008009  0.049543  0.103346  -0.009128  3.941072  -0.005
C  C123  1  0.09774866  0.76555249  0.77283282  1  0.440949  -0.007925  0.0496  0.104208  -0.009044  3.941513  -0.005
C  C124  1  0.81728806  0.41035059  0.38775327  1  0.828418  0.017367  0.007526  0.068732  0.008224  3.921002  0.016
C  C125  1  0.18258034  0.41006948  0.11228417  1  0.82591  0.017349  0.007572  0.068565  0.008136  3.921165  0.016
C  C126  1  0.18504575  0.58663312  0.60675583  1  0.830651  0.02296  0.00397  0.083226  0.012554  3.96359  0.023
C  C127  1  0.81533143  0.58670634  0.89307503  1  0.834387  0.022645  0.004022  0.083081  0.012426  3.963353  0.023
C  C128  1  0.60309245  0.53164467  0.74795013  1  0.455714  -0.00839  0.047447  0.109949  -0.009518  3.922554  -0.005
C  C129  1  0.39702619  0.53167173  0.75209669  1  0.45572  -0.008398  0.04731  0.109431  -0.009528  3.922772  -0.005
C  C130  1  0.39696283  0.46895226  0.25230375  1  0.434906  0.003313  0.052496  0.111579  0.0013  3.918197  0.002
C  C131  1  0.60320125  0.46876018  0.24669987  1  0.404415  0.003351  0.051817  0.111712  0.001409  3.918052  0.002
C  C132  1  0.60670611  0.61917646  0.74763400  1  0.041582  0.006077  -0.085691  -0.174235  0.002311  3.941357  0.005
C  C133  1  0.39339773  0.61920544  0.75242608  1  0.041655  0.006069  -0.085437  -0.173407  0.002305  3.940664  0.005
C  C134  1  0.39328394  0.38140531  0.25318802  1  0.052654  0.002321  -0.083234  -0.174803  0.000912  3.937725  0.002
C  C135  1  0.60672850  0.38123402  0.24655130  1  0.053245  0.002392  -0.083393  -0.175738  0.000907  3.939366  0.002
C  C136  1  0.50004039  0.66526043  0.75003580  1  -0.021827  -0.012755  0.009051  0.112582  -0.01386  4.003664  -0.008
C  C137  1  0.49995250  0.33542666  0.24997171  1  -0.035259  0.002036  0.014662  0.12287  0.000861  3.993404  0.001
C  C138  1  0.50001777  0.75904197  0.75003532  1  -0.056243  3.3e-05  2.3e-05  -0.022239  -0.000349  3.918431  0.0
C  C139  1  0.49995493  0.24172076  0.25001534  1  -0.102282  0.00013  -0.002012  -0.024713  7.3e-05  3.913567  0.0
C  C140  1  0.47866323  0.80332068  0.82112763  1  0.004687  -0.000716  -0.00755  0.032398  -0.000744  3.973729  -0.001
C  C141  1  0.52134432  0.80332088  0.67892574  1  0.003271  -0.000723  -0.006927  0.033103  -0.000755  3.973013  -0.001
C  C142  1  0.52147322  0.19762357  0.17882257  1  0.017875  0.00012  -0.00704  0.033249  5.4e-05  3.97362  0.0
C  C143  1  0.47855483  0.19759564  0.32120808  1  0.010741  0.000138  -0.00696  0.033043  6.5e-05  3.974015  0.0
C  C144  1  0.46042287  0.76052056  0.89464061  1  -0.085884  -0.000206  -0.092238  -0.129008  -0.000359  3.989031  0.0
C  C145  1  0.53951073  0.76051949  0.60541441  1  -0.08629  -0.000208  -0.092716  -0.1297  -0.000367  3.989145  0.0
C  C146  1  0.53950932  0.24021824  0.10520294  1  -0.051449  -4.7e-05  -0.093084  -0.131334  -0.0001  3.991755  0.0
C  C147  1  0.46039295  0.24017264  0.39481193  1  -0.044983  -6.8e-05  -0.092675  -0.130631  -0.000113  3.991038  0.0
C  C148  1  0.43908029  0.80412443  0.96334875  1  0.004919  -0.000336  -0.095681  -0.085901  -0.000397  4.023948  0.0
C  C149  1  0.56082297  0.80413070  0.53669500  1  0.005386  -0.000233  -0.095547  -0.085623  -0.000269  4.02391  0.0
C  C150  1  0.56067998  0.19638243  0.03658217  1  -0.048151  -8.1e-05  -0.094335  -0.082915  -0.000117  4.019221  0.0
C  C151  1  0.43923558  0.19631056  0.46343027  1  -0.045243  -7.4e-05  -0.094803  -0.084264  -0.000111  4.020999  0.0
C  C152  1  0.43333486  0.89358150  0.96240334  1  -0.074085  -1.7e-05  -0.09494  -0.077992  5e-06  4.02548  0.0
C  C153  1  0.56663049  0.89357764  0.53763069  1  -0.073177  -1.1e-05  -0.094905  -0.078143  3e-06  4.025112  0.0
C  C154  1  0.56646651  0.10694047  0.03761139  1  -0.06859  -2e-05  -0.093819  -0.077328  -2.3e-05  4.019751  0.0
C  C155  1  0.43353639  0.10687182  0.46240035  1  -0.089167  -3e-05  -0.093746  -0.077072  -3.3e-05  4.019978  0.0
C  C156  1  0.45161185  0.93738844  0.89334012  1  -0.019182  -0.000233  -0.099132  -0.144008  -0.000292  4.001937  0.0
C  C157  1  0.54839120  0.93738412  0.60669130  1  -0.018522  -0.000237  -0.099058  -0.143874  -0.000298  4.001584  0.0
C  C158  1  0.54842508  0.06332448  0.10677849  1  -0.078269  6.9e-05  -0.098508  -0.142597  3e-05  4.000624  0.0
C  C159  1  0.45174968  0.06328090  0.39324947  1  -0.059796  7.9e-05  -0.098339  -0.14202  3.7e-05  4.000242  0.0
C  C160  1  0.47675561  0.89471864  0.82078412  1  -0.111314  -0.000535  -0.009247  0.032966  -0.000573  3.993972  0.0
C  C161  1  0.52325409  0.89471777  0.67925413  1  -0.111613  -0.000533  -0.009438  0.032895  -0.000572  3.993797  0.0
C  C162  1  0.52351999  0.10630879  0.17920598  1  0.041505  9.8e-05  -0.009003  0.032554  3.4e-05  3.998566  0.0
C  C163  1  0.47672973  0.10628447  0.32084104  1  0.040591  0.000108  -0.009211  0.031971  4.6e-05  3.999527  0.0
C  C164  1  0.50001151  0.93904334  0.75001801  1  0.049701  -0.00061  -0.007905  -0.045079  -0.000971  3.938717  0.0
C  C165  1  0.50021627  0.06231878  0.25003405  1  -0.122759  0.000244  -0.008425  -0.044958  9.7e-05  3.946084  0.0
C  C166  1  0.50000098  0.03310981  0.75000878  1  -0.016714  -0.015702  0.012227  0.120732  -0.01696  3.994908  -0.01
C  C167  1  0.50016161  0.96851326  0.25006660  1  0.065456  0.002232  0.016343  0.12592  0.000943  3.999918  0.001
C  C168  1  0.60316388  0.07931253  0.77015284  1  -0.020166  0.005525  -0.085133  -0.182262  0.001944  3.93311  0.004
C  C169  1  0.39682108  0.07933915  0.72986143  1  -0.019882  0.005528  -0.085175  -0.182597  0.001945  3.93308  0.004
C  C170  1  0.39652196  0.92291188  0.23007986  1  -0.001434  0.00164  -0.082058  -0.179632  0.000616  3.929029  0.001
C  C171  1  0.60352097  0.92262489  0.27016810  1  0.005735  0.001697  -0.082567  -0.179442  0.000686  3.928091  0.001
C  C172  1  0.59947921  0.16707200  0.76921447  1  0.474483  -0.00956  0.046738  0.101744  -0.010746  3.931955  -0.006
C  C173  1  0.40048082  0.16709647  0.73079400  1  0.475071  -0.00956  0.046745  0.101846  -0.010748  3.93177  -0.006
C  C174  1  0.39993054  0.83523687  0.23126564  1  0.404433  0.003597  0.052179  0.103727  0.001503  3.926007  0.002
C  C175  1  0.59952306  0.83493189  0.26935930  1  0.396204  0.003302  0.052907  0.104509  0.00124  3.925772  0.002
C  C176  1  0.65497662  0.37126900  0.58972892  1  0.835451  0.01281  0.003334  0.077303  0.006566  3.935691  0.015
C  C177  1  0.34509817  0.37115598  0.91034495  1  0.835853  0.012756  0.003368  0.077262  0.006527  3.935036  0.015
C  C178  1  0.35032532  0.63074512  0.40865752  1  0.822211  0.008567  -0.002634  0.073369  0.001928  3.971838  0.013
C  C179  1  0.64910830  0.63049531  0.09085748  1  0.82924  0.008362  -0.001953  0.074488  0.002184  3.973481  0.013
C  C180  1  0.69144326  0.36973323  0.89328939  1  0.83952  0.024773  0.009217  0.085796  0.01329  3.914751  0.024
C  C181  1  0.30857332  0.36977599  0.60672332  1  0.839396  0.024847  0.009187  0.085923  0.013337  3.914548  0.024
C  C182  1  0.30153363  0.63111506  0.11628966  1  0.819295  0.013856  9e-06  0.077189  0.004353  3.949449  0.017
C  C183  1  0.69837417  0.63118606  0.38394761  1  0.81959  0.011189  -0.000141  0.077462  0.004501  3.951966  0.015
C  C184  1  0.84201072  0.41044098  0.10193544  1  0.80439  -0.031263  -0.007359  0.039826  -0.035625  3.927151  -0.02
C  C185  1  0.15801811  0.41041840  0.39803529  1  0.805189  -0.031106  -0.007282  0.039498  -0.03546  3.9277  -0.02
C  C186  1  0.16504419  0.58754261  0.90604400  1  0.830396  0.015677  0.002733  0.071748  0.007781  3.95858  0.018
C  C187  1  0.83645000  0.58824481  0.59388249  1  0.832582  0.015968  0.003188  0.072498  0.007953  3.958616  0.019
N  N188  1  0.49997106  0.21111943  0.75000276  1  -1.250322  0.053999  -0.318052  -0.233575  0.023951  3.52481  0.042
N  N189  1  0.49958465  0.79174094  0.25039810  1  -1.220326  0.068246  -0.314165  -0.216689  0.032884  3.495129  0.047
N  N190  1  0.99999839  0.55926650  0.24998649  1  -1.245927  0.066369  -0.310252  -0.203768  0.031204  3.502924  0.052
N  N191  1  0.00012224  0.44172993  0.75002886  1  -1.249076  0.061591  -0.319392  -0.225971  0.028338  3.521822  0.048
N  N192  1  0.50006370  0.48785149  0.75001921  1  -1.249291  0.05695  -0.322866  -0.233036  0.026244  3.542626  0.046
N  N193  1  0.50012201  0.51238373  0.24927034  1  -1.236476  0.067688  -0.316796  -0.223101  0.032127  3.499402  0.046
N  N194  1  0.99995398  0.27456254  0.25003435  1  -1.212762  0.058824  -0.302037  -0.19749  0.028658  3.48543  0.048
N  N195  1  0.00012539  0.72156748  0.75002440  1  -1.228861  0.052129  -0.312321  -0.225138  0.023941  3.506195  0.043
N  N196  1  0.64471742  0.35351814  0.83246214  1  -1.356625  0.049472  -0.361219  -0.36415  0.021764  3.348047  0.023
N  N197  1  0.35529336  0.35358490  0.66756616  1  -1.356533  0.049503  -0.361264  -0.364189  0.021784  3.347909  0.023
N  N198  1  0.35053273  0.65148189  0.17514944  1  -1.350141  0.047925  -0.373774  -0.379105  0.02034  3.414708  0.028
N  N199  1  0.64715382  0.64928783  0.32527495  1  -1.345571  0.0486  -0.371818  -0.376516  0.021282  3.415248  0.028
N  N200  1  0.89385267  0.41641007  0.16270232  1  -1.316312  -0.020192  -0.393035  -0.321761  -0.020854  3.647645  -0.011
N  N201  1  0.10611402  0.41637142  0.33729616  1  -1.317573  -0.0202  -0.392889  -0.32128  -0.020857  3.64789  -0.011
N  N202  1  0.12481371  0.58212861  0.84175030  1  -1.351268  0.052  -0.368187  -0.361604  0.023247  3.425372  0.028
N  N203  1  0.87608112  0.58211368  0.65827095  1  -1.350485  0.051618  -0.368981  -0.362479  0.023155  3.427532  0.027
N  N204  1  0.61327990  0.35501542  0.65121838  1  -1.354161  0.052191  -0.359795  -0.360659  0.023694  3.358721  0.029
N  N205  1  0.38678871  0.35502291  0.84883254  1  -1.354787  0.052211  -0.359827  -0.360666  0.023705  3.358689  0.029
N  N206  1  0.39459423  0.65073090  0.34905974  1  -1.3475  0.052641  -0.371393  -0.368262  0.023786  3.407937  0.032
N  N207  1  0.60433616  0.65023985  0.15036389  1  -1.354424  0.052115  -0.372814  -0.369709  0.023613  3.414076  0.031
N  N208  1  0.87224410  0.41587425  0.32936770  1  -1.305754  0.017389  -0.366352  -0.309355  0.004232  3.477581  -0.001
N  N209  1  0.12761922  0.41568761  0.17065578  1  -1.303455  0.017211  -0.366631  -0.309676  0.00411  3.478359  -0.001
N  N210  1  0.13245329  0.58104487  0.66593965  1  -1.333745  0.056558  -0.368761  -0.357249  0.025982  3.400968  0.029
N  N211  1  0.86825347  0.58104750  0.83403328  1  -1.336745  0.056447  -0.368486  -0.356362  0.026014  3.400501  0.029
