# generated using pymatgen
data_CoH7C6N4O3
_symmetry_space_group_name_H-M   'P 1'
_cell_length_a   12.24670651
_cell_length_b   12.24862398
_cell_length_c   15.73233224
_cell_angle_alpha   112.90035586
_cell_angle_beta   112.89949419
_cell_angle_gamma   89.99883489
_symmetry_Int_Tables_number   1
_chemical_formula_structural   CoH7C6N4O3
_chemical_formula_sum   'Co8 H56 C48 N32 O24'
_cell_volume   1970.47098457
_cell_formula_units_Z   8
loop_
 _symmetry_equiv_pos_site_id
 _symmetry_equiv_pos_as_xyz
  1  'x, y, z'
loop_
 _atom_site_type_symbol
 _atom_site_label
 _atom_site_symmetry_multiplicity
 _atom_site_fract_x
 _atom_site_fract_y
 _atom_site_fract_z
 _atom_site_occupancy
 _atom_site_pbe_bader_charge
 _atom_site_pbe_bader_spin_density
 _atom_site_pbe_cm5_charge
 _atom_site_pbe_ddec_charge
 _atom_site_pbe_ddec_spin_density
 _atom_site_pbe_ddec_sum_bond_order
 _atom_site_pbe_magmom
Co  Co0  1  0.01626819  0.50397855  0.62632487  1  1.195864  2.554326  0.682075  0.759714  2.767368  2.538551  2.515
Co  Co1  1  0.61011019  0.12244701  0.62642896  1  1.193455  2.554558  0.682175  0.761274  2.768738  2.535452  2.515
Co  Co2  1  0.12233969  0.01634125  0.62642282  1  1.196913  2.554214  0.682323  0.760866  2.768971  2.537341  2.515
Co  Co3  1  0.50410169  0.61013752  0.62647147  1  1.192156  2.55441  0.682161  0.760513  2.767037  2.537355  2.515
Co  Co4  1  0.98373476  0.49602374  0.37367459  1  1.195844  2.554324  0.682069  0.759742  2.767363  2.538548  2.515
Co  Co5  1  0.38988350  0.87755151  0.37357476  1  1.193541  2.554571  0.68221  0.761212  2.76875  2.535582  2.515
Co  Co6  1  0.87765166  0.98366204  0.37358037  1  1.196966  2.554213  0.682346  0.760863  2.768964  2.537318  2.515
Co  Co7  1  0.49589965  0.38986154  0.37352819  1  1.192258  2.554424  0.682172  0.760543  2.767069  2.537349  2.515
H  H8  1  0.81564866  0.57529026  0.83585396  1  0.101749  0.000345  0.103241  0.102041  5.5e-05  1.036587  0.0
H  H9  1  0.02054625  0.26070385  0.83610486  1  0.096732  0.000344  0.103284  0.101693  5.6e-05  1.036095  0.0
H  H10  1  0.26067675  0.81564551  0.83594879  1  0.100999  0.000342  0.103561  0.102487  5.6e-05  1.035485  0.0
H  H11  1  0.57541887  0.02041734  0.83601462  1  0.109022  0.000341  0.103504  0.10216  5.4e-05  1.036495  0.0
H  H12  1  0.18435572  0.42471039  0.16414781  1  0.101708  0.000345  0.103237  0.102044  5.5e-05  1.036555  0.0
H  H13  1  0.97946165  0.73929379  0.16389861  1  0.096732  0.000344  0.103278  0.101661  5.6e-05  1.036074  0.0
H  H14  1  0.73931974  0.18435641  0.16404695  1  0.101063  0.000342  0.103558  0.102497  5.6e-05  1.035539  0.0
H  H15  1  0.42457689  0.97957795  0.16398309  1  0.108955  0.000341  0.10346  0.102079  5.4e-05  1.036446  0.0
H  H16  1  0.20156372  0.67623969  0.99997124  1  0.091969  0.000551  0.102206  0.102594  0.000265  1.037277  0.0
H  H17  1  0.79844123  0.32376080  0.00003020  1  0.091968  0.000551  0.1022  0.10258  0.000265  1.037283  0.0
H  H18  1  0.32395347  0.20154069  0.99995849  1  0.093221  0.000555  0.102349  0.102517  0.000266  1.03758  0.0
H  H19  1  0.67605167  0.79846027  0.00004583  1  0.093221  0.000555  0.102342  0.102517  0.000266  1.037566  0.0
H  H20  1  0.25910755  0.55122912  0.44378787  1  0.140414  0.001113  0.139067  0.109122  6.2e-05  1.007237  0.001
H  H21  1  0.18476579  0.89264979  0.44377425  1  0.152658  0.001104  0.139368  0.109441  6.2e-05  1.007356  0.001
H  H22  1  0.89259727  0.25898298  0.44362547  1  0.147699  0.001108  0.138992  0.108359  6.1e-05  1.008332  0.001
H  H23  1  0.55113205  0.18486229  0.44372243  1  0.146622  0.001108  0.139086  0.108729  6.3e-05  1.00834  0.001
H  H24  1  0.74089597  0.44877300  0.55621126  1  0.140434  0.001112  0.139073  0.109119  6.2e-05  1.007254  0.001
H  H25  1  0.81522808  0.10735139  0.55622964  1  0.152741  0.001104  0.139345  0.109432  6.2e-05  1.007376  0.001
H  H26  1  0.10739544  0.74101267  0.55637099  1  0.147685  0.001108  0.139013  0.108357  6e-05  1.008374  0.001
H  H27  1  0.44886180  0.81513705  0.55627607  1  0.146609  0.001109  0.139069  0.108703  6.3e-05  1.008351  0.001
H  H28  1  0.79721542  0.64632956  0.99981653  1  0.042716  0.000192  0.103299  0.105743  5.6e-05  0.991279  0.0
H  H29  1  0.20278835  0.35367319  0.00018643  1  0.042638  0.000192  0.103374  0.105846  5.6e-05  0.991296  0.0
H  H30  1  0.35355601  0.79729394  0.99996699  1  0.047669  0.000192  0.10327  0.105379  5.6e-05  0.991379  0.0
H  H31  1  0.64643887  0.20270476  0.00002894  1  0.047682  0.000192  0.103259  0.105354  5.6e-05  0.991403  0.0
H  H32  1  0.26796295  0.59200407  0.78983122  1  0.499039  -5.1e-05  0.304599  0.325434  3.2e-05  0.989959  0.0
H  H33  1  0.52185027  0.19776045  0.78981117  1  0.521647  -7e-05  0.305026  0.325643  3.3e-05  0.98951  0.0
H  H34  1  0.19767999  0.26790885  0.78970405  1  0.509701  -6.1e-05  0.304978  0.325421  3.2e-05  0.990446  0.0
H  H35  1  0.59202591  0.52185801  0.78983008  1  0.496944  -5.2e-05  0.304959  0.325495  3.3e-05  0.988867  0.0
H  H36  1  0.73203529  0.40799945  0.21016536  1  0.499103  -5.1e-05  0.304592  0.325408  3.2e-05  0.989886  0.0
H  H37  1  0.47814571  0.80223961  0.21018855  1  0.521632  -7e-05  0.304987  0.32562  3.3e-05  0.989518  0.0
H  H38  1  0.80231443  0.73208849  0.21028874  1  0.509651  -6.1e-05  0.304956  0.325392  3.2e-05  0.990506  0.0
H  H39  1  0.40797529  0.47814048  0.21017122  1  0.496935  -5.2e-05  0.304972  0.325525  3.3e-05  0.988831  0.0
H  H40  1  0.41188619  0.62841319  0.79464034  1  0.521932  0.000123  0.301666  0.321925  7.2e-05  0.989063  0.0
H  H41  1  0.38268918  0.16628473  0.79460464  1  0.494418  0.000122  0.30213  0.322865  7e-05  0.987867  0.0
H  H42  1  0.16616714  0.41182746  0.79448389  1  0.510514  0.000115  0.302041  0.322697  7.2e-05  0.989188  0.0
H  H43  1  0.62838879  0.38272690  0.79461187  1  0.502156  0.000123  0.302158  0.322691  7.1e-05  0.987507  0.0
H  H44  1  0.58811430  0.37158734  0.20535668  1  0.521926  0.000123  0.301677  0.321922  7.2e-05  0.989019  0.0
H  H45  1  0.61730663  0.83371669  0.20539759  1  0.494494  0.000122  0.302143  0.322896  7e-05  0.987914  0.0
H  H46  1  0.83382567  0.58817507  0.20550641  1  0.510897  0.000115  0.302059  0.322745  7.2e-05  0.989133  0.0
H  H47  1  0.37161143  0.61727055  0.20538758  1  0.502159  0.000123  0.302153  0.322697  7.1e-05  0.987549  0.0
H  H48  1  0.07209677  0.80039695  0.70150912  1  0.626959  0.00131  0.284388  0.37196  0.000559  0.971311  0.001
H  H49  1  0.62934110  0.90110116  0.70148038  1  0.630193  0.001329  0.284132  0.372164  0.000567  0.970814  0.001
H  H50  1  0.90117326  0.07208892  0.70150046  1  0.640817  0.001288  0.284508  0.372502  0.000562  0.970496  0.001
H  H51  1  0.80046160  0.62937324  0.70147504  1  0.647034  0.001267  0.284615  0.37284  0.000561  0.970105  0.001
H  H52  1  0.92790582  0.19960185  0.29849536  1  0.626929  0.00131  0.284406  0.371945  0.000559  0.971323  0.001
H  H53  1  0.37065405  0.09889843  0.29851583  1  0.630167  0.001329  0.284128  0.372137  0.000566  0.970854  0.001
H  H54  1  0.09883695  0.92791454  0.29849814  1  0.643237  0.001279  0.284509  0.372412  0.000561  0.970604  0.001
H  H55  1  0.19954505  0.37063273  0.29852899  1  0.647012  0.001268  0.284648  0.372876  0.000562  0.970069  0.001
H  H56  1  0.96078557  0.74309300  0.70759387  1  0.578738  0.000432  0.297854  0.367801  8.9e-05  0.943452  0.0
H  H57  1  0.74668198  0.96437414  0.70741966  1  0.611542  0.000417  0.298035  0.368358  9.2e-05  0.946156  0.0
H  H58  1  0.96448113  0.96075591  0.70758529  1  0.575401  0.000434  0.298023  0.368157  9.2e-05  0.944008  0.0
H  H59  1  0.74308727  0.74671977  0.70759639  1  0.572284  0.000418  0.298187  0.368452  8.6e-05  0.945358  0.0
H  H60  1  0.03919674  0.25690847  0.29238960  1  0.579254  0.000432  0.297856  0.367816  8.9e-05  0.943456  0.0
H  H61  1  0.25331455  0.03562768  0.29258060  1  0.611502  0.000417  0.297997  0.368297  9.2e-05  0.946181  0.0
H  H62  1  0.03551574  0.03923916  0.29240725  1  0.575063  0.000433  0.298043  0.368161  9.1e-05  0.943972  0.0
H  H63  1  0.25691356  0.25328864  0.29243053  1  0.571711  0.00042  0.298165  0.368469  8.6e-05  0.94536  0.0
C  C64  1  0.02599005  0.58194589  0.81127115  1  1.538935  0.000613  0.2092  0.565527  -0.00038  4.185256  -0.001
C  C65  1  0.78545456  0.22942401  0.81139317  1  1.519765  0.000629  0.209299  0.565037  -0.000386  4.184597  -0.001
C  C66  1  0.22934444  0.02591962  0.81129298  1  1.527424  0.000598  0.209363  0.565224  -0.00041  4.184096  -0.001
C  C67  1  0.58203381  0.78544011  0.81139067  1  1.513971  0.000668  0.209805  0.565301  -0.000374  4.184468  -0.001
C  C68  1  0.97401484  0.41805444  0.18872933  1  1.538861  0.000614  0.209246  0.565731  -0.00038  4.185498  -0.001
C  C69  1  0.21454754  0.77057133  0.18860634  1  1.519917  0.000629  0.209353  0.565085  -0.000386  4.184578  -0.001
C  C70  1  0.77065290  0.97408084  0.18870539  1  1.527396  0.000599  0.209449  0.565328  -0.000409  4.184083  -0.001
C  C71  1  0.41796851  0.21455780  0.18861355  1  1.513866  0.000668  0.20975  0.565289  -0.000375  4.184335  -0.001
C  C72  1  0.01033834  0.62291555  0.90750111  1  -0.092435  0.00175  -0.023285  -0.050102  0.000851  4.004921  0.001
C  C73  1  0.89734215  0.28464646  0.90763827  1  0.022739  0.001706  -0.022883  -0.047937  0.000853  4.003892  0.001
C  C74  1  0.28476660  0.01031036  0.90753709  1  -0.023671  0.001723  -0.023027  -0.047836  0.00085  4.002104  0.001
C  C75  1  0.62287733  0.89730683  0.90761533  1  -0.058022  0.00174  -0.023314  -0.047825  0.00085  4.004814  0.001
C  C76  1  0.98966449  0.37708423  0.09249912  1  -0.092  0.001749  -0.023292  -0.050203  0.00085  4.005006  0.001
C  C77  1  0.10266201  0.71534944  0.09236150  1  0.022391  0.001706  -0.022921  -0.047836  0.000853  4.003692  0.001
C  C78  1  0.71523044  0.98969115  0.09246188  1  -0.024037  0.001722  -0.023008  -0.047845  0.00085  4.00215  0.001
C  C79  1  0.37712407  0.10269239  0.09238529  1  -0.05791  0.00174  -0.02333  -0.047875  0.00085  4.004782  0.001
C  C80  1  0.89603952  0.61461684  0.90761563  1  0.013111  0.000393  -0.077443  -0.077775  -4e-06  3.939723  0.0
C  C81  1  0.01180256  0.29311743  0.90783729  1  -0.07297  0.000397  -0.077299  -0.07779  -4e-06  3.939283  0.0
C  C82  1  0.29317064  0.89604711  0.90769979  1  -0.055739  0.000381  -0.077826  -0.079334  -1.4e-05  3.936731  0.0
C  C83  1  0.61465082  0.01173477  0.90776495  1  -0.024428  0.000379  -0.077377  -0.078787  -2.1e-05  3.940264  0.0
C  C84  1  0.10396373  0.38538221  0.09238592  1  0.012899  0.000393  -0.077383  -0.07768  -3e-06  3.939674  0.0
C  C85  1  0.98820015  0.70687984  0.09216372  1  -0.07284  0.000397  -0.077313  -0.077844  -4e-06  3.939011  0.0
C  C86  1  0.70682782  0.10395496  0.09229881  1  -0.055586  0.000381  -0.077789  -0.079265  -1.3e-05  3.936716  0.0
C  C87  1  0.38534840  0.98826358  0.09223350  1  -0.024377  0.000378  -0.077347  -0.078709  -2.1e-05  3.940181  0.0
C  C88  1  0.11288266  0.67131265  0.99994630  1  -0.016443  0.002312  -0.075937  -0.097  0.001162  3.942623  0.002
C  C89  1  0.88712074  0.32868696  0.00005361  1  -0.016533  0.002313  -0.07594  -0.096882  0.001162  3.942614  0.002
C  C90  1  0.32885901  0.11288061  0.99995871  1  -0.003302  0.002307  -0.076206  -0.097776  0.001164  3.943494  0.002
C  C91  1  0.67114152  0.88711982  0.00004283  1  -0.003167  0.002307  -0.076239  -0.097828  0.001165  3.94355  0.002
C  C92  1  0.24261995  0.55422289  0.50726668  1  1.011472  0.010595  0.14033  0.154323  0.007175  4.008028  0.01
C  C93  1  0.26469515  0.95314543  0.50724492  1  0.997019  0.010646  0.14024  0.155121  0.007208  4.004714  0.01
C  C94  1  0.95304259  0.24252748  0.50712526  1  1.006605  0.010684  0.140574  0.155767  0.00724  4.006286  0.01
C  C95  1  0.55416602  0.26478040  0.50723534  1  1.009522  0.010604  0.140579  0.154994  0.007211  4.006036  0.01
C  C96  1  0.75738248  0.44577971  0.49273406  1  1.011509  0.010594  0.14038  0.154423  0.007174  4.00791  0.01
C  C97  1  0.73529790  0.04685309  0.49275816  1  0.997047  0.010641  0.140325  0.155197  0.007204  4.004572  0.01
C  C98  1  0.04695266  0.75747032  0.49287104  1  1.006188  0.01068  0.140559  0.155774  0.007237  4.006254  0.01
C  C99  1  0.44583502  0.73521971  0.49276491  1  1.009283  0.01061  0.140576  0.154982  0.007214  4.006034  0.01
C  C100  1  0.26977366  0.57527253  0.65619235  1  1.518232  0.025029  0.331378  0.550766  0.015679  4.078465  0.021
C  C101  1  0.38638424  0.08101435  0.65614832  1  1.485533  0.025306  0.331729  0.551388  0.015704  4.081446  0.021
C  C102  1  0.08095367  0.26972625  0.65603510  1  1.516955  0.025072  0.331667  0.551453  0.015717  4.079456  0.021
C  C103  1  0.57525438  0.38646503  0.65617336  1  1.487841  0.025302  0.331825  0.550624  0.015724  4.079483  0.021
C  C104  1  0.73022810  0.42472798  0.34380594  1  1.518293  0.02503  0.331448  0.550752  0.015679  4.078664  0.021
C  C105  1  0.61360938  0.91898401  0.34385444  1  1.485591  0.025303  0.3318  0.551469  0.015702  4.081247  0.021
C  C106  1  0.91904385  0.73027284  0.34396076  1  1.516884  0.025072  0.331635  0.551433  0.015716  4.079446  0.021
C  C107  1  0.42474615  0.61353540  0.34382818  1  1.487845  0.025301  0.331786  0.550622  0.015723  4.079496  0.021
C  C108  1  0.88586482  0.65495299  0.99986999  1  -0.012342  0.000244  -0.089279  -0.081277  4.2e-05  3.995852  0.0
C  C109  1  0.11413989  0.34504871  0.00013301  1  -0.012185  0.000244  -0.08942  -0.081473  4.2e-05  3.996004  0.0
C  C110  1  0.34503400  0.88591076  0.99996476  1  -0.005705  0.00025  -0.089093  -0.080024  4.4e-05  3.993726  0.0
C  C111  1  0.65496449  0.11408937  0.00003296  1  -0.00575  0.00025  -0.089127  -0.080071  4.4e-05  3.993747  0.0
N  N112  1  0.15004334  0.54157897  0.59694067  1  -0.786549  0.083514  -0.287487  -0.331485  0.044032  3.46674  0.056
N  N113  1  0.44690227  0.05546042  0.59691353  1  -0.764622  0.083407  -0.287331  -0.331742  0.044091  3.464105  0.056
N  N114  1  0.05537763  0.15000238  0.59682591  1  -0.787344  0.083539  -0.287315  -0.331725  0.044056  3.466666  0.056
N  N115  1  0.54154386  0.44697263  0.59693535  1  -0.771899  0.083449  -0.288002  -0.331872  0.044075  3.466268  0.056
N  N116  1  0.84995927  0.45842227  0.40305756  1  -0.786651  0.083517  -0.287517  -0.331557  0.044033  3.466939  0.056
N  N117  1  0.55309193  0.94453778  0.40308890  1  -0.764923  0.083405  -0.287393  -0.331684  0.04409  3.463997  0.056
N  N118  1  0.94461901  0.84999793  0.40317088  1  -0.787417  0.083536  -0.28734  -0.331753  0.044054  3.466517  0.056
N  N119  1  0.45846143  0.55302891  0.40306732  1  -0.77197  0.083452  -0.287992  -0.331862  0.044076  3.466158  0.056
N  N120  1  0.33117182  0.58510445  0.60234294  1  -1.221924  0.091366  -0.375896  -0.446645  0.047554  3.50062  0.065
N  N121  1  0.27115539  0.01736015  0.60229918  1  -1.212048  0.091378  -0.376497  -0.447769  0.04759  3.500461  0.065
N  N122  1  0.01727996  0.33109470  0.60217248  1  -1.220336  0.091412  -0.376206  -0.447555  0.047568  3.500772  0.065
N  N123  1  0.58506199  0.27124869  0.60230144  1  -1.217654  0.091343  -0.376325  -0.447015  0.047557  3.498879  0.065
N  N124  1  0.66883000  0.41489622  0.39765630  1  -1.221858  0.091366  -0.375904  -0.446656  0.047554  3.500651  0.065
N  N125  1  0.72883942  0.98263998  0.39770475  1  -1.211813  0.091384  -0.376568  -0.447872  0.047594  3.500353  0.065
N  N126  1  0.98271776  0.66890512  0.39782270  1  -1.219864  0.091407  -0.376181  -0.44753  0.047568  3.500869  0.065
N  N127  1  0.41493444  0.72874870  0.39769873  1  -1.217613  0.09134  -0.376267  -0.446972  0.047557  3.498925  0.065
N  N128  1  0.32159907  0.59674270  0.75524012  1  -1.321025  0.029694  -0.584301  -0.666287  0.014362  3.311647  0.02
N  N129  1  0.43362189  0.15848928  0.75522180  1  -1.317917  0.02977  -0.585352  -0.667726  0.014365  3.312134  0.02
N  N130  1  0.15847106  0.32155291  0.75509586  1  -1.320405  0.029827  -0.585117  -0.667158  0.014407  3.313445  0.02
N  N131  1  0.59681193  0.43366810  0.75523758  1  -1.295971  0.029774  -0.58515  -0.666796  0.014383  3.310606  0.02
N  N132  1  0.67840184  0.40325709  0.24475822  1  -1.321194  0.029694  -0.584308  -0.666197  0.014362  3.311602  0.02
N  N133  1  0.56637549  0.84151108  0.24478110  1  -1.317944  0.02977  -0.585282  -0.667686  0.014364  3.312139  0.02
N  N134  1  0.84152366  0.67844741  0.24489903  1  -1.320792  0.029821  -0.585095  -0.667172  0.014404  3.313514  0.02
N  N135  1  0.40318799  0.56633040  0.24476246  1  -1.295945  0.029773  -0.585153  -0.666823  0.014382  3.310569  0.02
N  N136  1  0.13434249  0.52789492  0.50064876  1  -0.801288  0.073678  -0.270237  -0.207445  0.038152  3.586596  0.058
N  N137  1  0.36637346  0.97281292  0.50063402  1  -0.79737  0.073563  -0.270069  -0.208243  0.03811  3.582337  0.058
N  N138  1  0.97271964  0.13426474  0.50054685  1  -0.80193  0.073585  -0.270242  -0.207954  0.038131  3.585719  0.058
N  N139  1  0.52783661  0.36643320  0.50062985  1  -0.796792  0.07355  -0.269729  -0.207613  0.038069  3.584886  0.058
N  N140  1  0.86566039  0.47210721  0.49934973  1  -0.801287  0.073681  -0.270278  -0.207484  0.038154  3.586698  0.058
N  N141  1  0.63362017  0.02718544  0.49936874  1  -0.797532  0.073563  -0.270172  -0.208501  0.038114  3.582368  0.058
N  N142  1  0.02727357  0.86573461  0.49945103  1  -0.801667  0.073576  -0.270244  -0.207951  0.03813  3.585554  0.058
N  N143  1  0.47216888  0.63356906  0.49937213  1  -0.796632  0.073551  -0.269733  -0.207597  0.038069  3.584758  0.058
O  O144  1  0.12911885  0.56744832  0.81219926  1  -1.195081  0.038065  -0.306757  -0.56456  0.018915  2.241223  0.031
O  O145  1  0.68329599  0.24479773  0.81242584  1  -1.196945  0.037927  -0.307283  -0.565337  0.018883  2.239376  0.031
O  O146  1  0.24447159  0.12907822  0.81221692  1  -1.1949  0.038132  -0.306907  -0.564778  0.018944  2.240952  0.031
O  O147  1  0.56760623  0.68329462  0.81238400  1  -1.196193  0.037939  -0.307348  -0.56537  0.018913  2.240353  0.031
O  O148  1  0.87088591  0.43255573  0.18780200  1  -1.195355  0.038067  -0.306818  -0.564691  0.018917  2.241438  0.031
O  O149  1  0.31670729  0.75519938  0.18757485  1  -1.197016  0.037927  -0.307308  -0.565379  0.018883  2.239444  0.031
O  O150  1  0.75552114  0.87092170  0.18777868  1  -1.194839  0.038123  -0.306955  -0.564849  0.01894  2.240969  0.031
O  O151  1  0.43239689  0.31670569  0.18762459  1  -1.196071  0.037944  -0.307301  -0.565369  0.018916  2.24038  0.031
O  O152  1  0.01012776  0.72772277  0.66999472  1  -1.212924  0.023566  -0.58126  -0.761626  0.011728  2.059735  0.017
O  O153  1  0.65971863  0.94247611  0.67004228  1  -1.249103  0.023601  -0.581137  -0.762068  0.01174  2.063854  0.018
O  O154  1  0.94237519  0.01012842  0.67001401  1  -1.222747  0.023678  -0.581261  -0.762099  0.011766  2.061355  0.018
O  O155  1  0.72773203  0.65980394  0.66999165  1  -1.22649  0.023688  -0.581751  -0.763024  0.011769  2.061702  0.018
O  O156  1  0.98987843  0.27227343  0.33000886  1  -1.213415  0.023564  -0.581285  -0.761618  0.011728  2.059719  0.017
O  O157  1  0.34027862  0.05753015  0.32995870  1  -1.249058  0.023597  -0.581104  -0.761981  0.011738  2.063836  0.018
O  O158  1  0.05764518  0.98988127  0.32999018  1  -1.224845  0.023679  -0.58132  -0.762045  0.011762  2.061198  0.018
O  O159  1  0.27228484  0.34020718  0.33000190  1  -1.225894  0.023685  -0.58176  -0.76306  0.01177  2.061782  0.018
O  O160  1  0.93417959  0.56204383  0.72720858  1  -1.173017  0.062426  -0.307428  -0.538083  0.032193  2.325359  0.048
O  O161  1  0.79315421  0.16536912  0.72728755  1  -1.164658  0.062233  -0.307907  -0.539163  0.032168  2.326059  0.048
O  O162  1  0.16533048  0.93407004  0.72724032  1  -1.166704  0.062426  -0.308032  -0.539001  0.032205  2.324295  0.048
O  O163  1  0.56220925  0.79312642  0.72730468  1  -1.159406  0.062195  -0.307909  -0.538882  0.032134  2.325249  0.048
O  O164  1  0.06582338  0.43795030  0.27279001  1  -1.173007  0.062426  -0.30742  -0.538173  0.032193  2.325457  0.048
O  O165  1  0.20684832  0.83462549  0.27271328  1  -1.164586  0.062241  -0.307911  -0.539163  0.032171  2.326068  0.048
O  O166  1  0.83466887  0.06592862  0.27276005  1  -1.166635  0.062428  -0.308045  -0.539008  0.032205  2.324256  0.048
O  O167  1  0.43779692  0.20686769  0.27269707  1  -1.15948  0.062196  -0.307887  -0.538886  0.032135  2.32529  0.048
