# generated using pymatgen
data_NaH16C13SNO4
_symmetry_space_group_name_H-M   'P 1'
_cell_length_a   4.70630388
_cell_length_b   10.98523896
_cell_length_c   15.41496625
_cell_angle_alpha   110.42122057
_cell_angle_beta   90.00015893
_cell_angle_gamma   89.99991696
_symmetry_Int_Tables_number   1
_chemical_formula_structural   NaH16C13SNO4
_chemical_formula_sum   'Na2 H32 C26 S2 N2 O8'
_cell_volume   746.86562413
_cell_formula_units_Z   2
loop_
 _symmetry_equiv_pos_site_id
 _symmetry_equiv_pos_as_xyz
  1  'x, y, z'
loop_
 _atom_site_type_symbol
 _atom_site_label
 _atom_site_symmetry_multiplicity
 _atom_site_fract_x
 _atom_site_fract_y
 _atom_site_fract_z
 _atom_site_occupancy
 _atom_site_hle17_bader_spin_density
 _atom_site_hle17_ddec_charge
 _atom_site_hle17_ddec_spin_density
 _atom_site_hle17_ddec_sum_bond_order
 _atom_site_hle17_magmom
 _atom_site_hse06_10hf_bader_spin_density
 _atom_site_hse06_10hf_ddec_charge
 _atom_site_hse06_10hf_ddec_spin_density
 _atom_site_hse06_10hf_ddec_sum_bond_order
 _atom_site_hse06_10hf_magmom
 _atom_site_hse06_bader_spin_density
 _atom_site_hse06_ddec_charge
 _atom_site_hse06_ddec_spin_density
 _atom_site_hse06_ddec_sum_bond_order
 _atom_site_hse06_magmom
 _atom_site_pbe_bader_spin_density
 _atom_site_pbe_cm5_charge
 _atom_site_pbe_ddec_charge
 _atom_site_pbe_ddec_spin_density
 _atom_site_pbe_ddec_sum_bond_order
 _atom_site_pbe_magmom
Na  Na0  1  0.38178096  0.37331223  0.95655642  1  0  0.909632  0  0.368916  0  0  0.860917  0  0.522873  0  0  0.873287  0  0.499354  0  0  0.694911  0.85182  0  0.539608  0
Na  Na1  1  0.88178455  0.62668615  0.04344396  1  0  0.909648  0  0.368906  0  0  0.860908  0  0.52291  0  0  0.873273  0  0.499384  0  0  0.694915  0.851808  0  0.539646  0
H  H2  1  0.98245515  0.60226162  0.34253054  1  0  0.075581  0  0.928187  0  0  0.088837  0  0.99514  0  0  0.090943  0  0.991218  0  0  0.121877  0.087017  0  0.998263  0
H  H3  1  0.48245306  0.39773965  0.65747064  1  0  0.075545  0  0.928231  0  0  0.088797  0  0.995194  0  0  0.090906  0  0.991269  0  0  0.121858  0.086975  0  0.998317  0
H  H4  1  0.76858228  0.42161102  0.23963589  1  0  0.062533  0  0.930058  0  0  0.07067  0  0.998403  0  0  0.071804  0  0.997835  0  0  0.109539  0.069756  0  0.999013  0
H  H5  1  0.26857838  0.57838739  0.76036440  1  0  0.062565  0  0.930017  0  0  0.07067  0  0.998402  0  0  0.071805  0  0.997831  0  0  0.109543  0.069756  0  0.999012  0
H  H6  1  0.79388142  0.01871788  0.34912995  1  0  0.092332  0  0.989526  0  0  0.096201  0  1.066336  0  0  0.099747  0  1.06372  0  0  0.093674  0.093747  0  1.067873  0
H  H7  1  0.29387521  0.98128343  0.65086913  1  0  0.092328  0  0.989561  0  0  0.096222  0  1.06634  0  0  0.09977  0  1.06372  0  0  0.093677  0.093765  0  1.067881  0
H  H8  1  0.15288281  0.81245924  0.44274983  1  0  0.081343  0  0.971948  0  0  0.095517  0  1.033166  0  0  0.097778  0  1.031852  0  0  0.094461  0.093698  0  1.03434  0
H  H9  1  0.65286695  0.18754211  0.55725174  1  0  0.081313  0  0.971988  0  0  0.095476  0  1.033214  0  0  0.097751  0  1.031886  0  0  0.09445  0.09366  0  1.034384  0
H  H10  1  0.45077833  0.00795784  0.46930486  1  0  0.085057  0  0.986342  0  0  0.096367  0  1.049706  0  0  0.098392  0  1.050556  0  0  0.091719  0.094912  0  1.049249  0
H  H11  1  0.95076381  0.99204149  0.53069452  1  0  0.085031  0  0.986371  0  0  0.096348  0  1.049744  0  0  0.098385  0  1.050564  0  0  0.091706  0.094895  0  1.049285  0
H  H12  1  0.38189918  0.35346375  0.30228882  1  0  0.075554  0  0.954972  0  0  0.088849  0  1.023841  0  0  0.089581  0  1.024232  0  0  0.087114  0.088182  0  1.023843  0
H  H13  1  0.88190217  0.64653270  0.69771304  1  0  0.075544  0  0.954969  0  0  0.088889  0  1.023787  0  0  0.089621  0  1.024179  0  0  0.0871  0.088221  0  1.02379  0
H  H14  1  0.33136075  0.18472411  0.27618739  1  0  0.079736  0  0.937276  0  0  0.099351  0  0.996046  0  0  0.100268  0  0.996234  0  0  0.092484  0.098772  0  0.995706  0
H  H15  1  0.83136979  0.81527429  0.72381490  1  0  0.079699  0  0.937303  0  0  0.099359  0  0.996034  0  0  0.100276  0  0.996223  0  0  0.092492  0.098775  0  0.995697  0
H  H16  1  0.91055364  0.19217350  0.17332976  1  0  0.082686  0  0.941356  0  0  0.10005  0  1.001469  0  0  0.101729  0  1.000788  0  0  0.094834  0.09867  0  1.002138  0
H  H17  1  0.41055383  0.80782583  0.82666828  1  0  0.08265  0  0.9414  0  0  0.100036  0  1.001475  0  0  0.101715  0  1.000793  0  0  0.094823  0.098657  0  1.002148  0
H  H18  1  0.24458494  0.23538088  0.13788927  1  0  0.113904  0  0.937324  0  0  0.131859  0  0.991685  0  0  0.134807  0  0.989953  0  0  0.105389  0.12965  0  0.993052  0
H  H19  1  0.74458051  0.76461947  0.86211083  1  0  0.113926  0  0.937304  0  0  0.131885  0  0.991644  0  0  0.134834  0  0.98991  0  0  0.105403  0.129679  0  0.993012  0
H  H20  1  0.35218232  0.40893756  0.48463028  1  0  0.106278  0  0.977349  0  0  0.120758  0  1.047291  0  0  0.122306  0  1.047197  0  0  0.080717  0.119651  0  1.047384  0
H  H21  1  0.85220299  0.59106859  0.51537069  1  0  0.106226  0  0.9774  0  0  0.120722  0  1.047338  0  0  0.122271  0  1.047242  0  0  0.080711  0.119616  0  1.04743  0
H  H22  1  0.33902565  0.23546360  0.45537266  1  0  0.111861  0  0.959258  0  0  0.131853  0  1.02124  0  0  0.133132  0  1.021403  0  0  0.087436  0.130966  0  1.021014  0
H  H23  1  0.83902476  0.76454158  0.54462611  1  0  0.11191  0  0.959433  0  0  0.131906  0  1.021398  0  0  0.133181  0  1.021568  0  0  0.08747  0.131021  0  1.021165  0
H  H24  1  0.08394668  0.33625886  0.53306762  1  0  0.116488  0  0.968596  0  0  0.137038  0  1.029292  0  0  0.137566  0  1.030648  0  0  0.08885  0.136703  0  1.028246  0
H  H25  1  0.58395605  0.66373959  0.46693187  1  0  0.116553  0  0.968553  0  0  0.137093  0  1.029263  0  0  0.137622  0  1.030615  0  0  0.088838  0.136756  0  1.028218  0
H  H26  1  0.18313476  0.95633659  0.25101401  1  0  0.075664  0  0.977178  0  0  0.091792  0  1.047957  0  0  0.090543  0  1.050893  0  0  0.093875  0.092594  0  1.04582  0
H  H27  1  0.68313171  0.04366086  0.74898467  1  0  0.075668  0  0.977172  0  0  0.091798  0  1.047951  0  0  0.09055  0  1.050887  0  0  0.093893  0.0926  0  1.045813  0
H  H28  1  0.89771596  0.01882021  0.20123113  1  0  0.076394  0  0.955133  0  0  0.093354  0  1.021821  0  0  0.093647  0  1.021391  0  0  0.096228  0.092998  0  1.022225  0
H  H29  1  0.39771532  0.98117816  0.79876732  1  0  0.076383  0  0.955127  0  0  0.093349  0  1.021815  0  0  0.093643  0  1.021386  0  0  0.096211  0.092992  0  1.022218  0
H  H30  1  0.15696725  0.91160792  0.12731920  1  0  0.108614  0  0.90842  0  0  0.127585  0  0.963343  0  0  0.129579  0  0.96148  0  0  0.119016  0.126031  0  0.964836  0
H  H31  1  0.65696728  0.08838955  0.87268077  1  0  0.108608  0  0.908449  0  0  0.127592  0  0.963349  0  0  0.129585  0  0.961487  0  0  0.119019  0.126035  0  0.96484  0
H  H32  1  0.30192474  0.50286267  0.16688953  1  0  0.297368  0  0.925466  0  0  0.273551  0  0.995866  0  0  0.284395  0  0.986809  0  0  0.315094  0.265949  0  1.002189  0
H  H33  1  0.80192094  0.49713961  0.83311109  1  0  0.297368  0  0.925512  0  0  0.273554  0  0.995902  0  0  0.284394  0  0.986849  0  0  0.315106  0.26595  0  1.002228  0
C  C34  1  0.14373730  0.60055078  0.29094851  1  0  0.179055  0  3.633302  0  0  0.123928  0  3.89476  0  0  0.145182  0  3.902033  0  0  0.086981  0.109845  0  3.889809  0
C  C35  1  0.64373697  0.39944960  0.70905151  1  0  0.179064  0  3.633327  0  0  0.123923  0  3.894799  0  0  0.145175  0  3.902072  0  0  0.086983  0.109844  0  3.889847  0
C  C36  1  0.94559575  0.39222709  0.19013263  1  0  0.025701  0  3.596503  0  0  0.005398  0  3.834398  0  0  0.0054  0  3.847821  0  0  0.015107  0.005209  0  3.825537  0
C  C37  1  0.44559432  0.60777420  0.80986917  1  0  0.025745  0  3.596472  0  0  0.005411  0  3.834379  0  0  0.005418  0  3.847799  0  0  0.015079  0.005227  0  3.825518  0
C  C38  1  0.66688422  0.93107350  0.33640945  1  0  -0.175899  0  3.795139  0  0  -0.198119  0  4.05294  0  0  -0.197337  0  4.070791  0  0  -0.112105  -0.197889  0  4.040246  0
C  C39  1  0.16687265  0.06892784  0.66359018  1  0  -0.175912  0  3.795096  0  0  -0.198144  0  4.052868  0  0  -0.197374  0  4.070719  0  0  -0.112114  -0.197913  0  4.040176  0
C  C40  1  0.69374588  0.82712338  0.25449662  1  0  0.133152  0  3.782683  0  0  0.126889  0  4.039899  0  0  0.130587  0  4.05609  0  0  0.063888  0.123785  0  4.029042  0
C  C41  1  0.19374106  0.17287601  0.74550190  1  0  0.133142  0  3.782651  0  0  0.126892  0  4.039874  0  0  0.130611  0  4.056038  0  0  0.063862  0.123786  0  4.029019  0
C  C42  1  0.32929045  0.70789737  0.30745858  1  0  -0.132045  0  3.849874  0  0  -0.114174  0  4.099378  0  0  -0.130855  0  4.127859  0  0  -0.046501  -0.103594  0  4.080316  0
C  C43  1  0.82927970  0.29210199  0.69254005  1  0  -0.13194  0  3.849763  0  0  -0.114058  0  4.099224  0  0  -0.130744  0  4.127714  0  0  -0.046473  -0.103481  0  4.080166  0
C  C44  1  0.82695023  0.36764999  0.09137341  1  0  0.667863  0  3.934287  0  0  0.624276  0  4.239974  0  0  0.656393  0  4.231739  0  0  0.199745  0.602362  0  4.244837  0
C  C45  1  0.32695385  0.63235035  0.90862871  1  0  0.667763  0  3.934454  0  0  0.624225  0  4.240056  0  0  0.65634  0  4.231822  0  0  0.199759  0.602311  0  4.244915  0
C  C46  1  0.52848254  0.70954564  0.23639787  1  0  0.275798  0  3.860574  0  0  0.256072  0  4.126041  0  0  0.274909  0  4.136665  0  0  0.098795  0.24365  0  4.118741  0
C  C47  1  0.02847750  0.29045282  0.76360158  1  0  0.275603  0  3.860663  0  0  0.255918  0  4.126073  0  0  0.274753  0  4.136692  0  0  0.098706  0.243499  0  4.118776  0
C  C48  1  0.30633845  0.81672812  0.39085750  1  0  -0.103655  0  3.832276  0  0  -0.12955  0  4.088606  0  0  -0.126145  0  4.112299  0  0  -0.106262  -0.131229  0  4.072505  0
C  C49  1  0.80631882  0.18327126  0.60914307  1  0  -0.103715  0  3.832441  0  0  -0.129618  0  4.088791  0  0  -0.126218  0  4.112469  0  0  -0.106302  -0.131296  0  4.072694  0
C  C50  1  0.47144030  0.92527674  0.40520621  1  0  -0.112991  0  3.840323  0  0  -0.127429  0  4.099521  0  0  -0.135001  0  4.124542  0  0  -0.122329  -0.122609  0  4.082423  0
C  C51  1  0.97142727  0.07472549  0.59479195  1  0  -0.112872  0  3.840299  0  0  -0.127323  0  4.099485  0  0  -0.134889  0  4.124512  0  0  -0.122245  -0.122496  0  4.082369  0
C  C52  1  0.22090665  0.27595163  0.28318630  1  0  -0.131933  0  3.684028  0  0  -0.170941  0  3.955208  0  0  -0.170255  0  3.967929  0  0  -0.154812  -0.171335  0  3.946432  0
C  C53  1  0.72091168  0.72404776  0.71681484  1  0  -0.131921  0  3.684061  0  0  -0.171052  0  3.955337  0  0  -0.170366  0  3.968055  0  0  -0.154837  -0.171434  0  3.946554  0
C  C54  1  0.08004625  0.26555537  0.19192784  1  0  -0.154548  0  3.666332  0  0  -0.198621  0  3.921089  0  0  -0.201116  0  3.933146  0  0  -0.163451  -0.19688  0  3.913191  0
C  C55  1  0.58004569  0.73444405  0.80807189  1  0  -0.154551  0  3.666333  0  0  -0.198607  0  3.921061  0  0  -0.201102  0  3.933121  0  0  -0.163445  -0.196879  0  3.913178  0
C  C56  1  0.21191309  0.32442359  0.47119500  1  0  -0.333265  0  3.70996  0  0  -0.403567  0  3.96009  0  0  -0.404917  0  3.969035  0  0  -0.239326  -0.402481  0  3.953855  0
C  C57  1  0.71192510  0.67557968  0.52880579  1  0  -0.333378  0  3.710177  0  0  -0.40369  0  3.960292  0  0  -0.405038  0  3.969234  0  0  -0.23937  -0.402604  0  3.954056  0
C  C58  1  0.03683501  0.93477294  0.19196057  1  0  -0.07154  0  3.630234  0  0  -0.164851  0  3.89198  0  0  -0.158676  0  3.8965  0  0  -0.135016  -0.168932  0  3.88883  0
C  C59  1  0.53683241  0.06522746  0.80803936  1  0  -0.071568  0  3.630297  0  0  -0.164861  0  3.892058  0  0  -0.158678  0  3.896563  0  0  -0.13502  -0.168939  0  3.888904  0
S  S60  1  0.96768199  0.30995890  0.37778935  1  0  -0.045634  0  2.344488  0  0  -0.021781  0  2.696734  0  0  -0.027432  0  2.697915  0  0  -0.045501  -0.017495  0  2.695526  0
S  S61  1  0.46769349  0.69004042  0.62221004  1  0  -0.045556  0  2.344536  0  0  -0.02169  0  2.696835  0  0  -0.027341  0  2.698015  0  0  -0.04544  -0.017405  0  2.69562  0
N  N62  1  0.14934238  0.49787727  0.21484994  1  0  -0.264508  0  3.40689  0  0  -0.196437  0  3.642915  0  0  -0.213883  0  3.655124  0  0  -0.370567  -0.184832  0  3.63466  0
N  N63  1  0.64934451  0.50212311  0.78515008  1  0  -0.264527  0  3.406918  0  0  -0.196438  0  3.642936  0  0  -0.213889  0  3.655151  0  0  -0.370562  -0.18483  0  3.63468  0
O  O64  1  0.96423600  0.41525695  0.04000654  1  0  -0.766881  0  1.976455  0  0  -0.726386  0  2.231733  0  0  -0.74718  0  2.21565  0  0  -0.471985  -0.71171  0  2.242391  0
O  O65  1  0.46424023  0.58474043  0.95999237  1  0  -0.766856  0  1.976412  0  0  -0.726393  0  2.231684  0  0  -0.747187  0  2.2156  0  0  -0.472026  -0.711718  0  2.242342  0
O  O66  1  0.87083358  0.82176604  0.18258122  1  0  -0.274652  0  2.400963  0  0  -0.20191  0  2.645345  0  0  -0.217572  0  2.64687  0  0  -0.225765  -0.190607  0  2.643679  0
O  O67  1  0.37083364  0.17823233  0.81741655  1  0  -0.27454  0  2.400993  0  0  -0.201885  0  2.645431  0  0  -0.217565  0  2.646962  0  0  -0.225716  -0.190584  0  2.643765  0
O  O68  1  0.55858029  0.61388730  0.16022153  1  0  -0.584405  0  2.031796  0  0  -0.548633  0  2.275228  0  0  -0.568891  0  2.270046  0  0  -0.350191  -0.534809  0  2.278443  0
O  O69  1  0.05857774  0.38611212  0.83977688  1  0  -0.584313  0  2.031818  0  0  -0.54856  0  2.275241  0  0  -0.568818  0  2.270066  0  0  -0.350141  -0.534737  0  2.278459  0
O  O70  1  0.60457828  0.29974286  0.06959115  1  0  -0.680647  0  1.885737  0  0  -0.638699  0  2.108496  0  0  -0.662712  0  2.098042  0  0  -0.387927  -0.621556  0  2.115002  0
O  O71  1  0.10458613  0.70025754  0.93041144  1  0  -0.680622  0  1.885926  0  0  -0.638659  0  2.108628  0  0  -0.662672  0  2.098168  0  0  -0.38791  -0.621519  0  2.115133  0
