# generated using pymatgen
data_SnH12C8SO2
_symmetry_space_group_name_H-M   'P 1'
_cell_length_a   9.96105746
_cell_length_b   13.59104612
_cell_length_c   13.59103021
_cell_angle_alpha   120.00009689
_cell_angle_beta   90.00019264
_cell_angle_gamma   89.99980250
_symmetry_Int_Tables_number   1
_chemical_formula_structural   SnH12C8SO2
_chemical_formula_sum   'Sn6 H72 C48 S6 O12'
_cell_volume   1593.45908563
_cell_formula_units_Z   6
loop_
 _symmetry_equiv_pos_site_id
 _symmetry_equiv_pos_as_xyz
  1  'x, y, z'
loop_
 _atom_site_type_symbol
 _atom_site_label
 _atom_site_symmetry_multiplicity
 _atom_site_fract_x
 _atom_site_fract_y
 _atom_site_fract_z
 _atom_site_occupancy
 _atom_site_hle17_bader_spin_density
 _atom_site_hle17_ddec_charge
 _atom_site_hle17_ddec_spin_density
 _atom_site_hle17_ddec_sum_bond_order
 _atom_site_hle17_magmom
 _atom_site_hse06_10hf_bader_spin_density
 _atom_site_hse06_10hf_ddec_charge
 _atom_site_hse06_10hf_ddec_spin_density
 _atom_site_hse06_10hf_ddec_sum_bond_order
 _atom_site_hse06_10hf_magmom
 _atom_site_hse06_bader_spin_density
 _atom_site_hse06_ddec_charge
 _atom_site_hse06_ddec_spin_density
 _atom_site_hse06_ddec_sum_bond_order
 _atom_site_hse06_magmom
 _atom_site_pbe_bader_spin_density
 _atom_site_pbe_cm5_charge
 _atom_site_pbe_ddec_charge
 _atom_site_pbe_ddec_spin_density
 _atom_site_pbe_ddec_sum_bond_order
 _atom_site_pbe_magmom
Sn  Sn0  1  0.50626358  0.43946984  0.47819543  1  0  1.370931  0  2.861126  0  0  1.24061  0  3.347426  0  0  1.278391  0  3.33182  0  0  0.519807  1.21463  0  3.357815  0
Sn  Sn1  1  0.00626715  0.96127583  0.43946911  1  0  1.370931  0  2.861078  0  0  1.240628  0  3.347366  0  0  1.278406  0  3.331758  0  0  0.519807  1.214646  0  3.357753  0
Sn  Sn2  1  0.50626851  0.52180649  0.96127809  1  0  1.370916  0  2.861118  0  0  1.240611  0  3.347369  0  0  1.278394  0  3.331763  0  0  0.519829  1.214631  0  3.357749  0
Sn  Sn3  1  0.00626829  0.56053042  0.52180378  1  0  1.370974  0  2.861063  0  0  1.240669  0  3.347354  0  0  1.278451  0  3.331746  0  0  0.519818  1.214689  0  3.357743  0
Sn  Sn4  1  0.50626773  0.03872359  0.56052967  1  0  1.370927  0  2.861091  0  0  1.240627  0  3.347351  0  0  1.2784  0  3.331748  0  0  0.519794  1.214641  0  3.357738  0
Sn  Sn5  1  0.00626838  0.47819378  0.03872479  1  0  1.370961  0  2.861109  0  0  1.240623  0  3.347422  0  0  1.278408  0  3.331816  0  0  0.51981  1.214642  0  3.357807  0
H  H6  1  0.04882618  0.94916254  0.11542337  1  0  0.128248  0  0.965989  0  0  0.135739  0  1.029613  0  0  0.138002  0  1.029489  0  0  0.107055  0.134169  0  1.029569  0
H  H7  1  0.54882447  0.83374114  0.94916508  1  0  0.128261  0  0.965926  0  0  0.135748  0  1.029567  0  0  0.13801  0  1.029444  0  0  0.107059  0.134194  0  1.029504  0
H  H8  1  0.04882396  0.88457832  0.83374390  1  0  0.128281  0  0.965957  0  0  0.13576  0  1.029616  0  0  0.138022  0  1.029493  0  0  0.107077  0.134201  0  1.02956  0
H  H9  1  0.54882316  0.05083425  0.88457568  1  0  0.128253  0  0.966007  0  0  0.135742  0  1.029638  0  0  0.138005  0  1.029513  0  0  0.107064  0.134188  0  1.029577  0
H  H10  1  0.04882587  0.16625821  0.05083451  1  0  0.12825  0  0.965988  0  0  0.135733  0  1.02963  0  0  0.137996  0  1.029506  0  0  0.107054  0.134177  0  1.029573  0
H  H11  1  0.54882638  0.11542187  0.16625538  1  0  0.128192  0  0.965948  0  0  0.135688  0  1.029582  0  0  0.137951  0  1.029457  0  0  0.107022  0.134142  0  1.029507  0
H  H12  1  0.85167690  0.09587058  0.21061947  1  0  0.092485  0  0.988286  0  0  0.098171  0  1.058706  0  0  0.100915  0  1.057893  0  0  0.0918  0.095941  0  1.059872  0
H  H13  1  0.35168068  0.88525589  0.09587632  1  0  0.092547  0  0.988304  0  0  0.098232  0  1.058722  0  0  0.100965  0  1.057931  0  0  0.091818  0.096002  0  1.059888  0
H  H14  1  0.85167983  0.78938126  0.88525280  1  0  0.092515  0  0.988371  0  0  0.098194  0  1.058789  0  0  0.100941  0  1.057967  0  0  0.091815  0.095964  0  1.059956  0
H  H15  1  0.35167821  0.90412739  0.78938165  1  0  0.0925  0  0.988335  0  0  0.098179  0  1.058763  0  0  0.100927  0  1.057938  0  0  0.091806  0.095949  0  1.05993  0
H  H16  1  0.85168146  0.11474719  0.90412808  1  0  0.092507  0  0.988387  0  0  0.098187  0  1.058797  0  0  0.100931  0  1.057982  0  0  0.091824  0.095956  0  1.059964  0
H  H17  1  0.35168432  0.21062096  0.11474382  1  0  0.092578  0  0.988269  0  0  0.098247  0  1.058699  0  0  0.100979  0  1.057913  0  0  0.091793  0.096017  0  1.059866  0
H  H18  1  0.94313086  0.30390560  0.34314508  1  0  0.108153  0  0.968779  0  0  0.12162  0  1.029881  0  0  0.12353  0  1.029215  0  0  0.110766  0.120248  0  1.030284  0
H  H19  1  0.44313613  0.96076636  0.30391096  1  0  0.108145  0  0.968763  0  0  0.121576  0  1.029901  0  0  0.123487  0  1.029234  0  0  0.110738  0.120204  0  1.030305  0
H  H20  1  0.94313446  0.65685493  0.96075959  1  0  0.108179  0  0.968769  0  0  0.121657  0  1.029855  0  0  0.123567  0  1.02919  0  0  0.110776  0.120285  0  1.03026  0
H  H21  1  0.44313153  0.69609307  0.65685514  1  0  0.108149  0  0.968796  0  0  0.121635  0  1.029877  0  0  0.123545  0  1.029212  0  0  0.110778  0.120263  0  1.03028  0
H  H22  1  0.94313230  0.03923996  0.69609381  1  0  0.108146  0  0.968771  0  0  0.12163  0  1.029858  0  0  0.123541  0  1.029193  0  0  0.110758  0.120259  0  1.030262  0
H  H23  1  0.44313898  0.34314543  0.03923559  1  0  0.108199  0  0.968731  0  0  0.121633  0  1.029864  0  0  0.123545  0  1.029196  0  0  0.110772  0.12026  0  1.030268  0
H  H24  1  0.75013750  0.35360610  0.48210275  1  0  0.152896  0  1.008653  0  0  0.171779  0  1.065184  0  0  0.174363  0  1.065701  0  0  0.085072  0.169793  0  1.065019  0
H  H25  1  0.25014389  0.87150208  0.35360395  1  0  0.1529  0  1.008688  0  0  0.171788  0  1.065213  0  0  0.174369  0  1.065733  0  0  0.085084  0.169802  0  1.065049  0
H  H26  1  0.75013499  0.51789798  0.87150224  1  0  0.152926  0  1.008662  0  0  0.171792  0  1.065207  0  0  0.174378  0  1.065723  0  0  0.085088  0.169807  0  1.065042  0
H  H27  1  0.25013877  0.64639375  0.51789905  1  0  0.152899  0  1.00868  0  0  0.171778  0  1.065217  0  0  0.17436  0  1.065736  0  0  0.085066  0.169792  0  1.065053  0
H  H28  1  0.75013841  0.12849776  0.64639712  1  0  0.152901  0  1.008641  0  0  0.171788  0  1.065161  0  0  0.174379  0  1.065669  0  0  0.085085  0.169803  0  1.064995  0
H  H29  1  0.25014228  0.48210017  0.12849651  1  0  0.152909  0  1.008688  0  0  0.171799  0  1.065214  0  0  0.17439  0  1.065721  0  0  0.085082  0.169813  0  1.065049  0
H  H30  1  0.67290865  0.26430409  0.34702648  1  0  0.138355  0  1.029629  0  0  0.153211  0  1.095934  0  0  0.155019  0  1.098027  0  0  0.073462  0.151877  0  1.094289  0
H  H31  1  0.17291181  0.91727615  0.26430517  1  0  0.138342  0  1.029699  0  0  0.153206  0  1.095987  0  0  0.155017  0  1.098077  0  0  0.07346  0.151872  0  1.094343  0
H  H32  1  0.67290904  0.65297072  0.91727651  1  0  0.138361  0  1.029694  0  0  0.153184  0  1.096015  0  0  0.154992  0  1.098108  0  0  0.073449  0.15185  0  1.094369  0
H  H33  1  0.17290711  0.73569419  0.65297362  1  0  0.138347  0  1.029735  0  0  0.153206  0  1.096024  0  0  0.155016  0  1.098115  0  0  0.073462  0.151872  0  1.094379  0
H  H34  1  0.67290696  0.08272468  0.73569620  1  0  0.138357  0  1.029663  0  0  0.153213  0  1.09596  0  0  0.155022  0  1.098051  0  0  0.073467  0.151878  0  1.094317  0
H  H35  1  0.17290973  0.34702756  0.08272138  1  0  0.138327  0  1.029725  0  0  0.153186  0  1.096019  0  0  0.154996  0  1.098109  0  0  0.073454  0.151852  0  1.094375  0
H  H36  1  0.62488192  0.25291110  0.46729976  1  0  0.15813  0  0.992785  0  0  0.178266  0  1.045436  0  0  0.18083  0  1.0462  0  0  0.085424  0.176382  0  1.044936  0
H  H37  1  0.12488607  0.78561302  0.25291153  1  0  0.158144  0  0.992789  0  0  0.178282  0  1.045442  0  0  0.180841  0  1.046212  0  0  0.085428  0.176397  0  1.044943  0
H  H38  1  0.62488099  0.53270147  0.78561217  1  0  0.158093  0  0.992732  0  0  0.178237  0  1.045383  0  0  0.180797  0  1.046151  0  0  0.085405  0.176353  0  1.044883  0
H  H39  1  0.12488279  0.74708726  0.53270173  1  0  0.158139  0  0.992744  0  0  0.178285  0  1.045386  0  0  0.180844  0  1.046157  0  0  0.085432  0.176401  0  1.044887  0
H  H40  1  0.62488065  0.21438789  0.74708903  1  0  0.158161  0  0.992773  0  0  0.178282  0  1.045443  0  0  0.180849  0  1.046203  0  0  0.085427  0.176397  0  1.044944  0
H  H41  1  0.12488573  0.46729859  0.21438649  1  0  0.1581  0  0.992753  0  0  0.178247  0  1.045404  0  0  0.180806  0  1.046175  0  0  0.085413  0.176363  0  1.044904  0
H  H42  1  0.55431218  0.60183162  0.41965866  1  0  0.158319  0  0.989232  0  0  0.177124  0  1.043132  0  0  0.179556  0  1.044214  0  0  0.085304  0.175362  0  1.042548  0
H  H43  1  0.05431245  0.18217459  0.60183176  1  0  0.158287  0  0.989257  0  0  0.177088  0  1.043166  0  0  0.179521  0  1.04425  0  0  0.08528  0.175328  0  1.04258  0
H  H44  1  0.55431470  0.58034311  0.18217513  1  0  0.158268  0  0.989221  0  0  0.177078  0  1.043128  0  0  0.179511  0  1.044212  0  0  0.085274  0.175319  0  1.042542  0
H  H45  1  0.05431591  0.39816517  0.58033819  1  0  0.158305  0  0.989199  0  0  0.177105  0  1.043116  0  0  0.179537  0  1.044202  0  0  0.085292  0.175342  0  1.042532  0
H  H46  1  0.55431263  0.81782559  0.39816826  1  0  0.15832  0  0.98922  0  0  0.177118  0  1.043132  0  0  0.17955  0  1.044215  0  0  0.085291  0.175358  0  1.042545  0
H  H47  1  0.05431641  0.41965878  0.81782647  1  0  0.158311  0  0.989185  0  0  0.177104  0  1.043108  0  0  0.179537  0  1.044192  0  0  0.085282  0.175344  0  1.042522  0
H  H48  1  0.39101529  0.54059562  0.37069595  1  0  0.160581  0  0.990719  0  0  0.179143  0  1.044499  0  0  0.182169  0  1.044551  0  0  0.08739  0.17691  0  1.044741  0
H  H49  1  0.89101668  0.16989786  0.54059631  1  0  0.160591  0  0.990732  0  0  0.179149  0  1.044521  0  0  0.182176  0  1.044571  0  0  0.08739  0.176917  0  1.044763  0
H  H50  1  0.39101462  0.62930252  0.16990030  1  0  0.160544  0  0.990772  0  0  0.1791  0  1.044564  0  0  0.182125  0  1.044617  0  0  0.087366  0.176867  0  1.044806  0
H  H51  1  0.89101721  0.45940058  0.62930071  1  0  0.160603  0  0.990731  0  0  0.179168  0  1.044504  0  0  0.182195  0  1.044555  0  0  0.08739  0.176934  0  1.044748  0
H  H52  1  0.39101582  0.83010090  0.45940383  1  0  0.160589  0  0.990753  0  0  0.179149  0  1.044533  0  0  0.182174  0  1.044585  0  0  0.087384  0.176916  0  1.044776  0
H  H53  1  0.89101888  0.37070049  0.83010049  1  0  0.160585  0  0.990798  0  0  0.179157  0  1.044551  0  0  0.182193  0  1.044591  0  0  0.087382  0.176923  0  1.044794  0
H  H54  1  0.53709617  0.46484639  0.29488318  1  0  0.151416  0  1.009296  0  0  0.168065  0  1.069037  0  0  0.169802  0  1.071718  0  0  0.081127  0.166666  0  1.06755  0
H  H55  1  0.03709412  0.16996391  0.46484815  1  0  0.151451  0  1.009258  0  0  0.168098  0  1.069  0  0  0.169835  0  1.071681  0  0  0.08114  0.166699  0  1.067514  0
H  H56  1  0.53709331  0.70512021  0.16996680  1  0  0.151404  0  1.009198  0  0  0.168066  0  1.068936  0  0  0.169804  0  1.071616  0  0  0.081123  0.166664  0  1.067454  0
H  H57  1  0.03709883  0.53514872  0.70511353  1  0  0.151463  0  1.009239  0  0  0.168108  0  1.068976  0  0  0.169846  0  1.071656  0  0  0.081143  0.166705  0  1.067495  0
H  H58  1  0.53709486  0.83003716  0.53515374  1  0  0.151441  0  1.009283  0  0  0.168095  0  1.069017  0  0  0.169833  0  1.071698  0  0  0.081137  0.166692  0  1.067537  0
H  H59  1  0.03709566  0.29488595  0.83003543  1  0  0.151453  0  1.009266  0  0  0.168093  0  1.069011  0  0  0.169831  0  1.071691  0  0  0.081137  0.16669  0  1.06753  0
H  H60  1  0.44913938  0.55304273  0.70684307  1  0  0.15599  0  1.011761  0  0  0.172002  0  1.073592  0  0  0.174923  0  1.073802  0  0  0.084323  0.169877  0  1.073557  0
H  H61  1  0.94914650  0.84619969  0.55304420  1  0  0.155943  0  1.011715  0  0  0.171962  0  1.073553  0  0  0.174882  0  1.073761  0  0  0.084314  0.169838  0  1.073517  0
H  H62  1  0.44914533  0.29315922  0.84620145  1  0  0.155941  0  1.0118  0  0  0.17195  0  1.073644  0  0  0.17487  0  1.073856  0  0  0.084288  0.169824  0  1.07361  0
H  H63  1  0.94913881  0.44695422  0.29315484  1  0  0.155968  0  1.011779  0  0  0.17199  0  1.073604  0  0  0.17491  0  1.073812  0  0  0.084317  0.169865  0  1.073568  0
H  H64  1  0.44914173  0.15379981  0.44695645  1  0  0.155951  0  1.011728  0  0  0.171964  0  1.073566  0  0  0.174885  0  1.073775  0  0  0.084313  0.169839  0  1.073531  0
H  H65  1  0.94914089  0.70684538  0.15380101  1  0  0.155953  0  1.011764  0  0  0.171969  0  1.073603  0  0  0.174889  0  1.073811  0  0  0.084306  0.169844  0  1.073567  0
H  H66  1  0.37423184  0.41503981  0.63723362  1  0  0.150093  0  0.99828  0  0  0.169936  0  1.052768  0  0  0.172594  0  1.053258  0  0  0.084888  0.168013  0  1.052613  0
H  H67  1  0.87423562  0.77780474  0.41503913  1  0  0.150074  0  0.998283  0  0  0.16993  0  1.052765  0  0  0.172589  0  1.053253  0  0  0.084895  0.168007  0  1.05261  0
H  H68  1  0.37423429  0.36276386  0.77780333  1  0  0.150146  0  0.99819  0  0  0.169993  0  1.05267  0  0  0.172653  0  1.053157  0  0  0.084923  0.16807  0  1.052515  0
H  H69  1  0.87423093  0.58495643  0.36276448  1  0  0.150117  0  0.998305  0  0  0.169982  0  1.052769  0  0  0.172639  0  1.053259  0  0  0.084908  0.168059  0  1.052614  0
H  H70  1  0.37423117  0.22219404  0.58495951  1  0  0.150108  0  0.998278  0  0  0.169954  0  1.052762  0  0  0.172613  0  1.053252  0  0  0.084898  0.168031  0  1.052608  0
H  H71  1  0.87423250  0.63723578  0.22219499  1  0  0.150089  0  0.99827  0  0  0.169936  0  1.052758  0  0  0.172594  0  1.053248  0  0  0.084903  0.168013  0  1.052603  0
H  H72  1  0.29750174  0.52788258  0.62716117  1  0  0.154738  0  1.006923  0  0  0.172036  0  1.067842  0  0  0.174337  0  1.069369  0  0  0.085083  0.170217  0  1.067243  0
H  H73  1  0.79750779  0.90072398  0.52788562  1  0  0.15471  0  1.007051  0  0  0.172044  0  1.067921  0  0  0.174344  0  1.069454  0  0  0.085071  0.170224  0  1.067325  0
H  H74  1  0.29750775  0.37283955  0.90072399  1  0  0.154724  0  1.007051  0  0  0.172051  0  1.067927  0  0  0.174351  0  1.069458  0  0  0.085075  0.170231  0  1.067331  0
H  H75  1  0.79750242  0.47211464  0.37283870  1  0  0.154716  0  1.006906  0  0  0.172046  0  1.067795  0  0  0.174346  0  1.069328  0  0  0.085084  0.170226  0  1.067198  0
H  H76  1  0.29750340  0.09927578  0.47211406  1  0  0.154741  0  1.006909  0  0  0.172047  0  1.067822  0  0  0.174346  0  1.069355  0  0  0.085087  0.170227  0  1.067224  0
H  H77  1  0.79750243  0.62716107  0.09927611  1  0  0.154728  0  1.006897  0  0  0.172046  0  1.067799  0  0  0.174346  0  1.069331  0  0  0.085094  0.170227  0  1.0672  0
C  C78  1  0.23468398  0.33136545  0.36787700  1  0  0.666867  0  3.931274  0  0  0.614126  0  4.222016  0  0  0.65011  0  4.211851  0  0  0.221097  0.589895  0  4.227998  0
C  C79  1  0.73468655  0.96348997  0.33136755  1  0  0.666955  0  3.931063  0  0  0.614221  0  4.221795  0  0  0.650205  0  4.211631  0  0  0.22116  0.589985  0  4.22778  0
C  C80  1  0.23468163  0.63212697  0.96348481  1  0  0.666758  0  3.931096  0  0  0.614013  0  4.221858  0  0  0.65  0  4.211698  0  0  0.220995  0.589779  0  4.227841  0
C  C81  1  0.73467991  0.66863358  0.63212215  1  0  0.666921  0  3.93125  0  0  0.614169  0  4.221997  0  0  0.650154  0  4.211833  0  0  0.221109  0.589937  0  4.227981  0
C  C82  1  0.23468235  0.03651160  0.66863361  1  0  0.666861  0  3.9312  0  0  0.614116  0  4.22195  0  0  0.650099  0  4.211789  0  0  0.221086  0.589883  0  4.227935  0
C  C83  1  0.73468527  0.36787460  0.03651414  1  0  0.666873  0  3.931079  0  0  0.61412  0  4.221824  0  0  0.650106  0  4.211661  0  0  0.22108  0.589883  0  4.227809  0
C  C84  1  0.14538430  0.23394473  0.30084405  1  0  -0.182735  0  3.756114  0  0  -0.162453  0  4.023146  0  0  -0.171154  0  4.042534  0  0  -0.032926  -0.157167  0  4.010921  0
C  C85  1  0.64538564  0.93310383  0.23394731  1  0  -0.182975  0  3.756263  0  0  -0.162694  0  4.023292  0  0  -0.171397  0  4.042681  0  0  -0.033026  -0.157407  0  4.011066  0
C  C86  1  0.14538666  0.69915652  0.93310004  1  0  -0.182761  0  3.756181  0  0  -0.16249  0  4.02323  0  0  -0.171193  0  4.042618  0  0  -0.032939  -0.157203  0  4.011005  0
C  C87  1  0.64538409  0.76605360  0.69915526  1  0  -0.182852  0  3.756183  0  0  -0.162551  0  4.0232  0  0  -0.171253  0  4.042589  0  0  -0.032948  -0.157264  0  4.010976  0
C  C88  1  0.14538576  0.06689790  0.76605444  1  0  -0.18281  0  3.756133  0  0  -0.162517  0  4.023159  0  0  -0.171218  0  4.042548  0  0  -0.032944  -0.157231  0  4.010936  0
C  C89  1  0.64538876  0.30084435  0.06689687  1  0  -0.182869  0  3.756413  0  0  -0.162533  0  4.023364  0  0  -0.171236  0  4.042752  0  0  -0.032958  -0.157245  0  4.011139  0
C  C90  1  0.05883241  0.03970644  0.17446339  1  0  -0.161674  0  3.695865  0  0  -0.179831  0  3.975508  0  0  -0.17791  0  3.99196  0  0  -0.094627  -0.180754  0  3.963864  0
C  C91  1  0.55883430  0.86524320  0.03970815  1  0  -0.161764  0  3.695923  0  0  -0.179943  0  3.975611  0  0  -0.17802  0  3.992062  0  0  -0.094696  -0.180888  0  3.963977  0
C  C92  1  0.05883114  0.82553851  0.86524507  1  0  -0.161716  0  3.695894  0  0  -0.179877  0  3.975534  0  0  -0.177955  0  3.991989  0  0  -0.09468  -0.180814  0  3.963892  0
C  C93  1  0.55883086  0.96029374  0.82553811  1  0  -0.161726  0  3.695865  0  0  -0.179887  0  3.975511  0  0  -0.177965  0  3.991965  0  0  -0.094682  -0.180819  0  3.963842  0
C  C94  1  0.05883399  0.13475697  0.96029408  1  0  -0.161699  0  3.695853  0  0  -0.179866  0  3.975512  0  0  -0.177944  0  3.991965  0  0  -0.094652  -0.180793  0  3.963836  0
C  C95  1  0.55883615  0.17446506  0.13475518  1  0  -0.161575  0  3.695902  0  0  -0.179732  0  3.97555  0  0  -0.177806  0  3.991998  0  0  -0.094596  -0.180687  0  3.963918  0
C  C96  1  0.95733434  0.11845724  0.22447126  1  0  -0.093032  0  3.816264  0  0  -0.11071  0  4.080485  0  0  -0.114803  0  4.100399  0  0  -0.110697  -0.107681  0  4.066896  0
C  C97  1  0.45733616  0.89398891  0.11845940  1  0  -0.093125  0  3.816437  0  0  -0.110807  0  4.08066  0  0  -0.114898  0  4.100572  0  0  -0.110709  -0.107779  0  4.067074  0
C  C98  1  0.95733332  0.77552923  0.89398649  1  0  -0.093108  0  3.816223  0  0  -0.110786  0  4.080469  0  0  -0.114879  0  4.100382  0  0  -0.110689  -0.107757  0  4.066883  0
C  C99  1  0.45733267  0.88153971  0.77552666  1  0  -0.093111  0  3.816363  0  0  -0.110795  0  4.080614  0  0  -0.114887  0  4.100531  0  0  -0.11071  -0.107765  0  4.067031  0
C  C100  1  0.95733387  0.10601313  0.88154255  1  0  -0.09307  0  3.816209  0  0  -0.11074  0  4.080444  0  0  -0.114831  0  4.100355  0  0  -0.110711  -0.107709  0  4.066861  0
C  C101  1  0.45733871  0.22447026  0.10600976  1  0  -0.093256  0  3.81655  0  0  -0.110931  0  4.080801  0  0  -0.115024  0  4.100712  0  0  -0.110741  -0.107904  0  4.067216  0
C  C102  1  0.00654462  0.22974100  0.29579669  1  0  -0.073982  0  3.753784  0  0  -0.104264  0  4.007697  0  0  -0.100356  0  4.025202  0  0  -0.093942  -0.10663  0  3.996001  0
C  C103  1  0.50654997  0.93394675  0.22974349  1  0  -0.073828  0  3.753827  0  0  -0.104066  0  4.007725  0  0  -0.100157  0  4.025227  0  0  -0.093864  -0.106432  0  3.996027  0
C  C104  1  0.00654698  0.70420244  0.93394452  1  0  -0.073872  0  3.753475  0  0  -0.104149  0  4.00736  0  0  -0.100239  0  4.024862  0  0  -0.093875  -0.106516  0  3.995664  0
C  C105  1  0.50654441  0.77025672  0.70420345  1  0  -0.073827  0  3.753676  0  0  -0.104114  0  4.007557  0  0  -0.100209  0  4.025063  0  0  -0.093889  -0.106482  0  3.995861  0
C  C106  1  0.00654409  0.06605522  0.77025804  1  0  -0.073912  0  3.753555  0  0  -0.104206  0  4.00745  0  0  -0.100302  0  4.024956  0  0  -0.093918  -0.106574  0  3.995754  0
C  C107  1  0.50655310  0.29579867  0.06605437  1  0  -0.073812  0  3.753759  0  0  -0.10407  0  4.007638  0  0  -0.100159  0  4.025136  0  0  -0.093812  -0.106437  0  3.995941  0
C  C108  1  0.65683515  0.31186252  0.43900070  1  0  -0.706847  0  3.49922  0  0  -0.742263  0  3.720695  0  0  -0.755706  0  3.727311  0  0  -0.338605  -0.732424  0  3.71574  0
C  C109  1  0.15683743  0.87286317  0.31186449  1  0  -0.706849  0  3.499329  0  0  -0.742283  0  3.720791  0  0  -0.755718  0  3.727415  0  0  -0.338609  -0.732443  0  3.71584  0
C  C110  1  0.65683456  0.56100017  0.87286496  1  0  -0.706823  0  3.499229  0  0  -0.742201  0  3.720756  0  0  -0.755642  0  3.727376  0  0  -0.338575  -0.732363  0  3.715801  0
C  C111  1  0.15683643  0.68813579  0.56100084  1  0  -0.706836  0  3.499305  0  0  -0.742266  0  3.72078  0  0  -0.755703  0  3.727407  0  0  -0.338592  -0.732427  0  3.715828  0
C  C112  1  0.65683315  0.12713853  0.68813728  1  0  -0.706858  0  3.49924  0  0  -0.742265  0  3.720724  0  0  -0.755715  0  3.727325  0  0  -0.338602  -0.732426  0  3.715773  0
C  C113  1  0.15683803  0.43899983  0.12713596  1  0  -0.706802  0  3.499297  0  0  -0.742242  0  3.720769  0  0  -0.755688  0  3.727381  0  0  -0.338599  -0.732404  0  3.715818  0
C  C114  1  0.49625016  0.52288725  0.37944098  1  0  -0.712129  0  3.508055  0  0  -0.749716  0  3.734022  0  0  -0.763345  0  3.740829  0  0  -0.334642  -0.740298  0  3.729798  0
C  C115  1  0.99625051  0.14344702  0.52288936  1  0  -0.712142  0  3.508078  0  0  -0.749727  0  3.73404  0  0  -0.763358  0  3.740844  0  0  -0.334632  -0.740312  0  3.729812  0
C  C116  1  0.49624939  0.62056081  0.14344883  1  0  -0.712027  0  3.507982  0  0  -0.749641  0  3.733939  0  0  -0.763271  0  3.740748  0  0  -0.3346  -0.740222  0  3.729716  0
C  C117  1  0.99625196  0.47710878  0.62055437  1  0  -0.712203  0  3.508002  0  0  -0.749786  0  3.733949  0  0  -0.763418  0  3.740755  0  0  -0.334653  -0.74036  0  3.729732  0
C  C118  1  0.49625061  0.85655326  0.47711180  1  0  -0.712172  0  3.50808  0  0  -0.749769  0  3.734047  0  0  -0.763396  0  3.740854  0  0  -0.334638  -0.740347  0  3.729827  0
C  C119  1  0.99625172  0.37944456  0.85655414  1  0  -0.712186  0  3.50809  0  0  -0.749761  0  3.734031  0  0  -0.763403  0  3.740823  0  0  -0.334632  -0.740339  0  3.729811  0
C  C120  1  0.39373158  0.49147952  0.63156948  1  0  -0.722363  0  3.516763  0  0  -0.764046  0  3.748033  0  0  -0.777378  0  3.753458  0  0  -0.33637  -0.754874  0  3.744733  0
C  C121  1  0.89373554  0.85990887  0.49148082  1  0  -0.722258  0  3.516801  0  0  -0.763999  0  3.748029  0  0  -0.77733  0  3.753451  0  0  -0.33636  -0.754827  0  3.744731  0
C  C122  1  0.39373541  0.36842996  0.85990929  1  0  -0.722342  0  3.516832  0  0  -0.764054  0  3.748064  0  0  -0.777387  0  3.753486  0  0  -0.336359  -0.754882  0  3.744767  0
C  C123  1  0.89373207  0.50851754  0.36842907  1  0  -0.722339  0  3.516786  0  0  -0.764086  0  3.748024  0  0  -0.777418  0  3.753448  0  0  -0.336386  -0.754914  0  3.744726  0
C  C124  1  0.39373213  0.14008903  0.50851963  1  0  -0.722332  0  3.516688  0  0  -0.764026  0  3.747953  0  0  -0.777356  0  3.753374  0  0  -0.336367  -0.754853  0  3.744654  0
C  C125  1  0.89373427  0.63157134  0.14008992  1  0  -0.722306  0  3.516685  0  0  -0.764013  0  3.747952  0  0  -0.777345  0  3.753375  0  0  -0.336374  -0.754842  0  3.744651  0
S  S126  1  0.21370749  0.10050743  0.21665795  1  0  0.16935  0  2.69656  0  0  0.180395  0  3.030432  0  0  0.178394  0  3.038898  0  0  0.106725  0.18147  0  3.02555  0
S  S127  1  0.71370751  0.88385033  0.10050839  1  0  0.169479  0  2.696541  0  0  0.180526  0  3.030419  0  0  0.178523  0  3.038885  0  0  0.106778  0.181602  0  3.025546  0
S  S128  1  0.21370540  0.78334197  0.88384960  1  0  0.169359  0  2.696615  0  0  0.180405  0  3.030496  0  0  0.178401  0  3.038964  0  0  0.106704  0.181479  0  3.025621  0
S  S129  1  0.71370503  0.89949078  0.78334074  1  0  0.169393  0  2.696576  0  0  0.180429  0  3.03045  0  0  0.178426  0  3.038916  0  0  0.106726  0.181504  0  3.025573  0
S  S130  1  0.21370701  0.11615212  0.89949242  1  0  0.169373  0  2.696611  0  0  0.180413  0  3.030486  0  0  0.178413  0  3.038951  0  0  0.106719  0.181487  0  3.025609  0
S  S131  1  0.71371013  0.21665794  0.11614773  1  0  0.169383  0  2.69654  0  0  0.180398  0  3.030402  0  0  0.178394  0  3.038868  0  0  0.106717  0.181472  0  3.025533  0
O  O132  1  0.35921601  0.30570730  0.37004398  1  0  -0.613944  0  2.024382  0  0  -0.53945  0  2.262394  0  0  -0.565995  0  2.255492  0  0  -0.283956  -0.520949  0  2.266366  0
O  O133  1  0.85922153  0.93566360  0.30570924  1  0  -0.613975  0  2.024243  0  0  -0.539473  0  2.262252  0  0  -0.566019  0  2.25535  0  0  -0.283987  -0.52097  0  2.26623  0
O  O134  1  0.35921554  0.62995439  0.93565971  1  0  -0.613972  0  2.024229  0  0  -0.539461  0  2.262221  0  0  -0.566006  0  2.255315  0  0  -0.283975  -0.520962  0  2.266199  0
O  O135  1  0.85921682  0.69429236  0.62995580  1  0  -0.614016  0  2.024216  0  0  -0.53952  0  2.262224  0  0  -0.566065  0  2.255314  0  0  -0.283998  -0.521017  0  2.266194  0
O  O136  1  0.35921732  0.06433776  0.69429285  1  0  -0.613997  0  2.024201  0  0  -0.539487  0  2.262193  0  0  -0.566035  0  2.255293  0  0  -0.283976  -0.520981  0  2.266158  0
O  O137  1  0.85922231  0.37004527  0.06433639  1  0  -0.614018  0  2.024208  0  0  -0.539494  0  2.26219  0  0  -0.566041  0  2.255288  0  0  -0.284008  -0.520992  0  2.266169  0
O  O138  1  0.69012452  0.56811603  0.58179185  1  0  -0.649819  0  2.057203  0  0  -0.579463  0  2.293206  0  0  -0.606262  0  2.286868  0  0  -0.283535  -0.560643  0  2.296921  0
O  O139  1  0.19012839  0.98632727  0.56811579  1  0  -0.649783  0  2.05726  0  0  -0.579439  0  2.293253  0  0  -0.606229  0  2.2869  0  0  -0.283519  -0.560619  0  2.296967  0
O  O140  1  0.69012981  0.41821498  0.98632800  1  0  -0.649791  0  2.057015  0  0  -0.579448  0  2.293011  0  0  -0.606247  0  2.286674  0  0  -0.283516  -0.560624  0  2.296724  0
O  O141  1  0.19012634  0.43188392  0.41820692  1  0  -0.649874  0  2.057184  0  0  -0.579515  0  2.293176  0  0  -0.606309  0  2.286827  0  0  -0.283565  -0.560695  0  2.29689  0
O  O142  1  0.69013150  0.01367353  0.43188561  1  0  -0.649839  0  2.057262  0  0  -0.579497  0  2.293246  0  0  -0.606291  0  2.286902  0  0  -0.283541  -0.560675  0  2.296962  0
O  O143  1  0.19012707  0.58178837  0.01367394  1  0  -0.649816  0  2.057045  0  0  -0.579444  0  2.293006  0  0  -0.606242  0  2.286665  0  0  -0.283499  -0.560619  0  2.296718  0
