# generated using pymatgen
data_ZnH12C18N3O4
_symmetry_space_group_name_H-M   'P 1'
_cell_length_a   8.05400877
_cell_length_b   12.13815088
_cell_length_c   12.23316229
_cell_angle_alpha   112.75620154
_cell_angle_beta   101.29172115
_cell_angle_gamma   101.74899201
_symmetry_Int_Tables_number   1
_chemical_formula_structural   ZnH12C18N3O4
_chemical_formula_sum   'Zn2 H24 C36 N6 O8'
_cell_volume   1028.58475805
_cell_formula_units_Z   2
loop_
 _symmetry_equiv_pos_site_id
 _symmetry_equiv_pos_as_xyz
  1  'x, y, z'
loop_
 _atom_site_type_symbol
 _atom_site_label
 _atom_site_symmetry_multiplicity
 _atom_site_fract_x
 _atom_site_fract_y
 _atom_site_fract_z
 _atom_site_occupancy
 _atom_site_pbe_bader_charge
 _atom_site_pbe_bader_spin_density
 _atom_site_pbe_cm5_charge
 _atom_site_pbe_ddec_charge
 _atom_site_pbe_ddec_spin_density
 _atom_site_pbe_ddec_sum_bond_order
 _atom_site_pbe_magmom
Zn  Zn0  1  0.58159485  0.93019926  0.91584825  1  1.297156  0  0.668912  0.837629  0  2.420195  0
Zn  Zn1  1  0.41839133  0.06979073  0.08414907  1  1.297188  0  0.668808  0.837547  0  2.420589  0
H  H2  1  0.55803130  0.78412991  0.62160802  1  0.156928  0  0.149254  0.123925  0  0.973589  0
H  H3  1  0.44196493  0.21586305  0.37839423  1  0.156922  0  0.149238  0.123935  0  0.973508  0
H  H4  1  0.95769496  0.85962906  0.94304583  1  0.159317  0  0.141805  0.11773  0  0.993435  0
H  H5  1  0.04230965  0.14036855  0.05695272  1  0.159301  0  0.141814  0.11774  0  0.993473  0
H  H6  1  0.91702388  0.77419616  0.51648090  1  0.097287  0  0.113421  0.101491  0  1.01175  0
H  H7  1  0.08297908  0.22581262  0.48351989  1  0.097378  0  0.113475  0.101642  0  1.011627  0
H  H8  1  0.70188830  0.66175105  0.45901994  1  0.07414  0  0.123734  0.110427  0  0.95064  0
H  H9  1  0.29811216  0.33825762  0.54097638  1  0.074188  0  0.123754  0.110475  0  0.950696  0
H  H10  1  0.18794113  0.72326235  0.59302361  1  0.11806  0  0.102424  0.107416  0  1.025943  0
H  H11  1  0.81205936  0.27674626  0.40696943  1  0.118469  0  0.102409  0.107534  0  1.025923  0
H  H12  1  0.67036250  0.44475272  0.42790946  1  0.047922  0  0.09808  0.091826  0  1.013051  0
H  H13  1  0.32963168  0.55525308  0.57208577  1  0.04811  0  0.098074  0.09183  0  1.013051  0
H  H14  1  0.14966972  0.75961260  0.13707589  1  0.056263  0  0.099381  0.103572  0  1.034926  0
H  H15  1  0.85033430  0.24038706  0.86293397  1  0.056279  0  0.099405  0.103585  0  1.034999  0
H  H16  1  0.99381122  0.64692432  0.23882653  1  0.064212  0  0.092874  0.09347  0  1.018115  0
H  H17  1  0.00617451  0.35306481  0.76117533  1  0.064087  0  0.092815  0.09337  0  1.018002  0
H  H18  1  0.18292964  0.55371738  0.77170316  1  0.088778  0  0.096234  0.10041  0  1.038069  0
H  H19  1  0.81705979  0.44627465  0.22830272  1  0.088549  0  0.096238  0.100447  0  1.038184  0
H  H20  1  0.31248410  0.94887331  0.57899372  1  0.079322  0  0.101567  0.107555  0  1.01379  0
H  H21  1  0.68752489  0.05113186  0.42100984  1  0.079576  0  0.101563  0.10758  0  1.013768  0
H  H22  1  0.99424095  0.07852267  0.81525801  1  0.110481  0  0.107581  0.11535  0  1.014818  0
H  H23  1  0.00576349  0.92146838  0.18473730  1  0.110287  0  0.107563  0.115413  0  1.014769  0
H  H24  1  0.22202818  0.91802944  0.35856216  1  0.050918  0  0.102394  0.106275  0  0.998639  0
H  H25  1  0.77798296  0.08197484  0.64144218  1  0.051059  0  0.102389  0.106293  0  0.998602  0
C  C26  1  0.67819676  0.78993808  0.68471016  1  0.961552  0  0.166579  0.069931  0  3.911651  0
C  C27  1  0.32180480  0.21006139  0.31529029  1  0.961155  0  0.166559  0.069915  0  3.911411  0
C  C28  1  0.88342520  0.82793090  0.84656691  1  1.012053  0  0.159755  0.155379  0  3.924758  0
C  C29  1  0.11657334  0.17207037  0.15343216  1  1.012126  0  0.15975  0.155373  0  3.924643  0
C  C30  1  0.83464539  0.69681342  0.52673514  1  0.272383  0  -0.03583  -0.132055  0  3.891157  0
C  C31  1  0.16535731  0.30319155  0.47326095  1  0.2722  0  -0.035948  -0.132364  0  3.891406  0
C  C32  1  0.92010515  0.59446722  0.51023395  1  -0.052821  0  -0.01039  0.090173  0  3.981941  0
C  C33  1  0.07990513  0.40554056  0.48975930  1  -0.052505  0  -0.010241  0.090314  0  3.981801  0
C  C34  1  0.10580772  0.62515544  0.55008954  1  -0.079273  0  -0.082196  -0.114843  0  3.963526  0
C  C35  1  0.89419914  0.37485323  0.44990357  1  -0.079507  0  -0.082245  -0.115139  0  3.963442  0
C  C36  1  0.81527666  0.46905390  0.46033217  1  0.031805  0  -0.08762  -0.12547  0  3.989598  0
C  C37  1  0.18472317  0.53095261  0.53964774  1  0.031683  0  -0.087617  -0.125528  0  3.989506  0
C  C38  1  0.17578664  0.66790414  0.95587473  1  -0.059281  0  -0.018555  -0.024845  0  3.983418  0
C  C39  1  0.82420050  0.33209428  0.04412664  1  -0.058737  0  -0.018587  -0.024819  0  3.983276  0
C  C40  1  0.11780136  0.67009670  0.05571671  1  -0.018723  0  -0.084764  -0.148369  0  3.943694  0
C  C41  1  0.88219694  0.32989814  0.94428568  1  -0.019469  0  -0.084825  -0.148416  0  3.943767  0
C  C42  1  0.02045856  0.55835854  0.05432569  1  0.01624  0  -0.005376  0.08064  0  4.000567  0
C  C43  1  0.97953484  0.44164014  0.94568645  1  -0.023226  0  -0.005372  0.080515  0  4.000767  0
C  C44  1  0.96141926  0.55777466  0.15638231  1  -0.072443  0  -0.095412  -0.134893  0  3.993948  0
C  C45  1  0.03857257  0.44222027  0.84362905  1  -0.072054  0  -0.095281  -0.134654  0  3.993689  0
C  C46  1  0.13594652  0.55237092  0.84890609  1  0.012805  0  -0.091306  -0.097393  0  3.996091  0
C  C47  1  0.86404419  0.44762111  0.15109915  1  0.013058  0  -0.091229  -0.097348  0  3.99633  0
C  C48  1  0.28536146  0.78741937  0.96318663  1  1.577151  0  0.214474  0.592474  0  4.176153  0
C  C49  1  0.71463722  0.21256690  0.03680369  1  1.576974  0  0.214373  0.592313  0  4.175937  0
C  C50  1  0.16529281  0.01207651  0.70555652  1  -0.000751  0  -0.017831  -0.026101  0  3.974794  0
C  C51  1  0.83471676  0.98792402  0.29444705  1  -0.000592  0  -0.01788  -0.026187  0  3.974758  0
C  C52  1  0.07738515  0.98135891  0.49085496  1  -0.030888  0  -0.013164  0.062268  0  4.031328  0
C  C53  1  0.92262824  0.01864165  0.50914833  1  -0.080648  0  -0.013141  0.062289  0  4.031418  0
C  C54  1  0.19574328  0.97877176  0.59127876  1  -0.062273  0  -0.084725  -0.153434  0  3.96111  0
C  C55  1  0.80427495  0.02123720  0.40872418  1  -0.062405  0  -0.084705  -0.153403  0  3.961204  0
C  C56  1  0.29011201  0.00405277  0.80878918  1  1.576874  0  0.212121  0.586265  0  4.193927  0
C  C57  1  0.70989427  0.99593366  0.19120632  1  1.576972  0  0.212163  0.586378  0  4.193695  0
C  C58  1  0.01460138  0.05158472  0.72418887  1  -0.035798  0  -0.086116  -0.094469  0  3.983421  0
C  C59  1  0.98541364  0.94841949  0.27581026  1  -0.036096  0  -0.08612  -0.094587  0  3.983108  0
C  C60  1  0.10438053  0.94640257  0.37208605  1  -0.042055  0  -0.094526  -0.147214  0  4.004553  0
C  C61  1  0.89563464  0.05359611  0.62791516  1  -0.042161  0  -0.094576  -0.147354  0  4.004945  0
N  N62  1  0.71973545  0.84001289  0.80854247  1  -1.204993  0  -0.340682  -0.280443  0  3.519891  0
N  N63  1  0.28025986  0.15998367  0.19145443  1  -1.204573  0  -0.340721  -0.28049  0  3.519654  0
N  N64  1  0.81181315  0.74931159  0.65096057  1  -0.809502  0  -0.130374  0.154519  0  3.760604  0
N  N65  1  0.18819295  0.25069254  0.34903812  1  -0.80945  0  -0.130372  0.154591  0  3.760594  0
N  N66  1  0.94413133  0.77335531  0.75283690  1  -0.658816  0  -0.205145  -0.231122  0  3.101466  0
N  N67  1  0.05587173  0.22665066  0.24716287  1  -0.65887  0  -0.205093  -0.23107  0  3.101445  0
O  O68  1  0.38963116  0.77855572  0.89666457  1  -1.172433  0  -0.31595  -0.537876  0  2.321209  0
O  O69  1  0.61034611  0.22144365  0.10334316  1  -1.172222  0  -0.315877  -0.537864  0  2.320492  0
O  O70  1  0.40145847  0.94565919  0.77947032  1  -1.168793  0  -0.319704  -0.553152  0  2.324688  0
O  O71  1  0.59853150  0.05434300  0.22053282  1  -1.168708  0  -0.319859  -0.553432  0  2.324031  0
O  O72  1  0.26772075  0.88948290  0.03765845  1  -1.180694  0  -0.320457  -0.564848  0  2.343262  0
O  O73  1  0.73227342  0.11051767  0.96235530  1  -1.180934  0  -0.320403  -0.564687  0  2.343537  0
O  O74  1  0.27389723  0.05614587  0.91670018  1  -1.167763  0  -0.310426  -0.542036  0  2.33448  0
O  O75  1  0.72609291  0.94384814  0.08331225  1  -1.167754  0  -0.310335  -0.541899  0  2.335132  0
