# generated using pymatgen
data_Cd2H14C10N2O9
_symmetry_space_group_name_H-M   'P 1'
_cell_length_a   8.58646479
_cell_length_b   8.98498078
_cell_length_c   19.23340000
_cell_angle_alpha   90.00000000
_cell_angle_beta   90.00000000
_cell_angle_gamma   94.76292194
_symmetry_Int_Tables_number   1
_chemical_formula_structural   Cd2H14C10N2O9
_chemical_formula_sum   'Cd8 H56 C40 N8 O36'
_cell_volume   1478.71782752
_cell_formula_units_Z   4
loop_
 _symmetry_equiv_pos_site_id
 _symmetry_equiv_pos_as_xyz
  1  'x, y, z'
loop_
 _atom_site_type_symbol
 _atom_site_label
 _atom_site_symmetry_multiplicity
 _atom_site_fract_x
 _atom_site_fract_y
 _atom_site_fract_z
 _atom_site_occupancy
 _atom_site_pbe_bader_charge
 _atom_site_pbe_bader_spin_density
 _atom_site_pbe_cm5_charge
 _atom_site_pbe_ddec_charge
 _atom_site_pbe_ddec_spin_density
 _atom_site_pbe_ddec_sum_bond_order
 _atom_site_pbe_magmom
Cd  Cd0  1  0.85379571  0.57306751  0.94035272  1  1.290042  0  0.776938  0.917014  0  2.133041  0
Cd  Cd1  1  0.64620755  0.92693352  0.44035272  1  1.289941  0  0.77693  0.916988  0  2.13306  0
Cd  Cd2  1  0.14620617  0.42693430  0.05964676  1  1.290052  0  0.776925  0.916994  0  2.13307  0
Cd  Cd3  1  0.35379190  0.07306716  0.55964780  1  1.289928  0  0.776941  0.917017  0  2.133009  0
Cd  Cd4  1  0.31625488  0.06884445  0.93779623  1  1.385812  0  0.79983  1.115892  0  2.030966  0
Cd  Cd5  1  0.18375368  0.43115701  0.43779623  1  1.385786  0  0.799823  1.115947  0  2.030918  0
Cd  Cd6  1  0.68374797  0.93115512  0.06220221  1  1.38578  0  0.799858  1.115958  0  2.030911  0
Cd  Cd7  1  0.81625179  0.56884591  0.56220325  1  1.385857  0  0.799838  1.115925  0  2.030929  0
H  H8  1  0.08701110  0.88792729  0.98729762  1  0.634242  0  0.288004  0.379938  0  0.96151  0
H  H9  1  0.41299387  0.61207374  0.48730438  1  0.634212  0  0.288011  0.379957  0  0.961486  0
H  H10  1  0.91298825  0.11207228  0.01269458  1  0.634247  0  0.288044  0.380041  0  0.961401  0
H  H11  1  0.58700898  0.38792583  0.51270290  1  0.634219  0  0.287994  0.379989  0  0.961451  0
H  H12  1  0.22126048  0.85095592  0.03825117  1  0.636035  0  0.285379  0.384409  0  0.949302  0
H  H13  1  0.27874110  0.64904623  0.53825429  1  0.63605  0  0.285389  0.384435  0  0.949287  0
H  H14  1  0.77873645  0.14904254  0.96174571  1  0.636023  0  0.285408  0.384479  0  0.949222  0
H  H15  1  0.72125980  0.35095781  0.46174935  1  0.636084  0  0.285346  0.384375  0  0.949366  0
H  H16  1  0.61545011  0.57493595  0.74468061  1  0.058839  0  0.104462  0.096818  0  0.975637  0
H  H17  1  0.88454722  0.92505056  0.24468321  1  0.057891  0  0.104413  0.096769  0  0.975743  0
H  H18  1  0.38454944  0.42506585  0.25531835  1  0.058866  0  0.104479  0.096812  0  0.975669  0
H  H19  1  0.11545233  0.07493784  0.75531835  1  0.058862  0  0.104461  0.096816  0  0.975652  0
H  H20  1  0.68504839  0.41469613  0.78210821  1  0.011828  0  0.106086  0.08402  0  1.015043  0
H  H21  1  0.81495563  0.08529975  0.28210405  1  0.011935  0  0.10615  0.084086  0  1.015  0
H  H22  1  0.31495223  0.58530456  0.21789231  1  0.011822  0  0.10608  0.084017  0  1.015074  0
H  H23  1  0.18504683  0.91469536  0.71789231  1  0.011852  0  0.106084  0.084009  0  1.015048  0
H  H24  1  0.89076519  0.57595897  0.72025435  1  0.1104  0  0.106921  0.106651  0  0.998004  0
H  H25  1  0.60923670  0.92403983  0.22025487  1  0.110283  0  0.106943  0.106701  0  0.998028  0
H  H26  1  0.10923310  0.42404172  0.27974461  1  0.110399  0  0.106919  0.106622  0  0.99803  0
H  H27  1  0.39076566  0.07595416  0.77974617  1  0.110381  0  0.106926  0.106668  0  0.997963  0
H  H28  1  0.86255808  0.72467651  0.77732538  1  0.036005  0  0.10711  0.087428  0  0.978283  0
H  H29  1  0.63743537  0.77531894  0.27732486  1  0.035936  0  0.107106  0.087422  0  0.978292  0
H  H30  1  0.13744244  0.27532306  0.22267358  1  0.035997  0  0.107114  0.087428  0  0.978278  0
H  H31  1  0.36256146  0.22467840  0.72267306  1  0.035993  0  0.107102  0.087441  0  0.978281  0
H  H32  1  0.42368745  0.42801092  0.84110714  1  0.030182  0  0.099736  0.096095  0  0.990879  0
H  H33  1  0.07631160  0.07198831  0.34110610  1  0.03017  0  0.099742  0.096055  0  0.990875  0
H  H34  1  0.57631346  0.57199312  0.15889286  1  0.030251  0  0.099713  0.096044  0  0.990891  0
H  H35  1  0.92368620  0.92800679  0.65889494  1  0.030116  0  0.099723  0.096075  0  0.990809  0
H  H36  1  0.45804365  0.49473340  0.92764462  1  0.083048  0  0.116993  0.127879  0  0.969724  0
H  H37  1  0.04195492  0.00527365  0.42764514  1  0.083052  0  0.11699  0.127834  0  0.969719  0
H  H38  1  0.54195076  0.50527622  0.07235278  1  0.083041  0  0.116958  0.127842  0  0.969746  0
H  H39  1  0.95804522  0.99472145  0.57235382  1  0.083057  0  0.116967  0.127814  0  0.969693  0
H  H40  1  0.45975195  0.73072076  0.83954267  1  0.061715  0  0.105795  0.107822  0  0.999212  0
H  H41  1  0.04025050  0.76927803  0.33954215  1  0.061704  0  0.105779  0.107799  0  0.999221  0
H  H42  1  0.54025012  0.26928327  0.16045889  1  0.061694  0  0.105767  0.107799  0  0.999231  0
H  H43  1  0.95974827  0.23071484  0.66045525  1  0.061754  0  0.105797  0.107837  0  0.999292  0
H  H44  1  0.65802257  0.80114999  0.83278723  1  0.089699  0  0.121289  0.125139  0  0.963417  0
H  H45  1  0.84198069  0.69885104  0.33278879  1  0.089747  0  0.121302  0.125129  0  0.963438  0
H  H46  1  0.34197951  0.19885405  0.16721277  1  0.089954  0  0.121297  0.125151  0  0.963409  0
H  H47  1  0.15801867  0.30114853  0.66721173  1  0.089787  0  0.121298  0.125152  0  0.963329  0
H  H48  1  0.07747699  0.37456414  0.77490303  1  0.050317  0  0.102648  0.096458  0  0.997658  0
H  H49  1  0.42252332  0.12543621  0.27490563  1  0.050403  0  0.102618  0.09649  0  0.99774  0
H  H50  1  0.92252489  0.62543767  0.22509541  1  0.050376  0  0.102611  0.096482  0  0.997762  0
H  H51  1  0.57747574  0.87456001  0.72509645  1  0.050433  0  0.102604  0.096456  0  0.997741  0
H  H52  1  0.89275787  0.32527865  0.81341001  1  0.064943  0  0.117522  0.123179  0  0.978435  0
H  H53  1  0.60724528  0.17472058  0.31341053  1  0.064927  0  0.117509  0.123183  0  0.978502  0
H  H54  1  0.10724382  0.67472092  0.18658843  1  0.064935  0  0.117519  0.123194  0  0.978471  0
H  H55  1  0.39275514  0.82527787  0.68658999  1  0.064918  0  0.117507  0.123179  0  0.978457  0
H  H56  1  0.14698009  0.68247392  0.76836285  1  0.072571  0  0.106023  0.104687  0  0.989691  0
H  H57  1  0.35302032  0.81752822  0.26836389  1  0.072608  0  0.10604  0.104737  0  0.989663  0
H  H58  1  0.85301946  0.31752788  0.23163507  1  0.072631  0  0.106042  0.104731  0  0.98965  0
H  H59  1  0.64698350  0.18246911  0.73163611  1  0.072606  0  0.106031  0.104696  0  0.989657  0
H  H60  1  0.21123371  0.58892977  0.84273191  1  0.06889  0  0.115125  0.111959  0  1.001547  0
H  H61  1  0.28876923  0.91107461  0.34273399  1  0.069106  0  0.115122  0.111914  0  1.001581  0
H  H62  1  0.78876827  0.41107315  0.15726601  1  0.069086  0  0.115134  0.111947  0  1.001567  0
H  H63  1  0.71123381  0.08892719  0.65726549  1  0.069073  0  0.115146  0.111955  0  1.001534  0
C  C64  1  0.69037047  0.53680308  0.78664979  1  0.327346  0  -0.07163  -0.092657  0  3.913321  0
C  C65  1  0.80963075  0.96318790  0.28664875  1  0.328281  0  -0.071592  -0.092607  0  3.913322  0
C  C66  1  0.30962792  0.46319872  0.21335021  1  0.327341  0  -0.071643  -0.092668  0  3.913315  0
C  C67  1  0.19037268  0.03680497  0.71335073  1  0.327354  0  -0.07159  -0.092581  0  3.913129  0
C  C68  1  0.85680772  0.60203683  0.77373423  1  0.244181  0  -0.072094  -0.094635  0  3.896899  0
C  C69  1  0.64318913  0.89795750  0.27373423  1  0.244288  0  -0.07212  -0.0947  0  3.896993  0
C  C70  1  0.14319173  0.39796386  0.22626525  1  0.244187  0  -0.072105  -0.094618  0  3.896925  0
C  C71  1  0.35680964  0.10203537  0.72626473  1  0.244209  0  -0.072118  -0.094652  0  3.896961  0
C  C72  1  0.51509674  0.45606891  0.88047823  1  0.280105  0  -0.076849  -0.235732  0  3.915981  0
C  C73  1  0.98490194  0.04393255  0.38047667  1  0.280014  0  -0.076826  -0.235508  0  3.915843  0
C  C74  1  0.48489970  0.54393736  0.11952177  1  0.259005  0  -0.076786  -0.235634  0  3.915794  0
C  C75  1  0.01509712  0.95606367  0.61952385  1  0.28002  0  -0.076815  -0.235551  0  3.915679  0
C  C76  1  0.59102772  0.31307398  0.90016378  1  1.595239  0  0.206564  0.615261  0  4.179486  0
C  C77  1  0.90897349  0.18692971  0.40016118  1  1.595382  0  0.206449  0.614966  0  4.179663  0
C  C78  1  0.40896678  0.68693675  0.09983934  1  1.616365  0  0.206559  0.615172  0  4.179568  0
C  C79  1  0.09102878  0.81306316  0.59984038  1  1.596084  0  0.206469  0.614965  0  4.179741  0
C  C80  1  0.57735178  0.72174931  0.86159649  1  0.266986  0  -0.067832  -0.219542  0  3.909261  0
C  C81  1  0.92264924  0.77825284  0.36159753  1  0.266978  0  -0.067833  -0.21949  0  3.909356  0
C  C82  1  0.42265000  0.27825138  0.13840299  1  0.26679  0  -0.067802  -0.219528  0  3.909242  0
C  C83  1  0.07734536  0.22174561  0.63840091  1  0.266931  0  -0.067791  -0.219529  0  3.909352  0
C  C84  1  0.57992581  0.77987112  0.93597180  1  1.574667  0  0.208708  0.619633  0  4.146602  0
C  C85  1  0.92007745  0.72012991  0.43597232  1  1.574558  0  0.20873  0.619639  0  4.146473  0
C  C86  1  0.42007588  0.22012845  0.06402872  1  1.574607  0  0.208747  0.619725  0  4.14642  0
C  C87  1  0.07992327  0.27987189  0.56402768  1  1.5745  0  0.208756  0.619717  0  4.146503  0
C  C88  1  0.00266565  0.39576259  0.81989248  1  0.261559  0  -0.072465  -0.226812  0  3.905511  0
C  C89  1  0.49733825  0.10423887  0.31989508  1  0.26155  0  -0.072433  -0.226975  0  3.905742  0
C  C90  1  0.99733506  0.60423921  0.18010492  1  0.26156  0  -0.072434  -0.226947  0  3.90575  0
C  C91  1  0.50266567  0.89575959  0.68010596  1  0.261473  0  -0.072433  -0.226873  0  3.90574  0
C  C92  1  0.08203443  0.33950253  0.88582518  1  1.610081  0  0.21473  0.628947  0  4.149217  0
C  C93  1  0.41796569  0.16049558  0.38582778  1  1.609792  0  0.214747  0.62905  0  4.148936  0
C  C94  1  0.91796143  0.66049704  0.11417274  1  1.609797  0  0.214765  0.628953  0  4.149145  0
C  C95  1  0.58203473  0.83950287  0.61417274  1  1.609792  0  0.214791  0.629011  0  4.148969  0
C  C96  1  0.11543368  0.65022113  0.82227791  1  0.235209  0  -0.073829  -0.231953  0  3.92997  0
C  C97  1  0.38456781  0.84977990  0.32227843  1  0.234792  0  -0.073824  -0.231959  0  3.929964  0
C  C98  1  0.88456587  0.34978067  0.17772053  1  0.234991  0  -0.073842  -0.231977  0  3.92988  0
C  C99  1  0.61543485  0.15021744  0.67772157  1  0.235302  0  -0.073841  -0.23189  0  3.929864  0
C  C100  1  0.11602385  0.78995381  0.86784812  1  1.580065  0  0.208481  0.607494  0  4.173126  0
C  C101  1  0.38397773  0.71004833  0.36784916  1  1.580064  0  0.2085  0.607531  0  4.17291  0
C  C102  1  0.88397686  0.21004799  0.13214928  1  1.580093  0  0.208524  0.607563  0  4.172754  0
C  C103  1  0.61602279  0.28995124  0.63215188  1  1.579738  0  0.208501  0.607515  0  4.172918  0
N  N104  1  0.63197392  0.57255153  0.85624435  1  -1.025869  0  -0.348435  -0.099499  0  3.576683  0
N  N105  1  0.86802574  0.92744838  0.35624539  1  -1.025907  0  -0.348473  -0.099597  0  3.576714  0
N  N106  1  0.36802669  0.42744915  0.14375513  1  -1.025852  0  -0.348436  -0.099444  0  3.576521  0
N  N107  1  0.13197235  0.07255007  0.64375409  1  -1.025826  0  -0.348474  -0.099595  0  3.576614  0
N  N108  1  0.97023815  0.55273235  0.82489523  1  -1.021437  0  -0.349071  -0.090666  0  3.563514  0
N  N109  1  0.52976384  0.94726756  0.32489627  1  -1.021256  0  -0.349103  -0.090625  0  3.563582  0
N  N110  1  0.02976246  0.44726833  0.17510373  1  -1.021449  0  -0.349082  -0.090624  0  3.563532  0
N  N111  1  0.47023765  0.05272978  0.67510477  1  -1.02139  0  -0.349075  -0.090779  0  3.563766  0
O  O112  1  0.71709192  0.32773231  0.93553142  1  -1.178093  0  -0.314011  -0.549292  0  2.233492  0
O  O113  1  0.78290948  0.17227362  0.43552882  1  -1.177898  0  -0.313952  -0.549139  0  2.233573  0
O  O114  1  0.28290073  0.67227061  0.06447222  1  -1.178037  0  -0.313983  -0.549245  0  2.233595  0
O  O115  1  0.21709221  0.82772595  0.56447170  1  -1.178541  0  -0.313959  -0.54917  0  2.233703  0
O  O116  1  0.52569368  0.18903604  0.88020319  1  -1.194849  0  -0.341913  -0.586456  0  2.266266  0
O  O117  1  0.97431442  0.31096653  0.38020007  1  -1.194954  0  -0.341895  -0.58639  0  2.266217  0
O  O118  1  0.47430626  0.81097023  0.11979993  1  -1.195034  0  -0.341958  -0.586452  0  2.266285  0
O  O119  1  0.02569056  0.68903080  0.61980357  1  -1.195107  0  -0.341874  -0.586349  0  2.266328  0
O  O120  1  0.66749715  0.72150807  0.98105951  1  -1.164154  0  -0.328399  -0.577374  0  2.348485  0
O  O121  1  0.83250338  0.77848849  0.48106055  1  -1.164142  0  -0.328424  -0.577402  0  2.348382  0
O  O122  1  0.33250201  0.27848926  0.01894101  1  -1.164139  0  -0.32841  -0.577442  0  2.348386  0
O  O123  1  0.16749607  0.22151220  0.51893945  1  -1.164129  0  -0.328416  -0.577413  0  2.348298  0
O  O124  1  0.50327507  0.88761346  0.95133986  1  -1.168708  0  -0.312724  -0.558993  0  2.363275  0
O  O125  1  0.99672809  0.61238645  0.45133986  1  -1.168715  0  -0.31271  -0.558958  0  2.363209  0
O  O126  1  0.49672448  0.11238834  0.04866066  1  -1.168617  0  -0.312761  -0.559027  0  2.363222  0
O  O127  1  0.00327495  0.38761535  0.54866222  1  -1.168592  0  -0.312781  -0.559039  0  2.363283  0
O  O128  1  0.06682045  0.41367423  0.94215219  1  -1.176621  0  -0.32973  -0.560602  0  2.328332  0
O  O129  1  0.43318247  0.08632946  0.44215427  1  -1.176696  0  -0.329698  -0.560602  0  2.328492  0
O  O130  1  0.93318026  0.58632757  0.05784625  1  -1.176671  0  -0.329727  -0.560574  0  2.328483  0
O  O131  1  0.56682057  0.91367234  0.55784729  1  -1.176611  0  -0.329715  -0.560567  0  2.328454  0
O  O132  1  0.15419214  0.22496542  0.87747356  1  -1.176801  0  -0.316421  -0.557968  0  2.261687  0
O  O133  1  0.34580021  0.27503716  0.37747304  1  -1.176475  0  -0.316435  -0.558003  0  2.261388  0
O  O134  1  0.84580528  0.77503862  0.12252540  1  -1.176555  0  -0.316444  -0.557953  0  2.261562  0
O  O135  1  0.65419536  0.72495906  0.62252592  1  -1.176552  0  -0.316478  -0.558006  0  2.261437  0
O  O136  1  0.01330399  0.79410840  0.91534258  1  -1.159187  0  -0.314507  -0.544411  0  2.289778  0
O  O137  1  0.48669759  0.70589374  0.41534414  1  -1.159254  0  -0.314543  -0.544494  0  2.289717  0
O  O138  1  0.98669575  0.20589563  0.08465378  1  -1.15927  0  -0.314564  -0.544504  0  2.289683  0
O  O139  1  0.51330176  0.29410583  0.58465690  1  -1.159245  0  -0.314524  -0.544466  0  2.289718  0
O  O140  1  0.22668518  0.88876714  0.85598438  1  -1.169137  0  -0.320842  -0.563378  0  2.277529  0
O  O141  1  0.27331640  0.61123500  0.35598438  1  -1.169042  0  -0.320824  -0.563346  0  2.277419  0
O  O142  1  0.77331660  0.11123354  0.14401562  1  -1.169071  0  -0.320843  -0.563409  0  2.277398  0
O  O143  1  0.72668179  0.38876457  0.64401718  1  -1.169035  0  -0.320848  -0.563374  0  2.277507  0
O  O144  1  0.16692510  0.93619312  0.01955193  1  -1.225198  0  -0.587579  -0.746728  0  2.06219  0
O  O145  1  0.33307765  0.56380903  0.51955660  1  -1.225167  0  -0.587613  -0.746831  0  2.06212  0
O  O146  1  0.83307426  0.06380645  0.98044288  1  -1.225168  0  -0.587662  -0.746945  0  2.062014  0
O  O147  1  0.66691957  0.43619278  0.48044807  1  -1.225233  0  -0.58754  -0.746772  0  2.062143  0
