# generated using pymatgen
data_CoH4C6(NO2)2
_symmetry_space_group_name_H-M   'P 1'
_cell_length_a   8.86895322
_cell_length_b   9.33523683
_cell_length_c   10.47067044
_cell_angle_alpha   90.00004597
_cell_angle_beta   90.00006409
_cell_angle_gamma   89.99971352
_symmetry_Int_Tables_number   1
_chemical_formula_structural   CoH4C6(NO2)2
_chemical_formula_sum   'Co4 H16 C24 N8 O16'
_cell_volume   866.90637147
_cell_formula_units_Z   4
loop_
 _symmetry_equiv_pos_site_id
 _symmetry_equiv_pos_as_xyz
  1  'x, y, z'
loop_
 _atom_site_type_symbol
 _atom_site_label
 _atom_site_symmetry_multiplicity
 _atom_site_fract_x
 _atom_site_fract_y
 _atom_site_fract_z
 _atom_site_occupancy
 _atom_site_pbe_bader_charge
 _atom_site_pbe_bader_spin_density
 _atom_site_pbe_cm5_charge
 _atom_site_pbe_ddec_charge
 _atom_site_pbe_ddec_spin_density
 _atom_site_pbe_ddec_sum_bond_order
 _atom_site_pbe_magmom
Co  Co0  1  0.79449610  0.55524930  0.27442134  1  1.323647  2.641436  0.685104  0.899079  2.851485  2.500755  2.622
Co  Co1  1  0.70550543  0.44475228  0.77442268  1  1.323567  2.641406  0.68513  0.898998  2.851444  2.500924  2.622
Co  Co2  1  0.29449390  0.94475126  0.72557957  1  1.32363  2.641435  0.685094  0.899078  2.851473  2.500623  2.622
Co  Co3  1  0.20550567  0.05525050  0.22557783  1  1.323626  2.641422  0.685094  0.898974  2.851463  2.500962  2.622
H  H4  1  0.04307195  0.34490607  0.17727722  1  0.108143  0.002588  0.110763  0.025492  0.000543  0.999096  0.002
H  H5  1  0.45692417  0.65509243  0.67728751  1  0.108226  0.002588  0.110718  0.025481  0.000543  0.999042  0.002
H  H6  1  0.54306879  0.15508784  0.82271933  1  0.108091  0.002586  0.110776  0.025498  0.000542  0.999113  0.002
H  H7  1  0.95693506  0.84491272  0.32272310  1  0.108073  0.002587  0.110755  0.025512  0.000543  0.999126  0.002
H  H8  1  0.43283299  0.20692894  0.05768901  1  0.137062  0.002655  0.127684  0.110345  0.000744  1.012345  0.002
H  H9  1  0.06717084  0.79307051  0.55768569  1  0.137135  0.002657  0.127686  0.110355  0.000745  1.012322  0.002
H  H10  1  0.93283154  0.29307276  0.94231360  1  0.137082  0.002657  0.127652  0.110328  0.000745  1.012283  0.002
H  H11  1  0.56716573  0.70692577  0.44231122  1  0.137216  0.002657  0.127666  0.110294  0.000745  1.012278  0.002
H  H12  1  0.34519267  0.22576121  0.44860378  1  0.150615  0.002587  0.127906  0.112759  0.000823  1.001422  0.002
H  H13  1  0.15480384  0.77424290  0.94860338  1  0.150624  0.002587  0.127905  0.112737  0.000823  1.001469  0.002
H  H14  1  0.84519187  0.27424198  0.55139971  1  0.150652  0.002586  0.127914  0.11274  0.000823  1.001449  0.002
H  H15  1  0.65480933  0.72575510  0.05139646  1  0.150598  0.002586  0.127901  0.112727  0.000823  1.001439  0.002
H  H16  1  0.55532750  0.40403258  0.47590781  1  0.206001  0.002533  0.124407  0.116567  0.000915  1.050405  0.002
H  H17  1  0.94467545  0.59596597  0.97590563  1  0.20604  0.002533  0.124445  0.116626  0.000915  1.050387  0.002
H  H18  1  0.05532346  0.09596555  0.52409066  1  0.206005  0.002533  0.124443  0.116618  0.000915  1.050375  0.002
H  H19  1  0.44468145  0.90403387  0.02408873  1  0.205975  0.002533  0.124472  0.11669  0.000915  1.050308  0.002
C  C20  1  0.00605760  0.30845185  0.27301128  1  1.527206  -0.001436  0.146679  0.490964  -0.002086  4.182175  -0.001
C  C21  1  0.49394429  0.69154673  0.77301493  1  1.527192  -0.001436  0.146763  0.491011  -0.002086  4.181979  -0.001
C  C22  1  0.50605862  0.19154759  0.72699861  1  1.527135  -0.001438  0.146686  0.490989  -0.002088  4.1818  -0.001
C  C23  1  0.99394509  0.80845502  0.22699188  1  1.527305  -0.001438  0.146663  0.490879  -0.002088  4.18229  -0.001
C  C24  1  0.67671697  0.39305005  0.05843507  1  1.592258  -0.003772  0.21599  0.546229  -0.005211  4.22028  -0.002
C  C25  1  0.82327522  0.60694168  0.55844521  1  1.592196  -0.003774  0.215956  0.546263  -0.005214  4.220467  -0.002
C  C26  1  0.17673265  0.10693465  0.94154536  1  1.592097  -0.003772  0.216037  0.546391  -0.005214  4.220347  -0.002
C  C27  1  0.32326723  0.89306410  0.44154618  1  1.592266  -0.003772  0.215982  0.546302  -0.005213  4.220441  -0.002
C  C28  1  0.57707745  0.34783242  0.16667355  1  0.488679  -0.002192  0.115048  0.0657  -0.005378  3.949899  0.002
C  C29  1  0.92292054  0.65216584  0.66667043  1  0.48838  -0.002191  0.115112  0.065778  -0.005379  3.949916  0.002
C  C30  1  0.07708033  0.15216990  0.83333068  1  0.488246  -0.002193  0.115158  0.065886  -0.00538  3.949808  0.002
C  C31  1  0.42291827  0.84782982  0.33332391  1  0.487931  -0.002191  0.115054  0.065687  -0.005382  3.94984  0.002
C  C32  1  0.45903107  0.25145913  0.15114055  1  0.525643  -0.00826  0.06233  0.051712  -0.010641  3.873677  -0.004
C  C33  1  0.04096839  0.74853720  0.65114100  1  0.525596  -0.008258  0.062337  0.05173  -0.010637  3.873649  -0.004
C  C34  1  0.95903310  0.24853709  0.84885635  1  0.525722  -0.008261  0.062446  0.051854  -0.010641  3.87356  -0.004
C  C35  1  0.54096290  0.75145920  0.34885493  1  0.526038  -0.008264  0.062404  0.051919  -0.010641  3.873572  -0.004
C  C36  1  0.40952705  0.26346333  0.36651643  1  0.486121  -0.015771  0.061949  0.067736  -0.018465  3.853446  -0.007
C  C37  1  0.09047047  0.73653535  0.86651786  1  0.485877  -0.015765  0.062019  0.067855  -0.018459  3.853275  -0.007
C  C38  1  0.90952882  0.23653420  0.63348425  1  0.485899  -0.015769  0.062013  0.067866  -0.018464  3.853386  -0.007
C  C39  1  0.59046912  0.76346510  0.13348097  1  0.485864  -0.015772  0.062015  0.067933  -0.018466  3.85325  -0.007
C  C40  1  0.52658796  0.36178194  0.38193100  1  0.472892  -0.003841  0.059467  0.062167  -0.005759  3.867982  0.001
C  C41  1  0.97341485  0.63821331  0.88192791  1  0.473069  -0.003839  0.059429  0.062175  -0.005757  3.867953  0.001
C  C42  1  0.02658383  0.13821740  0.61807032  1  0.472965  -0.003841  0.059404  0.062158  -0.005759  3.868094  0.001
C  C43  1  0.47341558  0.86178425  0.11806838  1  0.47302  -0.003841  0.059351  0.061952  -0.005759  3.868048  0.001
N  N44  1  0.60994260  0.40507572  0.28197756  1  -1.183854  0.031816  -0.297415  -0.235975  0.012778  3.541358  0.03
N  N45  1  0.89005782  0.59491836  0.78197438  1  -1.183948  0.031825  -0.297494  -0.236168  0.012786  3.541339  0.03
N  N46  1  0.10994222  0.09492215  0.71802573  1  -1.183782  0.031812  -0.297542  -0.236323  0.012775  3.541347  0.03
N  N47  1  0.39005733  0.90507959  0.21801993  1  -1.18383  0.031809  -0.2974  -0.235945  0.012774  3.541213  0.03
N  N48  1  0.37417118  0.20939831  0.25087242  1  -1.222024  0.039686  -0.3115  -0.227905  0.019437  3.602969  0.039
N  N49  1  0.12582391  0.79060025  0.75087201  1  -1.221951  0.039689  -0.311532  -0.228  0.019439  3.602836  0.039
N  N50  1  0.87417059  0.29060474  0.74912919  1  -1.222013  0.039684  -0.311589  -0.228068  0.019437  3.602855  0.038
N  N51  1  0.62582301  0.70939360  0.24912781  1  -1.221937  0.039679  -0.311529  -0.228112  0.019433  3.602834  0.038
O  O52  1  0.92462694  0.39169130  0.33953179  1  -1.152613  0.090615  -0.32126  -0.511832  0.047059  2.405989  0.076
O  O53  1  0.57537920  0.60831355  0.83953217  1  -1.152702  0.090608  -0.321218  -0.511768  0.047055  2.405977  0.076
O  O54  1  0.42462303  0.10830829  0.66046700  1  -1.152607  0.090627  -0.321295  -0.511878  0.047066  2.405481  0.076
O  O55  1  0.07538096  0.89169875  0.16046570  1  -1.152776  0.090628  -0.321235  -0.511784  0.047066  2.4059  0.076
O  O56  1  0.04691283  0.18518977  0.31089803  1  -1.155078  0.086185  -0.314957  -0.499328  0.044139  2.372927  0.073
O  O57  1  0.45308574  0.81480992  0.81090174  1  -1.15508  0.086181  -0.315022  -0.499417  0.044136  2.372833  0.073
O  O58  1  0.54691202  0.31480947  0.68910903  1  -1.154949  0.086172  -0.314918  -0.499298  0.044134  2.372959  0.073
O  O59  1  0.95309164  0.68519202  0.18910218  1  -1.154952  0.08617  -0.314937  -0.4993  0.044131  2.37307  0.073
O  O60  1  0.78478251  0.47679487  0.08759660  1  -1.148257  0.075155  -0.293065  -0.533982  0.038562  2.380873  0.066
O  O61  1  0.71522100  0.52320760  0.58759704  1  -1.148339  0.075126  -0.292997  -0.533852  0.038551  2.381356  0.066
O  O62  1  0.28477604  0.02321503  0.91241162  1  -1.148565  0.075081  -0.292947  -0.533779  0.038527  2.381813  0.066
O  O63  1  0.21522042  0.97679333  0.41239999  1  -1.148582  0.075103  -0.292986  -0.53382  0.038538  2.38161  0.066
O  O64  1  0.64921620  0.34452365  0.94811733  1  -1.156419  0.060044  -0.299153  -0.539661  0.03108  2.383021  0.052
O  O65  1  0.85079122  0.65548023  0.44811419  1  -1.155884  0.060061  -0.299212  -0.539828  0.031089  2.382538  0.052
O  O66  1  0.14920889  0.15548046  0.05189460  1  -1.155619  0.060096  -0.299343  -0.540062  0.031109  2.38219  0.052
O  O67  1  0.35078478  0.84452434  0.55188582  1  -1.155844  0.060079  -0.299262  -0.539947  0.031099  2.382428  0.052
