# generated using pymatgen
data_CuH6C6SN
_symmetry_space_group_name_H-M   'P 1'
_cell_length_a   6.09895296
_cell_length_b   7.00153360
_cell_length_c   13.66516809
_cell_angle_alpha   89.99606993
_cell_angle_beta   95.55562431
_cell_angle_gamma   89.99960523
_symmetry_Int_Tables_number   1
_chemical_formula_structural   CuH6C6SN
_chemical_formula_sum   'Cu4 H24 C24 S4 N4'
_cell_volume   580.78930617
_cell_formula_units_Z   4
loop_
 _symmetry_equiv_pos_site_id
 _symmetry_equiv_pos_as_xyz
  1  'x, y, z'
loop_
 _atom_site_type_symbol
 _atom_site_label
 _atom_site_symmetry_multiplicity
 _atom_site_fract_x
 _atom_site_fract_y
 _atom_site_fract_z
 _atom_site_occupancy
 _atom_site_hle17_bader_spin_density
 _atom_site_hle17_ddec_charge
 _atom_site_hle17_ddec_spin_density
 _atom_site_hle17_ddec_sum_bond_order
 _atom_site_hle17_magmom
 _atom_site_hse06_10hf_bader_spin_density
 _atom_site_hse06_10hf_ddec_charge
 _atom_site_hse06_10hf_ddec_spin_density
 _atom_site_hse06_10hf_ddec_sum_bond_order
 _atom_site_hse06_10hf_magmom
 _atom_site_hse06_bader_spin_density
 _atom_site_hse06_ddec_charge
 _atom_site_hse06_ddec_spin_density
 _atom_site_hse06_ddec_sum_bond_order
 _atom_site_hse06_magmom
 _atom_site_pbe_bader_spin_density
 _atom_site_pbe_cm5_charge
 _atom_site_pbe_ddec_charge
 _atom_site_pbe_ddec_spin_density
 _atom_site_pbe_ddec_sum_bond_order
 _atom_site_pbe_magmom
Cu  Cu0  1  0.78357030  0.12022008  0.94386313  1  0  0.344975  0  2.16271  0  0  0.288852  0  2.623982  0  0  0.280896  0  2.584915  0  0  0.356558  0.296418  0  2.649186  0
Cu  Cu1  1  0.71643341  0.62021149  0.05613863  1  0  0.344989  0  2.162601  0  0  0.288855  0  2.62385  0  0  0.280893  0  2.584784  0  0  0.356525  0.296426  0  2.649049  0
Cu  Cu2  1  0.21644167  0.87977018  0.05614219  1  0  0.344959  0  2.162432  0  0  0.288814  0  2.623695  0  0  0.280854  0  2.584628  0  0  0.356518  0.296382  0  2.648909  0
Cu  Cu3  1  0.28355560  0.37978306  0.94385832  1  0  0.34491  0  2.162385  0  0  0.288769  0  2.623636  0  0  0.28079  0  2.584568  0  0  0.356512  0.296339  0  2.64884  0
H  H4  1  0.09423680  0.85267281  0.26485028  1  0  0.096704  0  0.974087  0  0  0.105917  0  1.040448  0  0  0.108355  0  1.040119  0  0  0.09398  0.103975  0  1.041134  0
H  H5  1  0.40577406  0.35272944  0.73515622  1  0  0.096526  0  0.974264  0  0  0.105849  0  1.040503  0  0  0.108287  0  1.040172  0  0  0.09395  0.103906  0  1.041189  0
H  H6  1  0.90577859  0.14731603  0.73514568  1  0  0.096607  0  0.974432  0  0  0.105888  0  1.040672  0  0  0.108322  0  1.040348  0  0  0.093966  0.103947  0  1.041351  0
H  H7  1  0.59423133  0.64726940  0.26484880  1  0  0.096536  0  0.974294  0  0  0.105869  0  1.040517  0  0  0.108305  0  1.040192  0  0  0.093953  0.103909  0  1.04122  0
H  H8  1  0.37885890  0.14138650  0.33038589  1  0  0.09923  0  0.972583  0  0  0.1113  0  1.033217  0  0  0.113084  0  1.034569  0  0  0.09855  0.110003  0  1.032508  0
H  H9  1  0.12111138  0.64148689  0.66960440  1  0  0.099172  0  0.972544  0  0  0.111062  0  1.033399  0  0  0.112846  0  1.034752  0  0  0.098447  0.109775  0  1.03267  0
H  H10  1  0.62114173  0.85860805  0.66960501  1  0  0.099201  0  0.97263  0  0  0.111264  0  1.03329  0  0  0.113048  0  1.034638  0  0  0.098552  0.109969  0  1.032577  0
H  H11  1  0.87888080  0.35853623  0.33040148  1  0  0.099243  0  0.97292  0  0  0.111137  0  1.033728  0  0  0.112925  0  1.035077  0  0  0.098493  0.10986  0  1.032969  0
H  H12  1  0.00756268  0.89821898  0.43684462  1  0  0.082696  0  0.977657  0  0  0.094971  0  1.039865  0  0  0.09692  0  1.040055  0  0  0.095363  0.093677  0  1.039647  0
H  H13  1  0.49242267  0.39831902  0.56316053  1  0  0.082766  0  0.97759  0  0  0.095149  0  1.039701  0  0  0.097096  0  1.039897  0  0  0.095387  0.093852  0  1.039471  0
H  H14  1  0.99242638  0.10177129  0.56314867  1  0  0.082651  0  0.977607  0  0  0.094927  0  1.039825  0  0  0.096877  0  1.040012  0  0  0.095342  0.093626  0  1.039622  0
H  H15  1  0.50757444  0.60170695  0.43684704  1  0  0.082681  0  0.977466  0  0  0.095027  0  1.03964  0  0  0.096976  0  1.039829  0  0  0.095327  0.093737  0  1.039409  0
H  H16  1  0.64957160  0.04948684  0.47004050  1  0  0.081434  0  0.969388  0  0  0.09483  0  1.028047  0  0  0.097333  0  1.026678  0  0  0.096608  0.093085  0  1.028978  0
H  H17  1  0.85039713  0.54962856  0.52995854  1  0  0.081585  0  0.968884  0  0  0.095044  0  1.027504  0  0  0.097517  0  1.026165  0  0  0.09674  0.093287  0  1.02844  0
H  H18  1  0.35041749  0.95049772  0.52995060  1  0  0.081352  0  0.969081  0  0  0.094725  0  1.027816  0  0  0.097228  0  1.026447  0  0  0.096557  0.09298  0  1.028748  0
H  H19  1  0.14958682  0.45041027  0.47004769  1  0  0.08152  0  0.968998  0  0  0.094947  0  1.027663  0  0  0.097428  0  1.026316  0  0  0.096703  0.093197  0  1.028595  0
H  H20  1  0.31520570  0.19204517  0.16134329  1  0  0.286775  0  0.921967  0  0  0.278902  0  0.977399  0  0  0.282543  0  0.976605  0  0  0.286606  0.276292  0  0.978037  0
H  H21  1  0.18478187  0.69206747  0.83864450  1  0  0.286583  0  0.922077  0  0  0.278738  0  0.977531  0  0  0.282401  0  0.976667  0  0  0.2865  0.276122  0  0.978179  0
H  H22  1  0.68480813  0.80795653  0.83864675  1  0  0.286629  0  0.921949  0  0  0.278764  0  0.977382  0  0  0.282384  0  0.97665  0  0  0.286536  0.276159  0  0.978007  0
H  H23  1  0.81521194  0.30792994  0.16136364  1  0  0.286753  0  0.921791  0  0  0.278802  0  0.977366  0  0  0.282464  0  0.976504  0  0  0.286556  0.276188  0  0.978011  0
H  H24  1  0.49182152  0.13905021  0.07992163  1  0  0.26057  0  0.964489  0  0  0.239701  0  1.051711  0  0  0.249267  0  1.039995  0  0  0.258853  0.23249  0  1.060586  0
H  H25  1  0.00818507  0.63906994  0.92006895  1  0  0.260557  0  0.964562  0  0  0.239719  0  1.051754  0  0  0.249278  0  1.040044  0  0  0.258916  0.2325  0  1.060651  0
H  H26  1  0.50819072  0.86093863  0.92006395  1  0  0.260639  0  0.964618  0  0  0.239802  0  1.051738  0  0  0.249361  0  1.040027  0  0  0.25897  0.232582  0  1.060642  0
H  H27  1  0.99183843  0.36091462  0.07993763  1  0  0.260622  0  0.96446  0  0  0.239752  0  1.051663  0  0  0.249316  0  1.039951  0  0  0.258877  0.232536  0  1.060551  0
C  C28  1  0.78481941  0.96387233  0.20039581  1  0  0.000812  0  3.737608  0  0  0.024836  0  3.978033  0  0  0.022708  0  4.000707  0  0  -0.029068  0.025965  0  3.962809  0
C  C29  1  0.71514517  0.46391009  0.79961448  1  0  0.000488  0  3.737233  0  0  0.024731  0  3.977553  0  0  0.02261  0  4.000213  0  0  -0.029167  0.025863  0  3.962323  0
C  C30  1  0.21516622  0.03612222  0.79960758  1  0  0.000897  0  3.736523  0  0  0.024921  0  3.977103  0  0  0.022794  0  3.999773  0  0  -0.029103  0.026049  0  3.961878  0
C  C31  1  0.28484212  0.53607875  0.20038752  1  0  0.000623  0  3.736837  0  0  0.024879  0  3.97712  0  0  0.022756  0  3.999785  0  0  -0.028997  0.026006  0  3.961904  0
C  C32  1  0.93729455  0.91514457  0.27997539  1  0  -0.099745  0  3.753671  0  0  -0.118253  0  4.00133  0  0  -0.119308  0  4.023464  0  0  -0.100719  -0.117442  0  3.986651  0
C  C33  1  0.56268748  0.41521205  0.72002720  1  0  -0.099378  0  3.75375  0  0  -0.118024  0  4.001342  0  0  -0.11908  0  4.023471  0  0  -0.100729  -0.11722  0  3.986665  0
C  C34  1  0.06268791  0.08486284  0.72001833  1  0  -0.099853  0  3.753704  0  0  -0.118381  0  4.00132  0  0  -0.119436  0  4.023451  0  0  -0.100753  -0.117564  0  3.986634  0
C  C35  1  0.43730466  0.58481535  0.27998233  1  0  -0.099572  0  3.753808  0  0  -0.118229  0  4.001371  0  0  -0.119287  0  4.023504  0  0  -0.100772  -0.117407  0  3.986706  0
C  C36  1  0.58069573  0.04485439  0.21925728  1  0  0.220717  0  3.773385  0  0  0.219508  0  4.011343  0  0  0.22556  0  4.033902  0  0  0.07384  0.215293  0  3.996279  0
C  C37  1  0.91932432  0.54491877  0.78073111  1  0  0.220792  0  3.772507  0  0  0.219363  0  4.010724  0  0  0.225403  0  4.033304  0  0  0.073968  0.215156  0  3.995638  0
C  C38  1  0.41932974  0.95511731  0.78072524  1  0  0.220715  0  3.773188  0  0  0.219381  0  4.011382  0  0  0.22543  0  4.033952  0  0  0.073789  0.215172  0  3.996304  0
C  C39  1  0.08068595  0.45507579  0.21927852  1  0  0.220817  0  3.773417  0  0  0.219407  0  4.011528  0  0  0.225448  0  4.03411  0  0  0.073846  0.21519  0  3.996461  0
C  C40  1  0.53540017  0.07610416  0.31666033  1  0  -0.17235  0  3.751752  0  0  -0.188382  0  3.999207  0  0  -0.193091  0  4.021216  0  0  -0.103913  -0.185466  0  3.984714  0
C  C41  1  0.96456989  0.57620672  0.68332757  1  0  -0.17208  0  3.752715  0  0  -0.187886  0  4.000189  0  0  -0.19259  0  4.02219  0  0  -0.103907  -0.18498  0  3.985699  0
C  C42  1  0.46460048  0.92388325  0.68332910  1  0  -0.172229  0  3.752598  0  0  -0.188206  0  4.000022  0  0  -0.192913  0  4.022027  0  0  -0.103808  -0.185291  0  3.985526  0
C  C43  1  0.03537962  0.42380211  0.31666538  1  0  -0.172178  0  3.752304  0  0  -0.188035  0  3.999815  0  0  -0.192744  0  4.021817  0  0  -0.103872  -0.185116  0  3.985326  0
C  C44  1  0.88839111  0.94171972  0.37649663  1  0  -0.096384  0  3.812364  0  0  -0.112249  0  4.064958  0  0  -0.115523  0  4.087411  0  0  -0.107221  -0.110143  0  4.049591  0
C  C45  1  0.61161187  0.44180383  0.62350597  1  0  -0.096576  0  3.812094  0  0  -0.112553  0  4.064778  0  0  -0.115821  0  4.087211  0  0  -0.107237  -0.110441  0  4.049405  0
C  C46  1  0.11161112  0.05827341  0.62349727  1  0  -0.096317  0  3.812418  0  0  -0.112182  0  4.065011  0  0  -0.115453  0  4.08746  0  0  -0.107183  -0.110082  0  4.049643  0
C  C47  1  0.38839023  0.55821358  0.37649817  1  0  -0.096396  0  3.812338  0  0  -0.112338  0  4.064998  0  0  -0.115608  0  4.087441  0  0  -0.107205  -0.110231  0  4.049626  0
C  C48  1  0.68744977  0.02393868  0.39479199  1  0  -0.076083  0  3.818994  0  0  -0.089487  0  4.069603  0  0  -0.089488  0  4.089571  0  0  -0.100966  -0.089216  0  4.055811  0
C  C49  1  0.81255228  0.52404649  0.60521462  1  0  -0.076285  0  3.819279  0  0  -0.089758  0  4.069897  0  0  -0.089733  0  4.089864  0  0  -0.101006  -0.089475  0  4.056107  0
C  C50  1  0.31255232  0.97605730  0.60521361  1  0  -0.076026  0  3.819126  0  0  -0.089413  0  4.069717  0  0  -0.089412  0  4.089682  0  0  -0.100921  -0.089147  0  4.055929  0
C  C51  1  0.18746132  0.47598948  0.39479297  1  0  -0.076276  0  3.818478  0  0  -0.089709  0  4.069092  0  0  -0.089689  0  4.089055  0  0  -0.101012  -0.089436  0  4.055307  0
S  S52  1  0.84772122  0.91733032  0.07848824  1  0  -0.431607  0  3.125392  0  0  -0.400494  0  3.670106  0  0  -0.39484  0  3.627006  0  0  -0.292944  -0.405009  0  3.699083  0
S  S53  1  0.65227566  0.41734821  0.92151056  1  0  -0.431603  0  3.125815  0  0  -0.400547  0  3.670481  0  0  -0.394884  0  3.627369  0  0  -0.292999  -0.40506  0  3.699442  0
S  S54  1  0.15225630  0.08264567  0.92150526  1  0  -0.431592  0  3.125379  0  0  -0.400469  0  3.670119  0  0  -0.394792  0  3.626977  0  0  -0.292955  -0.404986  0  3.699095  0
S  S55  1  0.34774625  0.58263635  0.07849156  1  0  -0.431572  0  3.125679  0  0  -0.400522  0  3.670327  0  0  -0.394847  0  3.627188  0  0  -0.293029  -0.405039  0  3.699306  0
N  N56  1  0.42085320  0.08989435  0.14048295  1  0  -0.597704  0  3.248231  0  0  -0.549891  0  3.49068  0  0  -0.564367  0  3.486015  0  0  -0.625465  -0.539858  0  3.49406  0
N  N57  1  0.07913751  0.58993447  0.85952696  1  0  -0.597476  0  3.248038  0  0  -0.549746  0  3.490542  0  0  -0.564203  0  3.485886  0  0  -0.625437  -0.539713  0  3.493912  0
N  N58  1  0.57913905  0.91010163  0.85951854  1  0  -0.597616  0  3.248198  0  0  -0.54977  0  3.490681  0  0  -0.564248  0  3.486007  0  0  -0.625487  -0.539741  0  3.494047  0
N  N59  1  0.92086764  0.41007436  0.14049561  1  0  -0.597829  0  3.248226  0  0  -0.549879  0  3.49069  0  0  -0.564344  0  3.48604  0  0  -0.625413  -0.539848  0  3.494062  0
