# generated using pymatgen
data_MnH30C26N2(ClO)2
_symmetry_space_group_name_H-M   'P 1'
_cell_length_a   9.62337103
_cell_length_b   9.96213128
_cell_length_c   13.21632865
_cell_angle_alpha   99.29245233
_cell_angle_beta   89.99951667
_cell_angle_gamma   90.00005279
_symmetry_Int_Tables_number   1
_chemical_formula_structural   MnH30C26N2(ClO)2
_chemical_formula_sum   'Mn2 H60 C52 N4 Cl4 O4'
_cell_volume   1250.41261534
_cell_formula_units_Z   2
loop_
 _symmetry_equiv_pos_site_id
 _symmetry_equiv_pos_as_xyz
  1  'x, y, z'
loop_
 _atom_site_type_symbol
 _atom_site_label
 _atom_site_symmetry_multiplicity
 _atom_site_fract_x
 _atom_site_fract_y
 _atom_site_fract_z
 _atom_site_occupancy
 _atom_site_hle17_ddec_charge
 _atom_site_hle17_ddec_spin_density
 _atom_site_hle17_ddec_sum_bond_order
 _atom_site_hle17_magmom
 _atom_site_hse06_10hf_ddec_charge
 _atom_site_hse06_10hf_ddec_spin_density
 _atom_site_hse06_10hf_ddec_sum_bond_order
 _atom_site_hse06_10hf_magmom
 _atom_site_hse06_ddec_charge
 _atom_site_hse06_ddec_spin_density
 _atom_site_hse06_ddec_sum_bond_order
 _atom_site_hse06_magmom
 _atom_site_pbe_cm5_charge
 _atom_site_pbe_ddec_charge
 _atom_site_pbe_ddec_spin_density
 _atom_site_pbe_ddec_sum_bond_order
 _atom_site_pbe_magmom
Mn  Mn0  1  0.65391755  0.51795861  0.73926763  1  1.034242  4.750705  2.117158  4.577  0.866415  4.670033  2.707327  4.414  0.938924  4.736261  2.620284  4.506  0.468145  0.808298  4.602969  2.771839  4.325
Mn  Mn1  1  0.15391568  0.48204495  0.26073045  1  1.034162  -4.750715  2.117224  -4.577  0.866291  -4.670034  2.707469  -4.414  0.938814  -4.73626  2.620405  -4.506  0.46812  0.808169  -4.602972  2.771981  -4.325
H  H2  1  0.90781193  0.08537173  0.88626505  1  0.084878  -3.6e-05  0.966622  0.0  0.097161  -4.8e-05  1.028858  0.0  0.099846  -4.2e-05  1.027547  0.0  0.100473  0.095192  -3.7e-05  1.029788  0.0
H  H3  1  0.40781321  0.91462361  0.11373278  1  0.084891  3.4e-05  0.966647  0.0  0.097175  4.8e-05  1.028877  0.0  0.099861  4.2e-05  1.027568  0.0  0.100488  0.095206  3.7e-05  1.029807  0.0
H  H4  1  0.74130087  0.90404016  0.91326668  1  0.087858  -6.9e-05  0.954526  0.0  0.097661  1.7e-05  1.015706  0.0  0.100676  -4.1e-05  1.014608  0.0  0.097793  0.095697  1.3e-05  1.016181  0.0
H  H5  1  0.24130480  0.09595526  0.08673295  1  0.087847  7.1e-05  0.95457  0.0  0.097635  -1.7e-05  1.015749  0.0  0.100648  4.1e-05  1.014654  0.0  0.097813  0.09567  -1.3e-05  1.016225  0.0
H  H6  1  0.49102983  0.95618825  0.93708469  1  0.08742  0.000134  0.968691  0.0  0.095169  0.000338  1.035065  0.0  0.098192  0.000215  1.033358  0.0  0.092754  0.092638  0.000478  1.037049  0.0
H  H7  1  0.99103284  0.04380709  0.06291642  1  0.087448  -0.000122  0.968736  0.0  0.095202  -0.000338  1.03509  0.0  0.098225  -0.000215  1.033385  0.0  0.092794  0.092671  -0.000478  1.037075  0.0
H  H8  1  0.40550643  0.19232864  0.93607642  1  0.080739  -2.5e-05  0.959883  0.0  0.0939  -5.3e-05  1.017642  0.0  0.096521  -4.6e-05  1.01665  0.0  0.098524  0.091938  -3.1e-05  1.018444  0.0
H  H9  1  0.90550807  0.80766979  0.06392557  1  0.080754  3.2e-05  0.959846  0.0  0.093934  5.3e-05  1.017601  0.0  0.096555  4.6e-05  1.016608  0.0  0.098537  0.09197  3.1e-05  1.018407  0.0
H  H10  1  0.57086454  0.37376980  0.90621303  1  0.094584  0.000711  0.954585  0.0  0.105236  0.001213  1.019051  0.0  0.107732  0.000983  1.017801  0.0  0.103924  0.103232  0.00142  1.020466  0.0
H  H11  1  0.07086474  0.62622668  0.09378474  1  0.09456  -0.000703  0.954594  0.0  0.105236  -0.001213  1.019036  0.0  0.107728  -0.000983  1.017792  0.0  0.103918  0.103231  -0.001421  1.020453  0.0
H  H12  1  0.02475628  0.27200367  0.94087773  1  0.125427  0.000236  0.986677  0.0  0.133915  0.000313  1.050025  0.0  0.137565  0.000299  1.050448  0.0  0.094698  0.1313  0.000385  1.049951  0.0
H  H13  1  0.52475999  0.72799590  0.05912144  1  0.125452  -0.000238  0.98669  0.0  0.13394  -0.000314  1.050036  0.0  0.137589  -0.000299  1.050463  0.0  0.094718  0.131325  -0.000385  1.049964  0.0
H  H14  1  0.28909353  0.35976058  0.85005162  1  0.129059  5.5e-05  0.946733  0.0  0.150155  0.000206  1.008104  0.0  0.152142  9.5e-05  1.008564  0.0  0.100447  0.1487  0.000356  1.007762  0.001
H  H15  1  0.78909818  0.64023990  0.14994830  1  0.12902  -5.2e-05  0.946747  0.0  0.150141  -0.000207  1.008109  0.0  0.152131  -9.5e-05  1.008566  0.0  0.100442  0.148691  -0.000356  1.007765  -0.001
H  H16  1  0.23546294  0.38940824  0.98076155  1  0.133521  0.000444  0.937575  0.0  0.155  0.00058  0.994402  0.0  0.157488  0.000552  0.993228  0.0  0.100731  0.152985  0.000609  0.995467  0.0
H  H17  1  0.73546907  0.61059226  0.01923795  1  0.133549  -0.000439  0.937593  0.0  0.155014  -0.00058  0.994429  0.0  0.157503  -0.000553  0.993254  0.0  0.100773  0.153004  -0.000609  0.995495  0.0
H  H18  1  0.29197162  0.52714526  0.91946433  1  0.129473  -6e-06  0.96677  0.0  0.143422  0.000136  1.03625  0.0  0.146035  5.3e-05  1.035607  0.0  0.093543  0.141411  0.000168  1.036768  0.0
H  H19  1  0.79197380  0.47285523  0.08053557  1  0.129546  -5e-06  0.96673  0.0  0.143512  -0.000136  1.036195  0.0  0.146124  -5.3e-05  1.035555  0.0  0.093565  0.1415  -0.000168  1.036719  0.0
H  H20  1  0.22945149  0.66453254  0.83035212  1  0.057753  7.1e-05  0.938418  0.0  0.071109  0.000272  0.998371  0.0  0.071688  0.000143  0.998727  0.0  0.107708  0.070517  0.000373  0.998125  0.0
H  H21  1  0.72945562  0.33546796  0.16964666  1  0.057803  -7.1e-05  0.93829  0.0  0.071107  -0.000272  0.998309  0.0  0.071727  -0.000143  0.998613  0.0  0.107731  0.070523  -0.000373  0.998046  0.0
H  H22  1  0.02902047  0.81686518  0.88030895  1  0.070522  -9e-06  0.973502  0.0  0.086455  2.8e-05  1.038279  0.0  0.086364  2.2e-05  1.040603  0.0  0.08708  0.086687  4.9e-05  1.036663  0.0
H  H23  1  0.52902399  0.18313135  0.11969211  1  0.070486  -1.2e-05  0.973528  0.0  0.086467  -2.8e-05  1.038295  0.0  0.08638  -2.2e-05  1.040612  0.0  0.087098  0.086686  -4.9e-05  1.036687  0.0
H  H24  1  0.94677230  0.75997494  0.76073631  1  0.072408  9e-06  0.945641  0.0  0.087341  0.000293  1.01404  0.0  0.0882  0.000162  1.013967  0.0  0.089571  0.08682  0.000434  1.013632  0.0
H  H25  1  0.44677772  0.24002653  0.23926654  1  0.072421  -1.9e-05  0.945581  0.0  0.087322  -0.000293  1.014083  0.0  0.088182  -0.000163  1.014012  0.0  0.089559  0.086802  -0.000434  1.013672  0.0
H  H26  1  0.06095601  0.98267636  0.75769266  1  0.060861  6e-06  0.940029  0.0  0.081665  2e-05  0.998186  0.0  0.082019  1.1e-05  0.999033  0.0  0.086459  0.080498  5e-05  0.99901  0.0
H  H27  1  0.56095900  0.01732220  0.24230919  1  0.060869  6e-06  0.940004  0.0  0.081693  -2e-05  0.998145  0.0  0.082047  -1.1e-05  0.998993  0.0  0.086471  0.080528  -5e-05  0.998969  0.0
H  H28  1  0.22220905  0.91737012  0.79238514  1  0.061056  2.8e-05  0.927797  0.0  0.082025  9.7e-05  0.985625  0.0  0.082682  6.5e-05  0.986086  0.0  0.086659  0.081322  0.000123  0.985499  0.0
H  H29  1  0.72221354  0.08262836  0.20761496  1  0.061095  -2.5e-05  0.927754  0.0  0.082033  -9.8e-05  0.985633  0.0  0.08269  -6.5e-05  0.986094  0.0  0.086662  0.08133  -0.000123  0.985508  0.0
H  H30  1  0.21273322  0.91437547  0.60223591  1  0.057295  2.3e-05  0.964982  0.0  0.07527  4.8e-05  1.029984  0.0  0.075503  3.4e-05  1.031087  0.0  0.083726  0.075086  7.1e-05  1.02914  0.0
H  H31  1  0.71273343  0.08562506  0.39776448  1  0.057213  -2.6e-05  0.96506  0.0  0.075214  -4.7e-05  1.030027  0.0  0.075449  -3.4e-05  1.031128  0.0  0.083701  0.075032  -7.1e-05  1.029184  0.0
H  H32  1  0.05915917  0.81741992  0.59427019  1  0.066305  6.9e-05  0.934977  0.0  0.087174  0.000144  0.99307  0.0  0.087396  0.00011  0.994392  0.0  0.088318  0.086768  0.000176  0.992488  0.0
H  H33  1  0.55916043  0.18258066  0.40573040  1  0.06629  -5.5e-05  0.934981  0.0  0.087154  -0.000144  0.99308  0.0  0.087377  -0.000109  0.9944  0.0  0.088312  0.086752  -0.000176  0.992495  0.0
H  H34  1  0.26455103  0.66659545  0.54564977  1  0.081175  0.000193  0.95721  0.0  0.095405  0.000158  1.022578  0.0  0.09642  0.000209  1.022827  0.0  0.087271  0.094527  0.000147  1.022771  0.0
H  H35  1  0.76455186  0.33340503  0.45434879  1  0.081175  -0.000205  0.957184  0.0  0.095393  -0.000159  1.022572  0.0  0.096409  -0.000209  1.022819  0.0  0.087265  0.094516  -0.000147  1.022766  0.0
H  H36  1  0.34326186  0.72712321  0.66588873  1  0.071895  -0.0001  0.949697  0.0  0.08947  3.8e-05  1.013938  0.0  0.090172  -3.8e-05  1.014229  0.0  0.087771  0.088896  0.000125  1.013338  0.0
H  H37  1  0.84326403  0.27287725  0.33411010  1  0.071914  9.9e-05  0.949689  0.0  0.089463  -3.8e-05  1.01396  0.0  0.090169  3.8e-05  1.014251  0.0  0.087764  0.088891  -0.000126  1.013361  0.0
H  H38  1  0.06816296  0.57078479  0.63207590  1  0.061049  6e-05  0.942176  0.0  0.073851  0.000297  1.003073  0.0  0.074594  0.000154  1.00321  0.0  0.107877  0.073189  0.000391  1.002956  0.0
H  H39  1  0.56816281  0.42921169  0.36792189  1  0.061076  -5.2e-05  0.942161  0.0  0.073884  -0.000296  1.003037  0.0  0.074628  -0.000155  1.003174  0.0  0.107887  0.073222  -0.000391  1.002922  0.0
H  H40  1  0.28187389  0.13908464  0.60445547  1  0.114791  0.000319  1.000017  0.0  0.123336  0.000575  1.066394  0.0  0.126227  0.000452  1.068167  0.0  0.09611  0.121672  0.000731  1.065033  0.0
H  H41  1  0.78187071  0.86091788  0.39554473  1  0.114863  -0.000329  0.999981  0.0  0.123392  -0.000575  1.066361  0.0  0.126285  -0.000452  1.068131  0.0  0.096112  0.121729  -0.000731  1.065001  0.0
H  H42  1  0.99880330  0.33011236  0.66145874  1  0.130143  -7.8e-05  0.946664  0.0  0.14882  3e-05  1.011053  0.0  0.150686  -7.2e-05  1.011636  0.0  0.098832  0.147464  0.000102  1.010705  0.0
H  H43  1  0.49880070  0.66988908  0.33854227  1  0.130139  7e-05  0.946657  0.0  0.148812  -2.9e-05  1.011058  0.0  0.15068  7.1e-05  1.011637  0.0  0.098841  0.147456  -0.000102  1.010708  0.0
H  H44  1  0.06891656  0.20420873  0.56293281  1  0.120446  2.7e-05  0.961347  0.0  0.143924  5.3e-05  1.016273  0.0  0.145606  4.3e-05  1.016251  0.0  0.095861  0.142753  6.9e-05  1.016193  0.0
H  H45  1  0.56891388  0.79579389  0.43706871  1  0.120467  -3.2e-05  0.961383  0.0  0.143938  -5.3e-05  1.016309  0.0  0.14562  -4.4e-05  1.016288  0.0  0.095869  0.142767  -6.9e-05  1.016228  0.0
H  H46  1  0.04027816  0.37302541  0.54017551  1  0.137117  0.000219  0.935763  0.0  0.155184  0.000436  0.997973  0.0  0.158354  0.000339  0.995989  0.0  0.100723  0.152978  0.000453  0.999075  0.0
H  H47  1  0.54027193  0.62697722  0.45982695  1  0.1371  -0.000227  0.935822  0.0  0.15517  -0.000436  0.998024  0.0  0.158342  -0.00034  0.99604  0.0  0.100727  0.152963  -0.000453  0.999125  0.0
H  H48  1  0.82044326  0.84618957  0.61057136  1  0.087278  -4.8e-05  0.980038  0.0  0.094163  0.000123  1.048844  0.0  0.097204  2.8e-05  1.047362  0.0  0.090801  0.091161  0.000164  1.051495  0.0
H  H49  1  0.32044166  0.15380885  0.38942662  1  0.087318  4.6e-05  0.980005  0.0  0.094196  -0.000123  1.048816  0.0  0.097239  -2.8e-05  1.047332  0.0  0.090815  0.091193  -0.000164  1.05147  0.0
H  H50  1  0.89841987  0.07767866  0.58527821  1  0.081151  -1.5e-05  0.971675  0.0  0.094461  -2.2e-05  1.028978  0.0  0.096925  -1.9e-05  1.028658  0.0  0.09635  0.092595  -2.4e-05  1.029428  0.0
H  H51  1  0.39841560  0.92231973  0.41471928  1  0.081131  1.9e-05  0.971671  0.0  0.094437  2.1e-05  1.028978  0.0  0.096902  1.9e-05  1.028657  0.0  0.096344  0.092569  2.4e-05  1.029429  0.0
H  H52  1  0.57863475  0.81007599  0.66217305  1  0.084039  0.000156  0.985739  0.0  0.088291  0.000437  1.059223  0.0  0.091131  0.000282  1.058136  0.0  0.092337  0.086699  0.000608  1.059269  0.0
H  H53  1  0.07863482  0.18992456  0.33782591  1  0.08407  -0.000148  0.985688  0.0  0.088322  -0.000437  1.059172  0.0  0.091161  -0.000282  1.058091  0.0  0.092345  0.08673  -0.000608  1.059218  0.0
H  H54  1  0.40916141  0.00027457  0.68129963  1  0.08648  -2.2e-05  0.970651  0.0  0.099573  -1.7e-05  1.031496  0.0  0.102142  -2.2e-05  1.030587  0.0  0.100026  0.09724  -2e-05  1.032941  0.0
H  H55  1  0.90915926  0.99972689  0.31870042  1  0.086548  1.9e-05  0.970556  0.0  0.099607  1.7e-05  1.031428  0.0  0.102153  2.2e-05  1.030545  0.0  0.100045  0.097274  2e-05  1.032875  0.0
H  H56  1  0.73072288  0.27057819  0.60901148  1  0.085941  0.001005  0.97695  0.0  0.094029  0.001613  1.046829  0.0  0.096929  0.001339  1.044688  0.0  0.099739  0.09146  0.001861  1.049199  0.0
H  H57  1  0.23071765  0.72942231  0.39098729  1  0.085955  -0.001009  0.977001  0.0  0.09405  -0.001614  1.046861  0.0  0.096945  -0.001339  1.044726  0.0  0.099762  0.091488  -0.001861  1.049208  0.0
H  H58  1  0.94317753  0.54527501  0.81128041  1  0.281811  -0.000496  0.948233  0.0  0.263215  -6.5e-05  1.01239  0.0  0.271764  -0.000258  1.005854  0.0  0.306605  0.257277  0.000139  1.016723  0.0
H  H59  1  0.44318270  0.45472340  0.18872059  1  0.281851  0.000494  0.948157  0.0  0.263284  6.5e-05  1.012292  0.0  0.271833  0.000258  1.005755  0.0  0.306607  0.257346  -0.000138  1.016625  0.0
H  H60  1  0.35617915  0.48966239  0.68454823  1  0.28615  -0.000637  0.939971  0.0  0.26705  -0.000333  1.004252  0.0  0.275326  -0.000492  0.998246  0.0  0.307396  0.261345  -0.00019  1.008118  0.0
H  H61  1  0.85617761  0.51034215  0.31545250  1  0.286139  0.000633  0.940043  0.0  0.267023  0.000334  1.00432  0.0  0.275296  0.000492  0.998315  0.0  0.307389  0.261319  0.00019  1.008187  0.0
C  C62  1  0.79815279  0.10980187  0.89914252  1  -0.082555  7.8e-05  3.728988  0.0  -0.103921  0.000485  3.969797  0.001  -0.103962  0.000212  3.991059  0.0  -0.082117  -0.102906  0.000945  3.95476  0.001
C  C63  1  0.29815316  0.89019455  0.10085763  1  -0.08265  -0.00011  3.728967  0.0  -0.103976  -0.000482  3.969814  -0.001  -0.104023  -0.000213  3.991084  0.0  -0.082184  -0.102961  -0.000945  3.954775  -0.001
C  C64  1  0.70504079  0.00798237  0.91454939  1  -0.068676  7.8e-05  3.768261  0.0  -0.078495  9.6e-05  4.012469  0.0  -0.081915  5.5e-05  4.034349  0.0  -0.089316  -0.076397  5.9e-05  3.997293  0.0
C  C65  1  0.20504039  0.99201511  0.08545145  1  -0.068664  -2.3e-05  3.768333  0.0  -0.078451  -9.7e-05  4.012527  0.0  -0.08187  -5.4e-05  4.034411  0.0  -0.08934  -0.076354  -5.9e-05  3.997349  0.0
C  C66  1  0.56355497  0.03724284  0.92749697  1  -0.05368  0.00019  3.75222  0.0  -0.069574  0.00077  3.999731  0.001  -0.069152  0.000431  4.018981  0.0  -0.086178  -0.069498  0.001361  3.986957  0.001
C  C67  1  0.06355573  0.96275367  0.07250312  1  -0.053704  -0.000286  3.752109  0.0  -0.069602  -0.000771  3.999624  -0.001  -0.069181  -0.00043  4.018872  0.0  -0.086202  -0.069526  -0.001361  3.986852  -0.001
C  C68  1  0.51579215  0.16920339  0.92541147  1  -0.079132  3.5e-05  3.78662  0.0  -0.089957  0.000158  4.037094  0.0  -0.092893  0.000106  4.057793  0.0  -0.092985  -0.087505  9.9e-05  4.022821  0.0
C  C69  1  0.01579277  0.83079520  0.07459143  1  -0.079119  7e-06  3.786447  0.0  -0.089951  -0.000157  4.036905  0.0  -0.092888  -0.000107  4.057603  0.0  -0.092986  -0.0875  -9.9e-05  4.022635  0.0
C  C70  1  0.60824119  0.27099758  0.90873274  1  -0.073413  0.000521  3.704894  0.0  -0.100406  0.001591  3.955734  0.001  -0.100334  0.001124  3.976839  0.001  -0.08392  -0.100923  0.002064  3.941976  0.002
C  C71  1  0.10824255  0.72899892  0.09126783  1  -0.073482  -0.000585  3.704919  -0.001  -0.100462  -0.00159  3.955823  -0.001  -0.100392  -0.001125  3.97694  -0.001  -0.083954  -0.100978  -0.002065  3.942061  -0.002
C  C72  1  0.75068511  0.24229727  0.89503597  1  -0.026706  0.000817  3.763533  0.001  -0.003224  0.001154  3.991181  0.001  -0.009955  0.000864  4.014653  0.001  -0.015428  0.000971  0.001463  3.975441  0.002
C  C73  1  0.25068634  0.75769915  0.10496296  1  -0.02655  -0.000773  3.763337  -0.001  -0.003244  -0.001156  3.991178  -0.001  -0.009965  -0.000864  4.01463  -0.001  -0.015365  0.000951  -0.001463  3.975434  -0.002
C  C74  1  0.84636382  0.35065002  0.87292704  1  0.416828  0.004702  3.797233  0.006  0.391897  0.008353  4.058669  0.009  0.419611  0.005492  4.06587  0.007  0.122597  0.37325  0.011505  4.052823  0.012
C  C75  1  0.34636573  0.64934636  0.12707130  1  0.416794  -0.004721  3.797056  -0.006  0.392025  -0.008354  4.05836  -0.009  0.419739  -0.00549  4.06556  -0.007  0.122624  0.37338  -0.011505  4.052511  -0.012
C  C76  1  0.98795127  0.34888680  0.89769948  1  -0.411819  0.00583  3.710666  0.005  -0.437529  0.007871  3.976555  0.006  -0.46096  0.006292  3.996208  0.005  -0.144404  -0.422908  0.009805  3.964887  0.007
C  C77  1  0.48795555  0.65111260  0.10230136  1  -0.411802  -0.005826  3.710583  -0.005  -0.437518  -0.007869  3.976407  -0.006  -0.460948  -0.006293  3.996064  -0.005  -0.144395  -0.4229  -0.009804  3.964739  -0.007
C  C78  1  0.08653758  0.44580128  0.87663510  1  0.411308  0.003293  3.679168  0.002  0.400419  0.005581  3.93756  0.004  0.423662  0.004008  3.947388  0.002  0.147632  0.384631  0.007216  3.930805  0.005
C  C79  1  0.58654142  0.55420031  0.12336620  1  0.411264  -0.00327  3.67924  -0.002  0.40035  -0.005583  3.937703  -0.004  0.423584  -0.004003  3.947542  -0.002  0.1476  0.384562  -0.007217  3.93095  -0.005
C  C80  1  0.23413328  0.43117742  0.90886394  1  -0.386579  -5.5e-05  3.654745  0.0  -0.465662  0.000363  3.888541  0.0  -0.471035  0.000253  3.891853  0.0  -0.236283  -0.461333  0.000554  3.885893  0.0
C  C81  1  0.73413646  0.56882512  0.09113580  1  -0.386636  6.1e-05  3.654919  0.0  -0.465747  -0.000363  3.888698  0.0  -0.47112  -0.000252  3.892015  0.0  -0.236347  -0.461424  -0.000554  3.886054  0.0
C  C82  1  0.13103715  0.64813219  0.78772260  1  0.120048  0.000276  3.57262  0.0  0.097765  0.00089  3.812203  0.001  0.100809  0.000615  3.828195  0.0  0.018781  0.095907  0.00119  3.801263  0.001
C  C83  1  0.63104080  0.35186937  0.21227766  1  0.120012  -0.000281  3.572542  0.0  0.09779  -0.000892  3.812133  -0.001  0.100811  -0.000616  3.828126  0.0  0.018763  0.095933  -0.00119  3.801198  -0.001
C  C84  1  0.04844447  0.78141531  0.79853206  1  -0.160033  0.000333  3.660354  0.0  -0.20304  0.000584  3.916323  0.0  -0.204463  0.00041  3.930168  0.0  -0.165782  -0.202109  0.000636  3.906423  0.0
C  C85  1  0.54844916  0.21858426  0.20146923  1  -0.160054  -0.000267  3.660378  0.0  -0.203134  -0.000584  3.91642  0.0  -0.204562  -0.000409  3.930277  0.0  -0.165814  -0.202189  -0.000636  3.906524  0.0
C  C86  1  0.12459380  0.88981442  0.75017693  1  -0.096624  2.7e-05  3.691881  0.0  -0.137235  9.4e-05  3.954609  0.0  -0.137861  7e-05  3.968888  0.0  -0.165748  -0.136506  0.000121  3.945448  0.0
C  C87  1  0.62459782  0.11018409  0.24982302  1  -0.09659  -6.4e-05  3.691864  0.0  -0.137201  -9.2e-05  3.954656  0.0  -0.137828  -7e-05  3.968937  0.0  -0.165715  -0.136471  -0.000121  3.945495  0.0
C  C88  1  0.15696769  0.83752058  0.63752947  1  -0.106736  4.7e-05  3.697446  0.0  -0.14634  0.000166  3.957899  0.0  -0.147357  0.000125  3.973026  0.0  -0.169322  -0.145643  0.000179  3.947627  0.0
C  C89  1  0.65697047  0.16248098  0.36247139  1  -0.106673  -5.8e-05  3.697474  0.0  -0.146256  -0.000165  3.957891  0.0  -0.14727  -0.000128  3.973019  0.0  -0.169293  -0.145564  -0.000179  3.947627  0.0
C  C90  1  0.24260297  0.70692327  0.62640126  1  -0.156784  0.000262  3.649169  0.0  -0.198378  0.00046  3.901743  0.0  -0.20006  0.000329  3.915336  0.0  -0.164275  -0.197081  0.000488  3.892068  0.0
C  C91  1  0.74260574  0.29307722  0.37359744  1  -0.156831  -0.000232  3.64918  0.0  -0.198408  -0.00046  3.901785  0.0  -0.200096  -0.000328  3.915382  0.0  -0.164288  -0.197109  -0.000488  3.892115  0.0
C  C92  1  0.16647963  0.59631846  0.67316274  1  0.117372  0.000404  3.574704  0.0  0.095365  0.000999  3.812524  0.001  0.09841  0.000708  3.828547  0.0  0.018424  0.093357  0.001329  3.801537  0.001
C  C93  1  0.66648097  0.40368003  0.32683619  1  0.117416  -0.000445  3.574722  0.0  0.095404  -0.000999  3.812562  -0.001  0.098449  -0.000709  3.828589  0.0  0.018431  0.093395  -0.00133  3.801581  -0.001
C  C94  1  0.31729484  0.24191802  0.63200935  1  -0.411443  0.005769  3.705988  0.005  -0.435641  0.00794  3.972646  0.006  -0.458799  0.006277  3.991941  0.005  -0.143316  -0.421739  0.010037  3.960805  0.007
C  C95  1  0.81729084  0.75808347  0.36799051  1  -0.411633  -0.005742  3.706051  -0.005  -0.435838  -0.007936  3.972704  -0.006  -0.458995  -0.00628  3.991995  -0.005  -0.143361  -0.421931  -0.010035  3.960873  -0.007
C  C96  1  0.21824539  0.34665845  0.63327219  1  0.419912  0.002855  3.684037  0.002  0.406555  0.005288  3.944279  0.003  0.429993  0.003847  3.953521  0.002  0.148441  0.390769  0.006623  3.937921  0.004
C  C97  1  0.71824235  0.65334411  0.36672916  1  0.420018  -0.002858  3.683765  -0.002  0.406599  -0.005288  3.944089  -0.003  0.430034  -0.003845  3.953328  -0.002  0.148376  0.390816  -0.006623  3.937734  -0.004
C  C98  1  0.07330988  0.31145540  0.59770050  1  -0.387489  -0.000125  3.670682  0.0  -0.468085  0.000156  3.905366  0.0  -0.473218  6.4e-05  3.908894  0.0  -0.234603  -0.464258  0.000368  3.902679  0.0
C  C99  1  0.57330542  0.68854619  0.40230087  1  -0.387451  0.000157  3.670604  0.0  -0.468047  -0.000157  3.905349  0.0  -0.473176  -6.1e-05  3.908866  0.0  -0.234581  -0.464222  -0.000368  3.902659  0.0
C  C100  1  0.55787570  0.14756116  0.64395580  1  -0.033387  0.000656  3.779349  0.001  -0.009144  0.001192  4.004375  0.001  -0.016373  0.000815  4.028919  0.001  -0.017874  -0.005103  0.001554  3.988076  0.002
C  C101  1  0.05787204  0.85244042  0.35604340  1  -0.033328  -0.00076  3.779387  -0.001  -0.009067  -0.001191  4.004313  -0.001  -0.01627  -0.000816  4.02881  -0.001  -0.01788  -0.005025  -0.001554  3.98802  -0.002
C  C102  1  0.45902572  0.26296313  0.65434663  1  0.424363  0.005144  3.793852  0.007  0.398849  0.008813  4.053814  0.01  0.427103  0.005932  4.059893  0.007  0.124786  0.380168  0.011727  4.048266  0.012
C  C103  1  0.95902196  0.73703729  0.34565299  1  0.424293  -0.005154  3.794093  -0.007  0.398879  -0.008813  4.053863  -0.01  0.427131  -0.005929  4.059946  -0.007  0.124776  0.380185  -0.011726  4.048341  -0.012
C  C104  1  0.74816400  0.93153066  0.62053870  1  -0.058642  0.000456  3.75309  0.0  -0.074959  0.000894  4.00147  0.001  -0.075062  0.000529  4.021968  0.001  -0.088488  -0.074148  0.001247  3.987732  0.001
C  C105  1  0.24816140  0.06846880  0.37945909  1  -0.058604  -0.00034  3.753108  0.0  -0.074921  -0.000894  4.001468  -0.001  -0.07502  -0.000527  4.021957  -0.001  -0.08846  -0.074108  -0.001247  3.987727  -0.001
C  C106  1  0.79127018  0.06120219  0.60680106  1  -0.081918  -0.000138  3.782756  0.0  -0.091892  6.4e-05  4.030155  0.0  -0.095236  2e-06  4.051698  0.0  -0.094693  -0.089254  0.000136  4.014968  0.0
C  C107  1  0.29126617  0.93879726  0.39319722  1  -0.081906  5e-06  3.782737  0.0  -0.091864  -6.3e-05  4.03013  0.0  -0.095208  -2e-06  4.05168  0.0  -0.094689  -0.089229  -0.000136  4.014943  0.0
C  C108  1  0.61051976  0.91005684  0.64746788  1  -0.069297  -0.000232  3.77513  0.0  -0.079994  3.8e-05  4.022011  0.0  -0.083462  -7e-05  4.044311  0.0  -0.090949  -0.077929  0.000118  4.006487  0.0
C  C109  1  0.11051853  0.08994269  0.35253151  1  -0.069395  0.00013  3.77519  0.0  -0.080101  -3.7e-05  4.02206  0.0  -0.083571  6.9e-05  4.044357  0.0  -0.090999  -0.078035  -0.000119  4.006537  0.0
C  C110  1  0.51567309  0.01689334  0.65820733  1  -0.08883  0.000351  3.733874  0.0  -0.109523  0.000738  3.97289  0.001  -0.109848  0.00046  3.994368  0.0  -0.084723  -0.108307  0.001239  3.958265  0.001
C  C111  1  0.01567179  0.98310827  0.34179365  1  -0.088933  -0.000261  3.733898  0.0  -0.109602  -0.000739  3.972885  -0.001  -0.109916  -0.000459  3.994378  0.0  -0.084759  -0.108388  -0.001239  3.958265  -0.001
C  C112  1  0.69746415  0.16913055  0.61979194  1  -0.076823  0.000966  3.724563  0.001  -0.101309  0.002202  3.972237  0.002  -0.101525  0.001667  3.993494  0.001  -0.08261  -0.100879  0.002598  3.957979  0.002
C  C113  1  0.19746019  0.83086894  0.38020616  1  -0.076845  -0.000826  3.724659  -0.001  -0.101367  -0.002201  3.972337  -0.002  -0.101588  -0.001667  3.993604  -0.001  -0.082615  -0.100931  -0.002598  3.958074  -0.002
N  N114  1  0.04779057  0.54744838  0.82844365  1  -0.367279  0.003705  3.32268  0.004  -0.305482  0.005902  3.553675  0.006  -0.326211  0.004582  3.566731  0.005  -0.393276  -0.291462  0.007482  3.544599  0.007
N  N115  1  0.54779479  0.45255119  0.17155689  1  -0.367319  -0.003688  3.322673  -0.004  -0.305534  -0.0059  3.553644  -0.006  -0.326264  -0.004584  3.566716  -0.005  -0.393268  -0.291512  -0.007482  3.544569  -0.007
N  N116  1  0.25306051  0.47597268  0.66479910  1  -0.361453  0.003545  3.324534  0.004  -0.300884  0.005813  3.55799  0.006  -0.321543  0.004533  3.570804  0.005  -0.393766  -0.28689  0.00701  3.548885  0.007
N  N117  1  0.75305875  0.52402782  0.33520104  1  -0.361556  -0.00354  3.324598  -0.004  -0.300906  -0.005812  3.558019  -0.006  -0.321584  -0.004534  3.57088  -0.005  -0.39372  -0.286915  -0.00701  3.548921  -0.007
Cl  Cl118  1  0.51817565  0.68158209  0.83692574  1  -0.605866  0.067087  0.886861  0.04  -0.542951  0.083689  1.176554  0.043  -0.567998  0.070373  1.147119  0.033  -0.293597  -0.522094  0.096638  1.197182  0.054
Cl  Cl119  1  0.01817579  0.31842459  0.16307430  1  -0.605861  -0.067092  0.886878  -0.04  -0.542923  -0.083697  1.176574  -0.043  -0.567975  -0.070377  1.147136  -0.033  -0.293605  -0.522064  -0.096643  1.1972  -0.054
Cl  Cl120  1  0.79050041  0.57014592  0.60776368  1  -0.589646  0.068126  0.903739  0.041  -0.523259  0.084013  1.190305  0.044  -0.548914  0.070634  1.161461  0.033  -0.284377  -0.501923  0.097471  1.211229  0.055
Cl  Cl121  1  0.29049905  0.42985551  0.39222953  1  -0.589648  -0.06813  0.90383  -0.041  -0.523198  -0.084014  1.190365  -0.044  -0.548859  -0.070634  1.161518  -0.033  -0.284347  -0.501875  -0.097471  1.211316  -0.055
O  O122  1  0.79398952  0.44960772  0.83209546  1  -0.612973  0.041957  2.194988  0.025  -0.53186  0.048737  2.476313  0.028  -0.566842  0.043611  2.462904  0.023  -0.316754  -0.505127  0.05413  2.48441  0.033
O  O123  1  0.29399398  0.55038970  0.16790257  1  -0.612954  -0.041958  2.194963  -0.025  -0.531928  -0.048735  2.476292  -0.028  -0.566912  -0.043613  2.462882  -0.023  -0.316794  -0.505193  -0.054129  2.484385  -0.033
O  O124  1  0.50751175  0.38483445  0.68071151  1  -0.604898  0.04308  2.199867  0.027  -0.521949  0.049046  2.478579  0.029  -0.557063  0.043735  2.464847  0.024  -0.31413  -0.495478  0.054543  2.487012  0.034
O  O125  1  0.00750725  0.61516820  0.31929115  1  -0.604777  -0.04308  2.199976  -0.027  -0.521843  -0.049041  2.478621  -0.029  -0.556959  -0.043729  2.464893  -0.024  -0.314083  -0.495369  -0.054536  2.48706  -0.034
