# generated using pymatgen
data_CuH11C13N3O4
_symmetry_space_group_name_H-M   'P 1'
_cell_length_a   13.40602036
_cell_length_b   13.48928788
_cell_length_c   20.22359312
_cell_angle_alpha   89.99997073
_cell_angle_beta   90.00001731
_cell_angle_gamma   89.99996346
_symmetry_Int_Tables_number   1
_chemical_formula_structural   CuH11C13N3O4
_chemical_formula_sum   'Cu8 H88 C104 N24 O32'
_cell_volume   3657.18741698
_cell_formula_units_Z   8
loop_
 _symmetry_equiv_pos_site_id
 _symmetry_equiv_pos_as_xyz
  1  'x, y, z'
loop_
 _atom_site_type_symbol
 _atom_site_label
 _atom_site_symmetry_multiplicity
 _atom_site_fract_x
 _atom_site_fract_y
 _atom_site_fract_z
 _atom_site_occupancy
 _atom_site_pbe_bader_charge
 _atom_site_pbe_bader_spin_density
 _atom_site_pbe_cm5_charge
 _atom_site_pbe_ddec_charge
 _atom_site_pbe_ddec_spin_density
 _atom_site_pbe_ddec_sum_bond_order
 _atom_site_pbe_magmom
Cu  Cu0  1  0.16464461  0.43892070  0.30191365  1  1.101117  0.592771  0.698955  0.799327  0.745019  2.355089  0.594
Cu  Cu1  1  0.33535546  0.06107842  0.80191390  1  1.099364  0.592703  0.698932  0.799247  0.745016  2.355141  0.594
Cu  Cu2  1  0.33535516  0.93892169  0.69808552  1  1.101111  0.59277  0.698941  0.799284  0.74502  2.35515  0.594
Cu  Cu3  1  0.16464455  0.56107693  0.19808539  1  1.099331  0.592702  0.698947  0.799267  0.745019  2.355124  0.594
Cu  Cu4  1  0.83535452  0.56107801  0.69808613  1  1.099342  0.592707  0.69894  0.799283  0.745024  2.355134  0.594
Cu  Cu5  1  0.66464367  0.93892178  0.19808686  1  1.099307  0.592716  0.698954  0.799249  0.745034  2.355271  0.594
Cu  Cu6  1  0.66464472  0.06107777  0.30191525  1  1.10114  0.592755  0.698935  0.799284  0.745  2.35501  0.593
Cu  Cu7  1  0.83535533  0.43892178  0.80191438  1  1.10111  0.592763  0.698899  0.799145  0.745009  2.35528  0.594
H  H8  1  0.42159622  0.74927505  0.25654582  1  0.124785  0.000669  0.122309  0.140821  0.000517  0.97671  0.0
H  H9  1  0.07840277  0.75072501  0.75654546  1  0.124768  0.000669  0.122314  0.140822  0.000517  0.976681  0.0
H  H10  1  0.07840367  0.24927452  0.74345341  1  0.124786  0.000669  0.12226  0.140719  0.000517  0.976744  0.0
H  H11  1  0.42159713  0.25072613  0.24345377  1  0.124765  0.000669  0.122307  0.140837  0.000517  0.976701  0.0
H  H12  1  0.57840291  0.25072589  0.74345445  1  0.12476  0.000669  0.122297  0.140795  0.000517  0.976724  0.0
H  H13  1  0.92159637  0.24927445  0.24345382  1  0.124774  0.000669  0.122327  0.140864  0.000517  0.97666  0.0
H  H14  1  0.92159621  0.75072567  0.25654537  1  0.124755  0.000669  0.122316  0.140834  0.000517  0.976699  0.0
H  H15  1  0.57840425  0.74927407  0.75654551  1  0.124774  0.000669  0.122301  0.140803  0.000517  0.976731  0.0
H  H16  1  0.49674604  0.89024830  0.44068766  1  0.091569  0.000385  0.112434  0.124732  0.000288  1.002124  0.0
H  H17  1  0.00325303  0.60975236  0.94068684  1  0.091579  0.000385  0.112442  0.124762  0.000288  1.002107  0.0
H  H18  1  0.00325227  0.39024796  0.55931301  1  0.091555  0.000385  0.112435  0.124722  0.000288  1.002121  0.0
H  H19  1  0.49674769  0.10975283  0.05931343  1  0.091562  0.000385  0.11241  0.124706  0.000288  1.002103  0.0
H  H20  1  0.50325235  0.10975190  0.55931310  1  0.091549  0.000385  0.112427  0.124708  0.000288  1.002136  0.0
H  H21  1  0.99674759  0.39024784  0.05931294  1  0.091564  0.000385  0.112481  0.124797  0.000288  1.002237  0.0
H  H22  1  0.99674910  0.60975150  0.44068627  1  0.091542  0.000385  0.112492  0.124794  0.000288  1.002221  0.0
H  H23  1  0.50325219  0.89024811  0.94068684  1  0.09158  0.000385  0.112443  0.124746  0.000288  1.002103  0.0
H  H24  1  0.29266244  0.64251031  0.43838394  1  0.076014  0.000202  0.111813  0.122424  0.000127  1.010017  0.0
H  H25  1  0.20733813  0.85748813  0.93838357  1  0.076081  0.000202  0.111812  0.122421  0.000127  1.010063  0.0
H  H26  1  0.20733753  0.14251206  0.56161533  1  0.076062  0.000202  0.11183  0.12244  0.000127  1.010032  0.0
H  H27  1  0.29266244  0.35748725  0.06161563  1  0.076078  0.000202  0.111822  0.12241  0.000127  1.01008  0.0
H  H28  1  0.70733670  0.35748767  0.56161633  1  0.076101  0.000202  0.111828  0.122461  0.000127  1.010033  0.0
H  H29  1  0.79266324  0.14251133  0.06161522  1  0.076025  0.000202  0.111846  0.122436  0.000127  1.010039  0.0
H  H30  1  0.79266161  0.85748740  0.43838395  1  0.076083  0.000202  0.111835  0.122447  0.000127  1.010044  0.0
H  H31  1  0.70733818  0.64251221  0.93838415  1  0.076072  0.000202  0.111813  0.122413  0.000127  1.010057  0.0
H  H32  1  0.26496360  0.98840844  0.55747646  1  0.129575  -6.1e-05  0.105387  0.162596  -2.9e-05  1.037253  0.0
H  H33  1  0.23503679  0.51159177  0.05747736  1  0.129601  -6.1e-05  0.105373  0.162583  -2.9e-05  1.037234  0.0
H  H34  1  0.23503688  0.48840804  0.44252219  1  0.129577  -6.1e-05  0.105401  0.162657  -2.9e-05  1.037284  0.0
H  H35  1  0.26496400  0.01159172  0.94252245  1  0.129599  -6.1e-05  0.105401  0.162645  -2.9e-05  1.037274  0.0
H  H36  1  0.73503628  0.01159176  0.44252282  1  0.129603  -6.1e-05  0.105379  0.162587  -2.9e-05  1.037264  0.0
H  H37  1  0.76496309  0.48840843  0.94252291  1  0.129601  -6.1e-05  0.105373  0.162591  -2.9e-05  1.037235  0.0
H  H38  1  0.76496300  0.51159141  0.55747758  1  0.129548  -6.1e-05  0.105367  0.162592  -2.9e-05  1.037258  0.0
H  H39  1  0.73503662  0.98840922  0.05747733  1  0.12956  -6.1e-05  0.105377  0.162606  -2.9e-05  1.037256  0.0
H  H40  1  0.25178594  0.92632810  0.47937215  1  0.037669  -4.9e-05  0.100474  0.144625  -3.4e-05  0.986196  0.0
H  H41  1  0.24821389  0.57367179  0.97937238  1  0.037661  -4.9e-05  0.100474  0.144622  -3.4e-05  0.986198  0.0
H  H42  1  0.24821533  0.42632764  0.52062702  1  0.037681  -4.9e-05  0.100483  0.144643  -3.4e-05  0.986213  0.0
H  H43  1  0.25178611  0.07367244  0.02062691  1  0.037688  -4.9e-05  0.10046  0.144588  -3.4e-05  0.986235  0.0
H  H44  1  0.74821468  0.07367210  0.52062763  1  0.03767  -4.9e-05  0.100473  0.144629  -3.4e-05  0.986199  0.0
H  H45  1  0.75178599  0.42632767  0.02062740  1  0.037674  -4.9e-05  0.100482  0.144634  -3.4e-05  0.986212  0.0
H  H46  1  0.75178530  0.57367108  0.47937275  1  0.037663  -4.9e-05  0.100466  0.144617  -3.4e-05  0.986267  0.0
H  H47  1  0.74821451  0.92632850  0.97937286  1  0.03768  -4.9e-05  0.100479  0.14463  -3.4e-05  0.986219  0.0
H  H48  1  0.36323138  0.99092005  0.49801671  1  0.059313  -2e-05  0.100939  0.146694  -2e-05  0.985292  0.0
H  H49  1  0.13676921  0.50907908  0.99801645  1  0.059416  -2e-05  0.100952  0.146698  -2e-05  0.98529  0.0
H  H50  1  0.13676985  0.49092042  0.50198293  1  0.059281  -2e-05  0.100957  0.146727  -2e-05  0.985285  0.0
H  H51  1  0.36323083  0.00907968  0.00198287  1  0.05932  -2e-05  0.100942  0.146713  -2e-05  0.985284  0.0
H  H52  1  0.63676925  0.00907940  0.50198356  1  0.059268  -2e-05  0.100951  0.1467  -2e-05  0.985287  0.0
H  H53  1  0.86323067  0.49092112  0.00198333  1  0.059372  -2e-05  0.10094  0.146677  -2e-05  0.985314  0.0
H  H54  1  0.86323077  0.50907904  0.49801684  1  0.059263  -2e-05  0.100945  0.146691  -2e-05  0.985301  0.0
H  H55  1  0.63676905  0.99092052  0.99801691  1  0.059261  -2e-05  0.100945  0.146698  -2e-05  0.985296  0.0
H  H56  1  0.50627246  0.61795443  0.50539134  1  0.041043  -5e-06  0.096636  0.093498  -9e-06  0.982988  0.0
H  H57  1  0.99372788  0.88204550  0.00539118  1  0.041048  -5e-06  0.09664  0.093508  -9e-06  0.982979  0.0
H  H58  1  0.99372749  0.11795457  0.49460754  1  0.041064  -5e-06  0.096656  0.093519  -9e-06  0.982959  0.0
H  H59  1  0.50627265  0.38204557  0.99460761  1  0.041066  -5e-06  0.096642  0.093498  -9e-06  0.982959  0.0
H  H60  1  0.49372742  0.38204577  0.49460794  1  0.04106  -5e-06  0.096643  0.093498  -9e-06  0.982988  0.0
H  H61  1  0.00627274  0.11795395  0.99460810  1  0.041057  -5e-06  0.096643  0.09349  -9e-06  0.982993  0.0
H  H62  1  0.00627239  0.88204488  0.50539174  1  0.041053  -5e-06  0.09665  0.093495  -9e-06  0.982989  0.0
H  H63  1  0.49372798  0.61795537  0.00539167  1  0.041054  -5e-06  0.096651  0.093486  -9e-06  0.982991  0.0
H  H64  1  0.40093399  0.55519503  0.53519020  1  0.030734  -3e-06  0.097873  0.097113  -5e-06  0.979403  0.0
H  H65  1  0.09906639  0.94480446  0.03519043  1  0.030726  -3e-06  0.097899  0.097134  -5e-06  0.979386  0.0
H  H66  1  0.09906603  0.05519618  0.46480909  1  0.030741  -3e-06  0.097903  0.097141  -5e-06  0.979361  0.0
H  H67  1  0.40093338  0.44480356  0.96480923  1  0.030744  -3e-06  0.097881  0.097105  -5e-06  0.979394  0.0
H  H68  1  0.59906589  0.44480443  0.46480908  1  0.03073  -3e-06  0.097913  0.097184  -5e-06  0.979366  0.0
H  H69  1  0.90093349  0.05519574  0.96480935  1  0.030734  -3e-06  0.097903  0.097159  -5e-06  0.97934  0.0
H  H70  1  0.90093385  0.94480328  0.53519019  1  0.030745  -3e-06  0.097912  0.097149  -5e-06  0.97935  0.0
H  H71  1  0.59906650  0.55519664  0.03519055  1  0.03074  -3e-06  0.097893  0.097124  -5e-06  0.979357  0.0
H  H72  1  0.58379213  0.61610327  0.61900568  1  0.070654  -2.4e-05  0.092403  0.132776  -2.3e-05  0.988162  0.0
H  H73  1  0.91620826  0.88389658  0.11900550  1  0.070665  -2.4e-05  0.092411  0.132793  -2.3e-05  0.988146  0.0
H  H74  1  0.91620856  0.11610354  0.38099369  1  0.070629  -2.4e-05  0.092419  0.132816  -2.3e-05  0.988147  0.0
H  H75  1  0.58379152  0.38389595  0.88099379  1  0.070627  -2.4e-05  0.092415  0.132809  -2.3e-05  0.988145  0.0
H  H76  1  0.41620849  0.38389693  0.38099409  1  0.07066  -2.4e-05  0.092403  0.132795  -2.3e-05  0.988161  0.0
H  H77  1  0.08379162  0.11610287  0.88099378  1  0.07066  -2.4e-05  0.092404  0.132788  -2.3e-05  0.988165  0.0
H  H78  1  0.08379132  0.88389591  0.61900559  1  0.070816  -2.4e-05  0.092416  0.132809  -2.3e-05  0.988154  0.0
H  H79  1  0.41620836  0.61610351  0.11900599  1  0.070664  -2.4e-05  0.092426  0.132817  -2.3e-05  0.988134  0.0
H  H80  1  0.54918906  0.49423251  0.59541494  1  0.020356  5.7e-05  0.080054  0.105323  6e-05  1.045611  0.0
H  H81  1  0.95081164  0.00576720  0.09541489  1  0.020356  5.7e-05  0.080077  0.105357  6e-05  1.04562  0.0
H  H82  1  0.95081214  0.99423290  0.40458431  1  0.020449  5.7e-05  0.080064  0.105372  6e-05  1.045611  0.0
H  H83  1  0.54918838  0.50576673  0.90458452  1  0.02045  5.7e-05  0.080071  0.105376  6e-05  1.045582  0.0
H  H84  1  0.45081157  0.50576695  0.40458434  1  0.02045  5.7e-05  0.080064  0.105366  6e-05  1.045613  0.0
H  H85  1  0.04918824  0.99423226  0.90458439  1  0.020442  5.7e-05  0.080064  0.105352  6e-05  1.045607  0.0
H  H86  1  0.04918848  0.00576655  0.59541448  1  0.020377  5.7e-05  0.080093  0.105401  6e-05  1.045555  0.0
H  H87  1  0.45081225  0.49423347  0.09541476  1  0.020375  5.7e-05  0.080075  0.105375  6e-05  1.04558  0.0
H  H88  1  0.47433089  0.56224351  0.65217832  1  0.043292  2e-06  0.093632  0.12847  -2e-06  0.991133  0.0
H  H89  1  0.02566954  0.93775663  0.15217804  1  0.043287  1e-06  0.093636  0.12847  -2e-06  0.991126  0.0
H  H90  1  0.02566987  0.06224332  0.34782097  1  0.043252  2e-06  0.093652  0.128507  -2e-06  0.991116  0.0
H  H91  1  0.47433023  0.43775725  0.84782112  1  0.043261  1e-06  0.093649  0.1285  -2e-06  0.99112  0.0
H  H92  1  0.52566974  0.43775669  0.34782096  1  0.043265  1e-06  0.093652  0.1285  -2e-06  0.991113  0.0
H  H93  1  0.97433034  0.06224357  0.84782124  1  0.043261  2e-06  0.093627  0.128502  -2e-06  0.991112  0.0
H  H94  1  0.97433076  0.93775614  0.65217831  1  0.043273  1e-06  0.093637  0.128521  -2e-06  0.991107  0.0
H  H95  1  0.52567040  0.56224369  0.15217865  1  0.043258  2e-06  0.093624  0.128503  -2e-06  0.991115  0.0
C  C96  1  0.29145848  0.61260589  0.30632976  1  1.567239  -0.001008  0.218156  0.576694  -0.001304  4.164122  -0.004
C  C97  1  0.20854277  0.88739339  0.80632889  1  1.567545  -0.001008  0.218141  0.576722  -0.001304  4.16399  -0.004
C  C98  1  0.20854300  0.11260606  0.69366952  1  1.567555  -0.001008  0.218099  0.576567  -0.001303  4.164173  -0.004
C  C99  1  0.29145554  0.38739241  0.19367030  1  1.567439  -0.001008  0.218156  0.576687  -0.001303  4.164008  -0.004
C  C100  1  0.70854364  0.38739357  0.69367001  1  1.56744  -0.001008  0.218163  0.576715  -0.001304  4.163925  -0.004
C  C101  1  0.79145636  0.11260532  0.19366940  1  1.567292  -0.001008  0.218135  0.576674  -0.001304  4.164029  -0.004
C  C102  1  0.79145316  0.88739043  0.30633026  1  1.567596  -0.001008  0.21821  0.576685  -0.001304  4.163918  -0.004
C  C103  1  0.70854508  0.61260779  0.80632948  1  1.567423  -0.001008  0.218168  0.576661  -0.001304  4.16403  -0.004
C  C104  1  0.35160756  0.68767950  0.34365695  1  -0.030098  0.01695  -0.005877  -0.001345  0.0117  3.965738  0.013
C  C105  1  0.14839296  0.81232050  0.84365757  1  -0.030218  0.016951  -0.005876  -0.001396  0.011701  3.965697  0.013
C  C106  1  0.14839387  0.18767974  0.65634181  1  -0.030154  0.016951  -0.005919  -0.001454  0.011701  3.965773  0.013
C  C107  1  0.35160465  0.31232173  0.15634114  1  -0.030201  0.01695  -0.005911  -0.00146  0.011701  3.965778  0.013
C  C108  1  0.64839232  0.31231996  0.65634282  1  -0.030263  0.016951  -0.00586  -0.001363  0.011701  3.965706  0.013
C  C109  1  0.85160543  0.18768193  0.15634369  1  -0.030112  0.016951  -0.005864  -0.001368  0.011701  3.965684  0.013
C  C110  1  0.85160751  0.81232269  0.34365896  1  -0.030246  0.01695  -0.005952  -0.001413  0.0117  3.965541  0.013
C  C111  1  0.64839374  0.68767921  0.84365814  1  -0.030224  0.016951  -0.005913  -0.001411  0.011701  3.9657  0.013
C  C112  1  0.41354537  0.75393429  0.31003087  1  0.063124  0.001757  -0.059384  -0.088039  0.000971  3.86665  0.001
C  C113  1  0.08645364  0.74606573  0.81003052  1  0.063162  0.001757  -0.059397  -0.08805  0.000971  3.866585  0.001
C  C114  1  0.08645377  0.25393454  0.68996935  1  0.063082  0.001757  -0.059323  -0.08785  0.000971  3.866445  0.001
C  C115  1  0.41354476  0.24606764  0.18997020  1  0.063093  0.001757  -0.059329  -0.087983  0.000971  3.866481  0.001
C  C116  1  0.58645301  0.24606517  0.68996989  1  0.063171  0.001757  -0.059362  -0.087968  0.000971  3.866637  0.001
C  C117  1  0.91354549  0.25393595  0.18996975  1  0.063157  0.001757  -0.059377  -0.088032  0.000971  3.86657  0.001
C  C118  1  0.91354611  0.74606640  0.31002994  1  0.063145  0.001757  -0.059375  -0.088052  0.000971  3.866611  0.001
C  C119  1  0.58645437  0.75393404  0.81003057  1  0.063164  0.001757  -0.059368  -0.088016  0.000971  3.866645  0.001
C  C120  1  0.46553096  0.82650666  0.34528425  1  -0.001895  0.017429  -0.007749  0.001244  0.012027  3.962909  0.014
C  C121  1  0.03446658  0.67349556  0.84528341  1  -0.00198  0.017429  -0.007762  0.001317  0.012028  3.962867  0.014
C  C122  1  0.03446516  0.32650400  0.65471694  1  -0.001953  0.017429  -0.007787  0.00122  0.012028  3.962914  0.014
C  C123  1  0.46553560  0.17349820  0.15471783  1  -0.001875  0.017428  -0.007757  0.001291  0.012027  3.9628  0.014
C  C124  1  0.53446445  0.17349577  0.65471701  1  -0.00195  0.017428  -0.007808  0.001184  0.012027  3.963028  0.014
C  C125  1  0.96553479  0.32650538  0.15471587  1  -0.001946  0.017428  -0.007839  0.001188  0.012027  3.962998  0.014
C  C126  1  0.96553249  0.67349768  0.34528185  1  -0.001815  0.017429  -0.007779  0.00127  0.012028  3.962892  0.014
C  C127  1  0.53446726  0.82650348  0.84528343  1  -0.001978  0.017429  -0.007769  0.001278  0.012027  3.962917  0.014
C  C128  1  0.45552800  0.83339284  0.41391003  1  -0.022031  0.000568  -0.076091  -0.172828  9e-05  3.934258  0.0
C  C129  1  0.04447106  0.66660710  0.91390870  1  -0.022052  0.000568  -0.076086  -0.172908  9e-05  3.934276  0.0
C  C130  1  0.04447109  0.33339319  0.58609115  1  -0.022052  0.000568  -0.076029  -0.172763  9e-05  3.934199  0.0
C  C131  1  0.45553038  0.16660684  0.08609204  1  -0.022102  0.000568  -0.076051  -0.172824  9e-05  3.934091  0.0
C  C132  1  0.54446964  0.16660662  0.58609123  1  -0.022056  0.000568  -0.076044  -0.172753  9e-05  3.934229  0.0
C  C133  1  0.95552957  0.33339384  0.08609107  1  -0.022062  0.000568  -0.076081  -0.172846  9e-05  3.934336  0.0
C  C134  1  0.95553028  0.66660626  0.41390863  1  -0.02216  0.000568  -0.076076  -0.172842  9e-05  3.934207  0.0
C  C135  1  0.54447174  0.83339262  0.91390873  1  -0.022039  0.000568  -0.076078  -0.172841  9e-05  3.934166  0.0
C  C136  1  0.39371103  0.76676813  0.44708812  1  0.284583  0.001595  0.090598  0.170578  0.000938  4.068038  0.001
C  C137  1  0.10628656  0.73323030  0.94708777  1  0.284597  0.001595  0.090596  0.170596  0.000938  4.068049  0.001
C  C138  1  0.10628587  0.26677069  0.55291210  1  0.284616  0.001595  0.090617  0.170647  0.000938  4.067996  0.001
C  C139  1  0.39371409  0.23322788  0.05291295  1  0.284674  0.001595  0.090568  0.170561  0.000938  4.067926  0.001
C  C140  1  0.60628587  0.23322985  0.55291265  1  0.28462  0.001595  0.090592  0.170597  0.000938  4.068013  0.001
C  C141  1  0.89371332  0.26676841  0.05291300  1  0.284628  0.001595  0.090575  0.170571  0.000938  4.067993  0.001
C  C142  1  0.89371326  0.73322728  0.44708768  1  0.284646  0.001595  0.090553  0.170551  0.000938  4.068024  0.001
C  C143  1  0.60628728  0.76677083  0.94708831  1  0.2846  0.001595  0.090614  0.170612  0.000938  4.067954  0.001
C  C144  1  0.34193132  0.69361604  0.41245333  1  0.036826  0.000309  -0.075118  -0.176286  -0.000155  3.937896  0.0
C  C145  1  0.15806774  0.80638316  0.91245396  1  0.036781  0.000309  -0.075098  -0.176232  -0.000155  3.937914  0.0
C  C146  1  0.15806861  0.19361706  0.58754642  1  0.036798  0.000309  -0.075124  -0.176277  -0.000156  3.937989  0.0
C  C147  1  0.34193137  0.30638297  0.08754575  1  0.036714  0.000309  -0.075095  -0.176176  -0.000156  3.93799  0.0
C  C148  1  0.65806781  0.30638268  0.58754694  1  0.036791  0.000309  -0.075135  -0.176325  -0.000155  3.937935  0.0
C  C149  1  0.84193140  0.19361704  0.08754730  1  0.036848  0.000309  -0.075128  -0.176266  -0.000155  3.937915  0.0
C  C150  1  0.84193202  0.80638240  0.41245534  1  0.03676  0.000309  -0.075108  -0.176257  -0.000155  3.937954  0.0
C  C151  1  0.65806925  0.69361723  0.91245402  1  0.036776  0.000309  -0.075089  -0.176204  -0.000156  3.93795  0.0
C  C152  1  0.53443952  0.89596028  0.30994927  1  1.571616  -0.001705  0.215084  0.573647  -0.002065  4.174888  -0.004
C  C153  1  0.96555947  0.60404017  0.80994855  1  1.571609  -0.001705  0.21498  0.573545  -0.002065  4.175062  -0.004
C  C154  1  0.96555951  0.39596029  0.69005248  1  1.571567  -0.001705  0.214974  0.573503  -0.002065  4.175295  -0.004
C  C155  1  0.53444124  0.10404083  0.19005182  1  1.571559  -0.001705  0.214985  0.57349  -0.002065  4.175298  -0.004
C  C156  1  0.46555961  0.10404140  0.69005297  1  1.571559  -0.001705  0.214937  0.573425  -0.002064  4.175226  -0.004
C  C157  1  0.03444041  0.39595929  0.19005172  1  1.571563  -0.001705  0.215005  0.573574  -0.002065  4.17513  -0.004
C  C158  1  0.03444037  0.60404065  0.30994779  1  1.571587  -0.001705  0.214978  0.573507  -0.002065  4.175102  -0.004
C  C159  1  0.46556088  0.89595937  0.80994795  1  1.571583  -0.001705  0.214999  0.573564  -0.002065  4.175122  -0.004
C  C160  1  0.34414896  0.85416857  0.55106072  1  0.950872  -0.000662  0.223735  0.334812  -0.000766  3.963026  0.0
C  C161  1  0.15585142  0.64583165  0.05106056  1  0.95089  -0.000661  0.223721  0.334819  -0.000766  3.963067  0.0
C  C162  1  0.15585161  0.35416822  0.44893897  1  0.950881  -0.000662  0.223736  0.334927  -0.000766  3.962979  0.0
C  C163  1  0.34414928  0.14583154  0.94893870  1  0.950874  -0.000662  0.223718  0.334868  -0.000766  3.963  0.0
C  C164  1  0.65585166  0.14583163  0.44893906  1  0.950788  -0.000662  0.22373  0.334845  -0.000766  3.963073  0.0
C  C165  1  0.84414920  0.35416855  0.94893921  1  0.950782  -0.000662  0.22371  0.334807  -0.000766  3.962994  0.0
C  C166  1  0.84414902  0.64583124  0.55106080  1  0.950855  -0.000661  0.223748  0.334816  -0.000766  3.963154  0.0
C  C167  1  0.65585060  0.85416940  0.05106058  1  0.950823  -0.000662  0.223707  0.334809  -0.000766  3.962999  0.0
C  C168  1  0.41115921  0.70628972  0.56479075  1  0.928292  8.5e-05  0.219552  0.258578  7.3e-05  3.962453  0.0
C  C169  1  0.08884119  0.79371049  0.06479103  1  0.928295  8.5e-05  0.219572  0.258641  7.3e-05  3.962561  0.0
C  C170  1  0.08884146  0.20629016  0.43520849  1  0.928277  8.5e-05  0.219535  0.258571  7.3e-05  3.962633  0.0
C  C171  1  0.41115942  0.29370961  0.93520868  1  0.928277  8.5e-05  0.219556  0.258628  7.3e-05  3.962509  0.0
C  C172  1  0.58884067  0.29371048  0.43520902  1  0.928414  8.5e-05  0.219527  0.25859  7.3e-05  3.962538  0.0
C  C173  1  0.91115944  0.20629045  0.93520874  1  0.928315  8.5e-05  0.219559  0.258657  7.3e-05  3.962518  0.0
C  C174  1  0.91115916  0.79370930  0.56479079  1  0.92828  8.5e-05  0.219596  0.258687  7.3e-05  3.962497  0.0
C  C175  1  0.58884046  0.70629134  0.06479159  1  0.928317  8.5e-05  0.219558  0.258599  7.3e-05  3.962566  0.0
C  C176  1  0.30370217  0.94504589  0.51957322  1  -0.065738  8.1e-05  -0.229411  -0.465701  -2e-05  3.953759  0.0
C  C177  1  0.19629745  0.55495436  0.01957310  1  -0.065852  8.1e-05  -0.229416  -0.465695  -2e-05  3.953722  0.0
C  C178  1  0.19629834  0.44504623  0.48042595  1  -0.065714  8.1e-05  -0.229474  -0.465854  -2e-05  3.953868  0.0
C  C179  1  0.30370256  0.05495425  0.98042619  1  -0.065766  8.1e-05  -0.229432  -0.465757  -2e-05  3.953819  0.0
C  C180  1  0.69629771  0.05495431  0.48042656  1  -0.065713  8.1e-05  -0.229414  -0.465708  -2e-05  3.95379  0.0
C  C181  1  0.80370243  0.44504510  0.98042667  1  -0.065811  8.1e-05  -0.22942  -0.4657  -2e-05  3.953761  0.0
C  C182  1  0.80370229  0.55495397  0.51957333  1  -0.065662  8.1e-05  -0.229396  -0.465696  -2e-05  3.953834  0.0
C  C183  1  0.69629806  0.94504669  0.01957309  1  -0.065696  8.1e-05  -0.229423  -0.465734  -2e-05  3.953759  0.0
C  C184  1  0.45913096  0.60893320  0.54965202  1  0.016181  -2e-05  -0.149153  -0.175901  -3e-05  3.998766  0.0
C  C185  1  0.04087017  0.89106628  0.04965176  1  0.016178  -2e-05  -0.14921  -0.175958  -3e-05  3.998832  0.0
C  C186  1  0.04086977  0.10893366  0.45034775  1  0.016162  -2e-05  -0.14922  -0.175918  -3e-05  3.998782  0.0
C  C187  1  0.45913038  0.39106609  0.95034742  1  0.016173  -2e-05  -0.149167  -0.175858  -3e-05  3.998785  0.0
C  C188  1  0.54086966  0.39106774  0.45034775  1  0.016155  -2e-05  -0.149187  -0.175935  -3e-05  3.998777  0.0
C  C189  1  0.95913046  0.10893318  0.95034752  1  0.016172  -2e-05  -0.149178  -0.17591  -3e-05  3.998755  0.0
C  C190  1  0.95913011  0.89106580  0.54965202  1  0.016153  -2e-05  -0.149229  -0.175927  -3e-05  3.998788  0.0
C  C191  1  0.54087025  0.60893410  0.04965186  1  0.01616  -2e-05  -0.149202  -0.175864  -3e-05  3.998755  0.0
C  C192  1  0.52008793  0.56805850  0.60740784  1  -0.048026  1.8e-05  -0.242786  -0.343253  2.7e-05  3.942598  0.0
C  C193  1  0.97991245  0.93194210  0.10740766  1  -0.048016  1.8e-05  -0.242816  -0.343314  2.7e-05  3.942571  0.0
C  C194  1  0.97991280  0.06805873  0.39259204  1  -0.048059  1.8e-05  -0.242841  -0.343429  2.7e-05  3.942636  0.0
C  C195  1  0.52008730  0.43194149  0.89259161  1  -0.048074  1.8e-05  -0.242839  -0.343414  2.7e-05  3.942619  0.0
C  C196  1  0.47991269  0.43194096  0.39259193  1  -0.048112  1.8e-05  -0.242826  -0.343378  2.7e-05  3.942665  0.0
C  C197  1  0.02008743  0.06805884  0.89259212  1  -0.048096  1.8e-05  -0.242802  -0.343358  2.7e-05  3.942643  0.0
C  C198  1  0.02008708  0.93194073  0.60740773  1  -0.048168  1.8e-05  -0.242835  -0.343445  2.7e-05  3.942586  0.0
C  C199  1  0.47991333  0.56805870  0.10740767  1  -0.047997  1.8e-05  -0.242807  -0.343403  2.7e-05  3.942563  0.0
N  N200  1  0.34835680  0.83453963  0.61507803  1  -0.721365  -0.000616  -0.24568  -0.258653  -0.000131  3.405134  0.001
N  N201  1  0.15164288  0.66545980  0.11507787  1  -0.721476  -0.000617  -0.245707  -0.258687  -0.000132  3.405015  0.001
N  N202  1  0.15164379  0.33453933  0.38492117  1  -0.721391  -0.000616  -0.245702  -0.258742  -0.000132  3.404999  0.001
N  N203  1  0.34835633  0.16545973  0.88492139  1  -0.721405  -0.000617  -0.245697  -0.25871  -0.000132  3.405033  0.001
N  N204  1  0.65164383  0.16546057  0.38492174  1  -0.721377  -0.000616  -0.245727  -0.258715  -0.000131  3.405089  0.001
N  N205  1  0.84835626  0.33453966  0.88492141  1  -0.721378  -0.000616  -0.245651  -0.258593  -0.000131  3.40511  0.001
N  N206  1  0.84835684  0.66546013  0.61507811  1  -0.721378  -0.000615  -0.245694  -0.258631  -0.000131  3.405125  0.001
N  N207  1  0.65164355  0.83454047  0.11507888  1  -0.721288  -0.000615  -0.245648  -0.258609  -0.000131  3.405061  0.001
N  N208  1  0.39078105  0.74210256  0.62386927  1  -0.658389  -0.000133  -0.231343  -0.233777  -0.000146  3.153318  0.0
N  N209  1  0.10921937  0.75789760  0.12386857  1  -0.658382  -0.000133  -0.231293  -0.233713  -0.000146  3.153222  0.0
N  N210  1  0.10921959  0.24210230  0.37613046  1  -0.65843  -0.000133  -0.231286  -0.233664  -0.000146  3.153304  0.0
N  N211  1  0.39078052  0.25789751  0.87613016  1  -0.658413  -0.000133  -0.231331  -0.233766  -0.000146  3.153263  0.0
N  N212  1  0.60922032  0.25789838  0.37613100  1  -0.658395  -0.000133  -0.231294  -0.233734  -0.000146  3.153275  0.0
N  N213  1  0.89078051  0.24210260  0.87613071  1  -0.658408  -0.000133  -0.231372  -0.233842  -0.000146  3.153385  0.0
N  N214  1  0.89078103  0.75789716  0.62386833  1  -0.658388  -0.000133  -0.231335  -0.233813  -0.000146  3.153352  0.0
N  N215  1  0.60921862  0.74210269  0.12386912  1  -0.658447  -0.000133  -0.231366  -0.233803  -0.000146  3.15339  0.0
N  N216  1  0.38289724  0.77456244  0.51703711  1  -1.276369  0.000333  -0.226633  -0.143808  0.00018  3.716213  0.0
N  N217  1  0.11710164  0.72543707  0.01703692  1  -1.276302  0.000333  -0.226611  -0.143851  0.00018  3.716281  0.0
N  N218  1  0.11710189  0.27456357  0.48296261  1  -1.276338  0.000333  -0.226609  -0.143934  0.00018  3.716345  0.0
N  N219  1  0.38289827  0.22543616  0.98296281  1  -1.276319  0.000333  -0.226588  -0.143841  0.00018  3.716239  0.0
N  N220  1  0.61710040  0.22543702  0.48296316  1  -1.276377  0.000333  -0.22658  -0.143834  0.00018  3.716291  0.0
N  N221  1  0.88289974  0.27456313  0.98296286  1  -1.276274  0.000333  -0.226578  -0.143845  0.00018  3.716317  0.0
N  N222  1  0.88289799  0.72543515  0.51703816  1  -1.276339  0.000333  -0.22661  -0.143836  0.00018  3.716309  0.0
N  N223  1  0.61710235  0.77456404  0.01703746  1  -1.276374  0.000333  -0.22662  -0.143875  0.00018  3.71629  0.0
O  O224  1  0.26368741  0.53626827  0.33869544  1  -1.118652  0.087206  -0.309119  -0.531195  0.054758  2.404618  0.08
O  O225  1  0.23631311  0.96373024  0.83869504  1  -1.118758  0.087208  -0.309125  -0.531194  0.05476  2.404509  0.08
O  O226  1  0.23631263  0.03626845  0.66130436  1  -1.118677  0.087205  -0.309084  -0.531124  0.054757  2.404675  0.08
O  O227  1  0.26368664  0.46373004  0.16130511  1  -1.118641  0.087206  -0.309127  -0.531155  0.054758  2.404545  0.08
O  O228  1  0.73631247  0.46373044  0.66130681  1  -1.118657  0.087195  -0.309145  -0.531167  0.054752  2.404593  0.08
O  O229  1  0.76368453  0.03626773  0.16130622  1  -1.118666  0.087196  -0.309116  -0.531132  0.054752  2.404675  0.08
O  O230  1  0.76369024  0.96373027  0.33869739  1  -1.118676  0.087211  -0.309186  -0.531196  0.054761  2.404434  0.08
O  O231  1  0.73631324  0.53627016  0.83869565  1  -1.118635  0.087208  -0.309137  -0.531153  0.05476  2.404503  0.08
O  O232  1  0.27146744  0.63317780  0.24645860  1  -1.094309  0.093692  -0.303631  -0.50097  0.058759  2.342449  0.085
O  O233  1  0.22853304  0.86682153  0.74645823  1  -1.094361  0.093687  -0.303597  -0.500942  0.058756  2.342434  0.085
O  O234  1  0.22853178  0.13317865  0.75354117  1  -1.094453  0.093692  -0.303605  -0.500873  0.05876  2.342339  0.085
O  O235  1  0.27146753  0.36681977  0.25354195  1  -1.094366  0.093692  -0.303627  -0.500954  0.058759  2.34236  0.085
O  O236  1  0.72853095  0.36681944  0.75354217  1  -1.094353  0.093701  -0.303609  -0.500955  0.058765  2.342288  0.085
O  O237  1  0.77146983  0.13318237  0.25354155  1  -1.094351  0.093702  -0.30361  -0.500978  0.058765  2.342253  0.085
O  O238  1  0.77146138  0.86682229  0.24645861  1  -1.094476  0.093688  -0.303595  -0.500913  0.058757  2.342428  0.085
O  O239  1  0.72853459  0.63317894  0.74645782  1  -1.094369  0.093693  -0.303605  -0.500921  0.05876  2.342485  0.085
O  O240  1  0.56032265  0.97395474  0.34129879  1  -1.102801  0.102428  -0.316589  -0.519291  0.064319  2.344448  0.093
O  O241  1  0.93967561  0.52604568  0.84129709  1  -1.102721  0.10243  -0.316516  -0.519247  0.06432  2.344535  0.093
O  O242  1  0.93967334  0.47395479  0.65870492  1  -1.102687  0.102431  -0.316513  -0.519247  0.064321  2.344555  0.093
O  O243  1  0.56032813  0.02604339  0.15870677  1  -1.102675  0.102431  -0.316543  -0.519264  0.06432  2.344594  0.093
O  O244  1  0.43967350  0.02604546  0.65870593  1  -1.102635  0.102431  -0.316474  -0.519201  0.064321  2.344552  0.093
O  O245  1  0.06032577  0.47395378  0.15870466  1  -1.102664  0.102425  -0.316522  -0.51929  0.064318  2.344615  0.093
O  O246  1  0.06032654  0.52604541  0.34129486  1  -1.102665  0.102427  -0.316508  -0.519244  0.064318  2.344509  0.093
O  O247  1  0.43967473  0.97395384  0.84129548  1  -1.102667  0.102426  -0.316519  -0.519286  0.064319  2.344612  0.093
O  O248  1  0.56181155  0.86958751  0.25253515  1  -1.104284  0.087804  -0.301479  -0.502882  0.054885  2.37244  0.08
O  O249  1  0.93818891  0.63041594  0.75253441  1  -1.104336  0.087805  -0.301432  -0.50285  0.054886  2.372496  0.08
O  O250  1  0.93819272  0.36958157  0.74746562  1  -1.104369  0.087796  -0.301452  -0.502821  0.05488  2.372671  0.08
O  O251  1  0.56180582  0.13042173  0.24746595  1  -1.104373  0.087802  -0.301445  -0.502834  0.054884  2.372657  0.08
O  O252  1  0.43819132  0.13041862  0.74746759  1  -1.10442  0.087804  -0.301455  -0.502798  0.054885  2.372566  0.08
O  O253  1  0.06180948  0.36958203  0.24746685  1  -1.104371  0.087808  -0.301464  -0.502855  0.054887  2.372496  0.08
O  O254  1  0.06180940  0.63041715  0.25253316  1  -1.104372  0.087806  -0.301486  -0.502879  0.054886  2.372538  0.08
O  O255  1  0.43819034  0.86958291  0.75253333  1  -1.104367  0.087808  -0.30144  -0.502837  0.054887  2.372502  0.08
