# generated using pymatgen
data_Zn2H11C41SN2(OF)10
_symmetry_space_group_name_H-M   'P 1'
_cell_length_a   16.53928416
_cell_length_b   17.87908217
_cell_length_c   30.62909849
_cell_angle_alpha   90.25700646
_cell_angle_beta   90.11838129
_cell_angle_gamma   89.96368977
_symmetry_Int_Tables_number   1
_chemical_formula_structural   Zn2H11C41SN2(OF)10
_chemical_formula_sum   'Zn4 H22 C82 S2 N4 O20 F20'
_cell_volume   9057.13336187
_cell_formula_units_Z   2
loop_
 _symmetry_equiv_pos_site_id
 _symmetry_equiv_pos_as_xyz
  1  'x, y, z'
loop_
 _atom_site_type_symbol
 _atom_site_label
 _atom_site_symmetry_multiplicity
 _atom_site_fract_x
 _atom_site_fract_y
 _atom_site_fract_z
 _atom_site_occupancy
 _atom_site_pbe_bader_charge
 _atom_site_pbe_bader_spin_density
 _atom_site_pbe_cm5_charge
 _atom_site_pbe_ddec_charge
 _atom_site_pbe_ddec_spin_density
 _atom_site_pbe_ddec_sum_bond_order
 _atom_site_pbe_magmom
Zn  Zn0  1  0.58607158  0.50105924  0.50199331  1  1.294529  0  0.668652  0.8185  0  2.418388  0
Zn  Zn1  1  0.41719138  0.50051541  0.50208109  1  1.301804  0  0.67502  0.822253  0  2.426796  0
Zn  Zn2  1  0.41401980  0.50350589  0.91788954  1  1.294855  0  0.669106  0.818893  0  2.417766  0
Zn  Zn3  1  0.58291939  0.50298194  0.91762211  1  1.299029  0  0.674849  0.822154  0  2.428108  0
H  H4  1  0.28857641  0.56729170  0.55938999  1  0.163471  0  0.138568  0.14129  0  0.965479  0
H  H5  1  0.28849192  0.42668818  0.45030570  1  0.156642  0  0.140599  0.143781  0  0.958875  0
H  H6  1  0.71524574  0.58556781  0.54941262  1  0.149236  0  0.13997  0.141444  0  0.95739  0
H  H7  1  0.71507307  0.41839730  0.45401305  1  0.144377  0  0.142034  0.14509  0  0.95319  0
H  H8  1  0.63185894  0.74146184  0.50387395  1  0.123986  0  0.114927  0.147081  0  0.985199  0
H  H9  1  0.37121385  0.73582152  0.49426548  1  0.12273  0  0.115764  0.149104  0  0.98302  0
H  H10  1  0.63527689  0.25926474  0.49702564  1  0.096425  0  0.115432  0.147336  0  0.984428  0
H  H11  1  0.37491456  0.26684456  0.50788811  1  0.128143  0  0.117605  0.151435  0  0.980357  0
H  H12  1  0.37345058  0.50970160  0.05596774  1  0.141572  0  0.115077  0.147542  0  0.985782  0
H  H13  1  0.63418200  0.49412389  0.05767894  1  0.119697  0  0.115222  0.146573  0  0.984975  0
H  H14  1  0.36607937  0.49117103  0.36205832  1  0.106849  0  0.114831  0.146588  0  0.986035  0
H  H15  1  0.62678877  0.50678706  0.36377179  1  0.119539  0  0.115213  0.147779  0  0.986142  0
H  H16  1  0.71150417  0.56962102  0.86064028  1  0.15989  0  0.138734  0.141159  0  0.964241  0
H  H17  1  0.71159757  0.42908865  0.96902439  1  0.146965  0  0.14076  0.143801  0  0.95942  0
H  H18  1  0.28475111  0.58767047  0.87093558  1  0.149012  0  0.139914  0.141486  0  0.957375  0
H  H19  1  0.28503235  0.42054466  0.96548696  1  0.14138  0  0.142031  0.1445  0  0.953367  0
H  H20  1  0.36801287  0.74372847  0.91476235  1  0.082025  0  0.114817  0.147261  0  0.984646  0
H  H21  1  0.62869871  0.73857948  0.92413944  1  0.130985  0  0.115844  0.149786  0  0.983638  0
H  H22  1  0.36491762  0.26207278  0.92220225  1  0.112597  0  0.11527  0.147329  0  0.985317  0
H  H23  1  0.62523086  0.26899765  0.91092139  1  0.148338  0  0.117667  0.15156  0  0.980527  0
H  H24  1  0.33784766  0.58966929  0.67724732  1  0.605638  0  0.334508  0.369572  0  0.877773  0
H  H25  1  0.66182490  0.58979687  0.74267036  1  0.608246  0  0.334754  0.370311  0  0.876796  0
C  C26  1  0.50315911  0.64610017  0.50076122  1  1.597311  0  0.215998  0.593168  0  4.15892  0
C  C27  1  0.50049797  0.50117322  0.58709221  1  1.60511  0  0.207958  0.599269  0  4.226443  0
C  C28  1  0.50771106  0.35553618  0.50299128  1  1.549421  0  0.21714  0.593237  0  4.158486  0
C  C29  1  0.49588684  0.49765548  0.41694463  1  1.597929  0  0.217421  0.594364  0  4.15829  0
C  C30  1  0.49681234  0.64857980  0.91849779  1  1.565137  0  0.216925  0.59415  0  4.159189  0
C  C31  1  0.49927459  0.50216752  0.83267689  1  1.645618  0  0.208479  0.599769  0  4.225145  0
C  C32  1  0.49262632  0.35798710  0.91667822  1  1.581428  0  0.21675  0.592414  0  4.159216  0
C  C33  1  0.50444692  0.50127563  0.00280626  1  1.533323  0  0.216836  0.595556  0  4.157306  0
C  C34  1  0.25317077  0.53666681  0.53522663  1  0.661437  0  0.054165  -0.033164  0  3.907753  0
C  C35  1  0.16932215  0.53726479  0.53584208  1  0.431877  0  0.129985  0.239969  0  4.019072  0
C  C36  1  0.12360985  0.49655393  0.50499377  1  0.246505  0  0.008449  -0.050473  0  4.117011  0
C  C37  1  0.16920619  0.45562305  0.47424879  1  0.57304  0  0.126802  0.23641  0  4.031518  0
C  C38  1  0.25295996  0.45712439  0.47447839  1  0.503024  0  0.049349  -0.048499  0  3.923281  0
C  C39  1  0.03868142  0.49724559  0.50458729  1  -0.161527  0  -0.012196  -0.027498  0  4.079369  0
C  C40  1  0.96511087  0.49840756  0.50389436  1  -0.167479  0  -0.015715  -0.038135  0  4.083061  0
C  C41  1  0.88023653  0.49976694  0.50307689  1  0.226219  0  0.00823  -0.046145  0  4.120102  0
C  C42  1  0.83454974  0.54778344  0.53005810  1  0.432944  0  0.126148  0.233851  0  4.031444  0
C  C43  1  0.75073699  0.54824895  0.52875053  1  0.638077  0  0.049429  -0.04659  0  3.925946  0
C  C44  1  0.75064405  0.45499271  0.47512384  1  0.655945  0  0.049996  -0.047604  0  3.922842  0
C  C45  1  0.83447530  0.45315098  0.47522417  1  0.452945  0  0.127556  0.236068  0  4.029534  0
C  C46  1  0.50164639  0.72989406  0.49950725  1  -0.059228  0  -0.01022  0.028034  0  3.981639  0
C  C47  1  0.57410690  0.77032627  0.50161123  1  0.113174  0  -0.10056  -0.247284  0  3.997653  0
C  C48  1  0.57094622  0.84754370  0.50058263  1  0.444963  0  0.110679  0.27405  0  4.038255  0
C  C49  1  0.49782933  0.88821808  0.49798997  1  0.101465  0  -0.013381  -0.078809  0  4.131715  0
C  C50  1  0.42676628  0.84459387  0.49580665  1  0.432681  0  0.110247  0.271825  0  4.042085  0
C  C51  1  0.42737155  0.76730351  0.49630402  1  0.056567  0  -0.099765  -0.244615  0  3.991689  0
C  C52  1  0.49657658  0.96681848  0.49804674  1  -0.131212  0  -0.035012  -0.05671  0  4.130109  0
C  C53  1  0.49745274  0.03500181  0.49875958  1  -0.077356  0  -0.033221  -0.053162  0  4.130036  0
C  C54  1  0.49979574  0.11355562  0.49987449  1  0.212764  0  -0.012379  -0.078423  0  4.132673  0
C  C55  1  0.57331628  0.15359084  0.49788880  1  0.460022  0  0.110746  0.272882  0  4.039325  0
C  C56  1  0.57727570  0.23079390  0.49882682  1  0.03206  0  -0.100574  -0.246886  0  3.993775  0
C  C57  1  0.50528340  0.27174950  0.50228266  1  0.015271  0  -0.007159  0.031557  0  3.976709  0
C  C58  1  0.43065242  0.23495169  0.50476342  1  0.137491  0  -0.097622  -0.243296  0  3.986536  0
C  C59  1  0.42924118  0.15770943  0.50329264  1  0.386621  0  0.111167  0.274066  0  4.040623  0
C  C60  1  0.43246252  0.49427329  0.66280764  1  0.006481  0  -0.023703  -0.113894  0  4.023774  0
C  C61  1  0.56714987  0.49463926  0.75692623  1  0.04781  0  -0.023978  -0.114007  0  4.025721  0
C  C62  1  0.49897480  0.49499972  0.63528062  1  -0.138634  0  -0.011637  -0.1093  0  3.91853  0
C  C63  1  0.50066549  0.49556115  0.78447310  1  -0.131976  0  -0.011856  -0.109017  0  3.917512  0
C  C64  1  0.54214360  0.49400030  0.71249081  1  -0.244466  0  -0.02691  -0.051488  0  4.09068  0
C  C65  1  0.45744531  0.49397148  0.70724982  1  -0.12352  0  -0.026506  -0.052784  0  4.089399  0
C  C66  1  0.50384289  0.50153897  0.05173114  1  0.024889  0  -0.008895  0.028888  0  3.981418  0
C  C67  1  0.43002840  0.50589573  0.07397781  1  0.040488  0  -0.099846  -0.245613  0  3.995855  0
C  C68  1  0.43041144  0.50527779  0.11907690  1  0.460179  0  0.110648  0.27425  0  4.039744  0
C  C69  1  0.50204812  0.50118614  0.14412441  1  0.187531  0  -0.01263  -0.07857  0  4.132459  0
C  C70  1  0.57467142  0.49750118  0.12002932  1  0.399802  0  0.110711  0.273458  0  4.037491  0
C  C71  1  0.57682592  0.49729142  0.07491491  1  0.108017  0  -0.099072  -0.244478  0  3.991308  0
C  C72  1  0.50084026  0.50080045  0.18998099  1  -0.084402  0  -0.034057  -0.054554  0  4.130218  0
C  C73  1  0.49909817  0.50047027  0.22976377  1  -0.127792  0  -0.033378  -0.054345  0  4.13009  0
C  C74  1  0.49800709  0.49995873  0.27561969  1  0.172961  0  -0.012871  -0.078932  0  4.132537  0
C  C75  1  0.42544696  0.49579591  0.29972462  1  0.463214  0  0.110935  0.273995  0  4.037927  0
C  C76  1  0.42339622  0.49461241  0.34482929  1  0.07312  0  -0.098206  -0.244908  0  3.993954  0
C  C77  1  0.49642540  0.49841792  0.36801158  1  -0.036879  0  -0.009379  0.02934  0  3.979493  0
C  C78  1  0.57017581  0.50322055  0.34576689  1  0.102596  0  -0.099767  -0.245911  0  3.996143  0
C  C79  1  0.56969264  0.50353255  0.30066996  1  0.346576  0  0.110765  0.274191  0  4.039845  0
C  C80  1  0.74690409  0.53897928  0.88465601  1  0.655454  0  0.053553  -0.033744  0  3.907715  0
C  C81  1  0.83075377  0.53950385  0.88405679  1  0.458458  0  0.13078  0.240342  0  4.019738  0
C  C82  1  0.87646631  0.49877289  0.91470375  1  0.231367  0  0.008121  -0.049934  0  4.117166  0
C  C83  1  0.83089584  0.45789001  0.94523763  1  0.427637  0  0.126788  0.236442  0  4.031408  0
C  C84  1  0.74713078  0.45948225  0.94501194  1  0.66693  0  0.049006  -0.049353  0  3.922708  0
C  C85  1  0.96139139  0.49940123  0.91511586  1  -0.158869  0  -0.012139  -0.027858  0  4.07969  0
C  C86  1  0.03495869  0.50049108  0.91585726  1  -0.169276  0  -0.015925  -0.038007  0  4.083527  0
C  C87  1  0.11983489  0.50183098  0.91672402  1  0.226861  0  0.007854  -0.046718  0  4.120416  0
C  C88  1  0.16548997  0.54985341  0.89001212  1  0.450037  0  0.127004  0.234791  0  4.031381  0
C  C89  1  0.24928958  0.55034770  0.89138318  1  0.639894  0  0.048928  -0.046761  0  3.925852  0
C  C90  1  0.24944643  0.45713048  0.94454581  1  0.643173  0  0.050425  -0.045718  0  3.920889  0
C  C91  1  0.16561511  0.45521749  0.94435207  1  0.451201  0  0.127054  0.234705  0  4.02977  0
C  C92  1  0.49823832  0.73239943  0.91910861  1  -0.004092  0  -0.009974  0.029592  0  3.980847  0
C  C93  1  0.42570679  0.77273272  0.91677526  1  0.048529  0  -0.101069  -0.248935  0  3.997882  0
C  C94  1  0.42871032  0.84997815  0.91727563  1  0.468477  0  0.110413  0.273518  0  4.038265  0
C  C95  1  0.50176701  0.89074322  0.91959263  1  0.219784  0  -0.013344  -0.078617  0  4.132932  0
C  C96  1  0.57292603  0.84723297  0.92194936  1  0.457691  0  0.110514  0.274101  0  4.040137  0
C  C97  1  0.57246215  0.76993630  0.92195052  1  0.06874  0  -0.10011  -0.24756  0  3.993677  0
C  C98  1  0.50293087  0.96931342  0.91932922  1  -0.297834  0  -0.034951  -0.056655  0  4.130152  0
C  C99  1  0.50228416  0.03748631  0.91873552  1  -0.041841  0  -0.032908  -0.053197  0  4.128652  0
C  C100  1  0.50010030  0.11603503  0.91803281  1  0.232882  0  -0.012607  -0.078071  0  4.130714  0
C  C101  1  0.42666409  0.15624194  0.92043522  1  0.427492  0  0.110581  0.272892  0  4.039242  0
C  C102  1  0.42285321  0.23345225  0.92009782  1  -0.000334  0  -0.099526  -0.24639  0  3.995717  0
C  C103  1  0.49491269  0.27421421  0.91681986  1  0.049844  0  -0.007775  0.031073  0  3.97833  0
C  C104  1  0.56945702  0.23723392  0.91391002  1  0.03112  0  -0.097686  -0.243198  0  3.986611  0
C  C105  1  0.57073919  0.15998339  0.91479565  1  0.464094  0  0.110687  0.273319  0  4.038862  0
C  C106  1  0.34577680  0.49352898  0.64843310  1  1.570335  0  0.233048  0.600712  0  4.112946  0
C  C107  1  0.65384080  0.49393214  0.77128306  1  1.55423  0  0.233039  0.599584  0  4.114358  0
S  S108  1  0.59080245  0.49313098  0.66273909  1  0.295229  0  0.091526  0.139346  0  2.776276  0
S  S109  1  0.40881593  0.49347104  0.75701701  1  0.263472  0  0.091525  0.139177  0  2.773853  0
N  N110  1  0.29306723  0.49748364  0.50461571  1  -1.199692  0  -0.304797  -0.130432  0  3.554101  0
N  N111  1  0.71062611  0.50212500  0.50162744  1  -1.198201  0  -0.306118  -0.129561  0  3.559657  0
N  N112  1  0.70701831  0.49986064  0.91507027  1  -1.203732  0  -0.304282  -0.129152  0  3.552343  0
N  N113  1  0.28943513  0.50429708  0.91831530  1  -1.190102  0  -0.306118  -0.130331  0  3.558647  0
O  O114  1  0.57082977  0.61475975  0.50883215  1  -1.165702  0  -0.31958  -0.54937  0  2.31366  0
O  O115  1  0.43636115  0.61274397  0.49370405  1  -1.161008  0  -0.316463  -0.541547  0  2.320976  0
O  O116  1  0.43437867  0.51819978  0.56847595  1  -1.158964  0  -0.308734  -0.531718  0  2.326799  0
O  O117  1  0.56871658  0.48969717  0.56893702  1  -1.156332  0  -0.318148  -0.543157  0  2.305016  0
O  O118  1  0.44123449  0.38921345  0.51048040  1  -1.168522  0  -0.314403  -0.541091  0  2.323146  0
O  O119  1  0.57572430  0.38669918  0.49600810  1  -1.163047  0  -0.317588  -0.544913  0  2.31371  0
O  O120  1  0.56316216  0.50953020  0.43611068  1  -1.165348  0  -0.317711  -0.547597  0  2.319295  0
O  O121  1  0.42835422  0.48542665  0.43557094  1  -1.170189  0  -0.317876  -0.548169  0  2.313082  0
O  O122  1  0.42912561  0.61701992  0.91071683  1  -1.164702  0  -0.31942  -0.549199  0  2.314572  0
O  O123  1  0.56364300  0.61543480  0.92574831  1  -1.168241  0  -0.317191  -0.542455  0  2.320315  0
O  O124  1  0.56546373  0.51940646  0.85123887  1  -1.158053  0  -0.308121  -0.531995  0  2.327496  0
O  O125  1  0.43118163  0.49084411  0.85090100  1  -1.165313  0  -0.319436  -0.543907  0  2.303653  0
O  O126  1  0.55912532  0.39151140  0.90930345  1  -1.16447  0  -0.314094  -0.540538  0  2.324743  0
O  O127  1  0.42469228  0.38928772  0.92395442  1  -1.163435  0  -0.317398  -0.544635  0  2.313527  0
O  O128  1  0.43720409  0.51330002  0.98370479  1  -1.167918  0  -0.317497  -0.547832  0  2.31842  0
O  O129  1  0.57201153  0.48906613  0.98412049  1  -1.169725  0  -0.317635  -0.548765  0  2.312798  0
O  O130  1  0.30204706  0.55452903  0.66213127  1  -1.094654  0  -0.340854  -0.482766  0  2.17872  0
O  O131  1  0.31309432  0.44389558  0.62803285  1  -1.093309  0  -0.269868  -0.428947  0  2.045997  0
O  O132  1  0.69758551  0.55474100  0.75772814  1  -1.095099  0  -0.340998  -0.48325  0  2.179328  0
O  O133  1  0.68650521  0.44439447  0.79154775  1  -1.101267  0  -0.269868  -0.428252  0  2.044665  0
F  F134  1  0.13007010  0.41490356  0.44378500  1  -0.614164  0  -0.078234  -0.111192  0  1.333303  0
F  F135  1  0.13033147  0.57784009  0.56626743  1  -0.617679  0  -0.074304  -0.106298  0  1.337457  0
F  F136  1  0.87343919  0.40569695  0.44831335  1  -0.611802  0  -0.076478  -0.108847  0  1.33494  0
F  F137  1  0.87356008  0.59419215  0.55764983  1  -0.615727  0  -0.077626  -0.109713  0  1.333902  0
F  F138  1  0.35497226  0.88102418  0.49319141  1  -0.620221  0  -0.100075  -0.137589  0  1.316383  0
F  F139  1  0.64088444  0.88698128  0.50240216  1  -0.624178  0  -0.099839  -0.137799  0  1.31884  0
F  F140  1  0.35717854  0.12178693  0.50530890  1  -0.622525  0  -0.099587  -0.137778  0  1.316535  0
F  F141  1  0.64278692  0.11359113  0.49480968  1  -0.62456  0  -0.099777  -0.13745  0  1.31838  0
F  F142  1  0.64508651  0.49379986  0.14268147  1  -0.62481  0  -0.099459  -0.137461  0  1.316984  0
F  F143  1  0.35915483  0.50883077  0.14080977  1  -0.622197  0  -0.099279  -0.13761  0  1.317847  0
F  F144  1  0.64090754  0.50761427  0.27896361  1  -0.624183  0  -0.099633  -0.137564  0  1.316934  0
F  F145  1  0.35497398  0.49270543  0.27708596  1  -0.623364  0  -0.099618  -0.137311  0  1.316779  0
F  F146  1  0.87004061  0.41713077  0.97548725  1  -0.619521  0  -0.077701  -0.110788  0  1.334019  0
F  F147  1  0.86976507  0.58000737  0.85384328  1  -0.617797  0  -0.074728  -0.106629  0  1.337615  0
F  F148  1  0.12665357  0.40768579  0.97094628  1  -0.617937  0  -0.076429  -0.108581  0  1.334526  0
F  F149  1  0.12646210  0.59622445  0.86262498  1  -0.621159  0  -0.077424  -0.109609  0  1.334624  0
F  F150  1  0.64463400  0.88381599  0.92431103  1  -0.620761  0  -0.100145  -0.138155  0  1.31558  0
F  F151  1  0.35870922  0.88933894  0.91524167  1  -0.623077  0  -0.099722  -0.137336  0  1.318188  0
F  F152  1  0.64270267  0.12383373  0.91240523  1  -0.621754  0  -0.099148  -0.137375  0  1.316787  0
F  F153  1  0.35714972  0.11640788  0.92334482  1  -0.623766  0  -0.099618  -0.137491  0  1.317803  0
