# generated using pymatgen
data_CdH9C8NO7
_symmetry_space_group_name_H-M   'P 1'
_cell_length_a   9.50189816
_cell_length_b   10.06334483
_cell_length_c   11.27800573
_cell_angle_alpha   90.00003606
_cell_angle_beta   111.01999544
_cell_angle_gamma   90.00043913
_symmetry_Int_Tables_number   1
_chemical_formula_structural   CdH9C8NO7
_chemical_formula_sum   'Cd4 H36 C32 N4 O28'
_cell_volume   1006.65015395
_cell_formula_units_Z   4
loop_
 _symmetry_equiv_pos_site_id
 _symmetry_equiv_pos_as_xyz
  1  'x, y, z'
loop_
 _atom_site_type_symbol
 _atom_site_label
 _atom_site_symmetry_multiplicity
 _atom_site_fract_x
 _atom_site_fract_y
 _atom_site_fract_z
 _atom_site_occupancy
 _atom_site_hle17_bader_spin_density
 _atom_site_hle17_ddec_charge
 _atom_site_hle17_ddec_spin_density
 _atom_site_hle17_ddec_sum_bond_order
 _atom_site_hle17_magmom
 _atom_site_hse06_10hf_bader_spin_density
 _atom_site_hse06_10hf_ddec_charge
 _atom_site_hse06_10hf_ddec_spin_density
 _atom_site_hse06_10hf_ddec_sum_bond_order
 _atom_site_hse06_10hf_magmom
 _atom_site_hse06_bader_spin_density
 _atom_site_hse06_ddec_charge
 _atom_site_hse06_ddec_spin_density
 _atom_site_hse06_ddec_sum_bond_order
 _atom_site_hse06_magmom
 _atom_site_pbe_bader_spin_density
 _atom_site_pbe_cm5_charge
 _atom_site_pbe_ddec_charge
 _atom_site_pbe_ddec_spin_density
 _atom_site_pbe_ddec_sum_bond_order
 _atom_site_pbe_magmom
Cd  Cd0  1  0.38613876  0.62261447  0.04639343  1  0  1.291792  0  1.56234  0  0  1.123127  0  2.00226  0  0  1.179472  0  1.942406  0  0  0.77441  1.082775  0  2.043787  0
Cd  Cd1  1  0.61385825  0.12261270  0.45360390  1  0  1.291748  0  1.562387  0  0  1.123071  0  2.002336  0  0  1.179419  0  1.94248  0  0  0.774378  1.082717  0  2.043863  0
Cd  Cd2  1  0.61385941  0.37738602  0.95360594  1  0  1.291765  0  1.562377  0  0  1.123074  0  2.0023  0  0  1.179418  0  1.942443  0  0  0.774386  1.082721  0  2.043827  0
Cd  Cd3  1  0.38614104  0.87738581  0.54639846  1  0  1.291765  0  1.562415  0  0  1.123092  0  2.002369  0  0  1.179442  0  1.942511  0  0  0.774391  1.082738  0  2.043896  0
H  H4  1  0.26671080  0.72059346  0.23675385  1  0  0.430268  0  0.870563  0  0  0.399142  0  0.934452  0  0  0.410215  0  0.918405  0  0  0.289063  0.391149  0  0.945967  0
H  H5  1  0.73329165  0.22059440  0.26324784  1  0  0.430275  0  0.870547  0  0  0.399151  0  0.934435  0  0  0.410224  0  0.918388  0  0  0.28907  0.391159  0  0.945949  0
H  H6  1  0.73328962  0.27940802  0.76324797  1  0  0.430302  0  0.870511  0  0  0.399179  0  0.934395  0  0  0.410252  0  0.918347  0  0  0.289098  0.391187  0  0.945909  0
H  H7  1  0.26670989  0.77940609  0.73675432  1  0  0.430259  0  0.870576  0  0  0.399134  0  0.934464  0  0  0.410207  0  0.918417  0  0  0.289048  0.391142  0  0.945979  0
H  H8  1  0.44382250  0.71484455  0.30909125  1  0  0.430755  0  0.859972  0  0  0.398842  0  0.928134  0  0  0.408924  0  0.913363  0  0  0.295429  0.391579  0  0.938844  0
H  H9  1  0.55618102  0.21484614  0.19090810  1  0  0.430834  0  0.859977  0  0  0.39892  0  0.928054  0  0  0.409  0  0.913287  0  0  0.29547  0.391658  0  0.938764  0
H  H10  1  0.55617904  0.28515594  0.69091268  1  0  0.430809  0  0.859933  0  0  0.398893  0  0.928075  0  0  0.408974  0  0.913305  0  0  0.29546  0.39163  0  0.938786  0
H  H11  1  0.44382052  0.78515335  0.80909406  1  0  0.430818  0  0.859978  0  0  0.398903  0  0.928073  0  0  0.408984  0  0.913304  0  0  0.295457  0.39164  0  0.938783  0
H  H12  1  0.32196790  0.35967980  0.05557300  1  0  0.407199  0  0.9025  0  0  0.374311  0  0.973147  0  0  0.384437  0  0.958626  0  0  0.284136  0.367174  0  0.9834  0
H  H13  1  0.67803365  0.85968098  0.44442850  1  0  0.407213  0  0.902499  0  0  0.374313  0  0.973157  0  0  0.384441  0  0.958631  0  0  0.284138  0.367176  0  0.98341  0
H  H14  1  0.67803027  0.64031970  0.94442637  1  0  0.407197  0  0.902505  0  0  0.374305  0  0.973157  0  0  0.384434  0  0.95863  0  0  0.284133  0.367168  0  0.983411  0
H  H15  1  0.32196790  0.14031852  0.55557278  1  0  0.407219  0  0.902466  0  0  0.374324  0  0.973132  0  0  0.384452  0  0.958608  0  0  0.284138  0.367188  0  0.983384  0
H  H16  1  0.30372785  0.41749952  0.17601662  1  0  0.423325  0  0.87611  0  0  0.394022  0  0.937325  0  0  0.405053  0  0.921442  0  0  0.286588  0.386228  0  0.948489  0
H  H17  1  0.69627425  0.91749975  0.32398419  1  0  0.423202  0  0.876284  0  0  0.393952  0  0.937404  0  0  0.404983  0  0.921514  0  0  0.286554  0.386158  0  0.94857  0
H  H18  1  0.69627257  0.58249998  0.82398431  1  0  0.42337  0  0.87604  0  0  0.394009  0  0.937363  0  0  0.405041  0  0.921482  0  0  0.286572  0.38621  0  0.94853  0
H  H19  1  0.30372617  0.08249975  0.67601586  1  0  0.423215  0  0.876265  0  0  0.393962  0  0.937392  0  0  0.404994  0  0.921501  0  0  0.286561  0.386168  0  0.948557  0
H  H20  1  0.98886653  0.68911956  0.54999850  1  0  0.128183  0  0.966899  0  0  0.130064  0  1.040235  0  0  0.134774  0  1.035317  0  0  0.12797  0.126737  0  1.043878  0
H  H21  1  0.01113550  0.18912040  0.95000361  1  0  0.12821  0  0.96688  0  0  0.130101  0  1.040195  0  0  0.134811  0  1.035277  0  0  0.127994  0.126775  0  1.043834  0
H  H22  1  0.01113051  0.31087994  0.44999964  1  0  0.128279  0  0.966951  0  0  0.130133  0  1.040303  0  0  0.134845  0  1.035379  0  0  0.127976  0.126806  0  1.043943  0
H  H23  1  0.98886718  0.81087910  0.04999800  1  0  0.128211  0  0.966877  0  0  0.130071  0  1.040226  0  0  0.134781  0  1.035306  0  0  0.127975  0.126745  0  1.043867  0
H  H24  1  0.87405837  0.60718998  0.14914526  1  0  0.134026  0  0.929046  0  0  0.145238  0  0.988076  0  0  0.149269  0  0.984585  0  0  0.116256  0.142287  0  0.990713  0
H  H25  1  0.12594412  0.10718860  0.35085638  1  0  0.134024  0  0.929135  0  0  0.145236  0  0.988148  0  0  0.149266  0  0.984657  0  0  0.116283  0.142285  0  0.990786  0
H  H26  1  0.12593867  0.39281150  0.85085288  1  0  0.134039  0  0.929094  0  0  0.145258  0  0.988096  0  0  0.149288  0  0.984606  0  0  0.116258  0.142307  0  0.990733  0
H  H27  1  0.87405630  0.89280991  0.64914455  1  0  0.134002  0  0.929103  0  0  0.145226  0  0.988114  0  0  0.149257  0  0.984622  0  0  0.116283  0.142275  0  0.990753  0
H  H28  1  0.59549257  0.47553998  0.35746061  1  0  0.129512  0  0.954512  0  0  0.135156  0  1.018536  0  0  0.139098  0  1.015372  0  0  0.128474  0.132504  0  1.021153  0
H  H29  1  0.40450445  0.97553799  0.14253780  1  0  0.129526  0  0.954503  0  0  0.135174  0  1.018511  0  0  0.139116  0  1.015347  0  0  0.128485  0.132524  0  1.021123  0
H  H30  1  0.40450447  0.52446150  0.64253664  1  0  0.129489  0  0.954551  0  0  0.13517  0  1.018523  0  0  0.139112  0  1.015359  0  0  0.128475  0.132517  0  1.02114  0
H  H31  1  0.59549823  0.02446250  0.85746470  1  0  0.129473  0  0.954573  0  0  0.135185  0  1.018501  0  0  0.139128  0  1.015338  0  0  0.128485  0.132534  0  1.021116  0
H  H32  1  0.86018822  0.59736237  0.65526418  1  0  0.131343  0  0.919439  0  0  0.143325  0  0.97826  0  0  0.145499  0  0.9778  0  0  0.128428  0.141988  0  0.978689  0
H  H33  1  0.13980728  0.09735809  0.84473413  1  0  0.131313  0  0.919435  0  0  0.143343  0  0.978241  0  0  0.145518  0  0.977781  0  0  0.128454  0.142005  0  0.97867  0
H  H34  1  0.13981107  0.40263713  0.34473375  1  0  0.131335  0  0.91944  0  0  0.143342  0  0.978224  0  0  0.145517  0  0.977763  0  0  0.12845  0.142004  0  0.978653  0
H  H35  1  0.86019201  0.90263942  0.15526646  1  0  0.13132  0  0.919473  0  0  0.143339  0  0.978271  0  0  0.145515  0  0.97781  0  0  0.128455  0.142001  0  0.9787  0
H  H36  1  0.72551296  0.47026793  0.58570530  1  0  0.130671  0  0.933867  0  0  0.140098  0  0.997452  0  0  0.143109  0  0.995349  0  0  0.125293  0.138247  0  0.99889  0
H  H37  1  0.27448050  0.97026320  0.91429349  1  0  0.130607  0  0.933897  0  0  0.140049  0  0.997495  0  0  0.143063  0  0.995389  0  0  0.125252  0.138198  0  0.998933  0
H  H38  1  0.27448521  0.52973256  0.41429317  1  0  0.130648  0  0.933875  0  0  0.14007  0  0.997451  0  0  0.143085  0  0.99534  0  0  0.12529  0.138218  0  0.99889  0
H  H39  1  0.72552105  0.02973629  0.08570867  1  0  0.130648  0  0.933888  0  0  0.140073  0  0.99749  0  0  0.143091  0  0.995375  0  0  0.125267  0.138219  0  0.998931  0
C  C40  1  0.91633595  0.64739358  0.45966248  1  0  0.037288  0  3.571488  0  0  -0.023426  0  3.840606  0  0  -0.014598  0  3.852503  0  0  0.045013  -0.030222  0  3.832284  0
C  C41  1  0.08366467  0.14739167  0.04033950  1  0  0.037194  0  3.571579  0  0  -0.0235  0  3.84067  0  0  -0.01467  0  3.852564  0  0  0.045005  -0.030297  0  3.832354  0
C  C42  1  0.08366109  0.35260691  0.54033565  1  0  0.037153  0  3.571659  0  0  -0.023515  0  3.84074  0  0  -0.014684  0  3.852637  0  0  0.045025  -0.030305  0  3.832418  0
C  C43  1  0.91633913  0.85260882  0.95966246  1  0  0.03722  0  3.571521  0  0  -0.023455  0  3.840632  0  0  -0.014624  0  3.852528  0  0  0.045017  -0.030239  0  3.832296  0
C  C44  1  0.94686496  0.65663809  0.34792886  1  0  -0.07746  0  3.769757  0  0  -0.054326  0  4.016959  0  0  -0.063779  0  4.039025  0  0  -0.012929  -0.04803  0  4.002052  0
C  C45  1  0.05314026  0.15664001  0.15207452  1  0  -0.077455  0  3.769798  0  0  -0.054359  0  4.017014  0  0  -0.063812  0  4.039076  0  0  -0.012985  -0.048064  0  4.002109  0
C  C46  1  0.05313208  0.34336141  0.65206927  1  0  -0.077426  0  3.769638  0  0  -0.054314  0  4.016833  0  0  -0.063771  0  4.038896  0  0  -0.012928  -0.04802  0  4.001925  0
C  C47  1  0.94686242  0.84336048  0.84792710  1  0  -0.077522  0  3.769879  0  0  -0.054414  0  4.017071  0  0  -0.063867  0  4.039133  0  0  -0.012974  -0.048118  0  4.002165  0
C  C48  1  0.84845673  0.60096833  0.23590201  1  0  -0.132984  0  3.607294  0  0  -0.173704  0  3.863363  0  0  -0.171863  0  3.877702  0  0  -0.0737  -0.174607  0  3.854043  0
C  C49  1  0.15154457  0.10096707  0.26410015  1  0  -0.132935  0  3.607386  0  0  -0.173634  0  3.863426  0  0  -0.171795  0  3.87777  0  0  -0.073695  -0.174536  0  3.854107  0
C  C50  1  0.15153918  0.39903415  0.76409579  1  0  -0.132996  0  3.607254  0  0  -0.173713  0  3.863302  0  0  -0.171873  0  3.877651  0  0  -0.073709  -0.174616  0  3.853982  0
C  C51  1  0.84845472  0.89903243  0.73590132  1  0  -0.132821  0  3.607363  0  0  -0.173547  0  3.863401  0  0  -0.171708  0  3.877748  0  0  -0.073671  -0.174451  0  3.854083  0
C  C52  1  0.71377988  0.53840316  0.23359836  1  0  0.34398  0  3.919371  0  0  0.333995  0  4.182349  0  0  0.345235  0  4.198652  0  0  0.089436  0.325521  0  4.172734  0
C  C53  1  0.28621969  0.03840287  0.26640236  1  0  0.343915  0  3.919431  0  0  0.333929  0  4.182401  0  0  0.345168  0  4.198707  0  0  0.089432  0.325455  0  4.172788  0
C  C54  1  0.28621829  0.46159634  0.76640012  1  0  0.343831  0  3.919467  0  0  0.333905  0  4.182374  0  0  0.345137  0  4.198691  0  0  0.089406  0.325431  0  4.172756  0
C  C55  1  0.71378186  0.96159862  0.73359980  1  0  0.343757  0  3.919582  0  0  0.333804  0  4.182534  0  0  0.34504  0  4.198842  0  0  0.089372  0.325329  0  4.172921  0
C  C56  1  0.69274987  0.52760851  0.35073604  1  0  -0.024979  0  3.483668  0  0  -0.070374  0  3.736357  0  0  -0.065355  0  3.74709  0  0  0.047142  -0.076259  0  3.731896  0
C  C57  1  0.30724959  0.02760828  0.14926286  1  0  -0.024948  0  3.483627  0  0  -0.070329  0  3.736286  0  0  -0.065309  0  3.747019  0  0  0.047153  -0.076213  0  3.731825  0
C  C58  1  0.30724717  0.47239298  0.64926120  1  0  -0.02496  0  3.483702  0  0  -0.070378  0  3.736339  0  0  -0.065356  0  3.747074  0  0  0.047157  -0.076255  0  3.731873  0
C  C59  1  0.69275308  0.97239320  0.85073875  1  0  -0.024925  0  3.483585  0  0  -0.070347  0  3.736213  0  0  -0.065325  0  3.746944  0  0  0.047163  -0.076224  0  3.731748  0
C  C60  1  0.08869540  0.72784592  0.35222408  1  0  0.657277  0  3.930373  0  0  0.606787  0  4.223206  0  0  0.641162  0  4.216086  0  0  0.211861  0.58333  0  4.22775  0
C  C61  1  0.91131501  0.22784706  0.14778180  1  0  0.65719  0  3.930402  0  0  0.606715  0  4.223209  0  0  0.641091  0  4.21609  0  0  0.211907  0.583261  0  4.227752  0
C  C62  1  0.91130276  0.27215557  0.64777529  1  0  0.657335  0  3.930257  0  0  0.606883  0  4.223037  0  0  0.641261  0  4.215912  0  0  0.211918  0.583426  0  4.227582  0
C  C63  1  0.08869105  0.77215343  0.85221995  1  0  0.657187  0  3.930534  0  0  0.606749  0  4.223279  0  0  0.641128  0  4.216158  0  0  0.211878  0.583293  0  4.227823  0
C  C64  1  0.75738565  0.57301022  0.57466834  1  0  -0.191485  0  3.584323  0  0  -0.248723  0  3.831196  0  0  -0.250496  0  3.837604  0  0  -0.053774  -0.249143  0  3.82764  0
C  C65  1  0.24260962  0.07300774  0.92533078  1  0  -0.191226  0  3.584079  0  0  -0.248595  0  3.83101  0  0  -0.250381  0  3.837448  0  0  -0.053714  -0.249013  0  3.827454  0
C  C66  1  0.24261252  0.42698927  0.42533014  1  0  -0.191356  0  3.584281  0  0  -0.248575  0  3.831102  0  0  -0.250349  0  3.837519  0  0  -0.053726  -0.24899  0  3.827546  0
C  C67  1  0.75739080  0.92699176  0.07467015  1  0  -0.19131  0  3.584117  0  0  -0.24862  0  3.831029  0  0  -0.250401  0  3.83746  0  0  -0.053713  -0.249029  0  3.827467  0
C  C68  1  0.62969103  0.66366153  0.57836007  1  0  0.681565  0  3.883379  0  0  0.626209  0  4.193768  0  0  0.658022  0  4.18924  0  0  0.211368  0.605005  0  4.195799  0
C  C69  1  0.37030399  0.16366096  0.92163459  1  0  0.681368  0  3.883589  0  0  0.626151  0  4.193871  0  0  0.657949  0  4.189355  0  0  0.211296  0.604944  0  4.195898  0
C  C70  1  0.37030601  0.33633697  0.42163895  1  0  0.681483  0  3.883419  0  0  0.626109  0  4.19384  0  0  0.657917  0  4.189315  0  0  0.211283  0.604905  0  4.19587  0
C  C71  1  0.62969644  0.83633854  0.07836191  1  0  0.681373  0  3.883452  0  0  0.626076  0  4.193818  0  0  0.65788  0  4.189298  0  0  0.211268  0.60487  0  4.195845  0
N  N72  1  0.79121395  0.58217624  0.45768049  1  0  0.047158  0  3.624166  0  0  0.138146  0  3.836413  0  0  0.127402  0  3.86354  0  0  -0.215143  0.148179  0  3.817716  0
N  N73  1  0.20878491  0.08217623  0.04232003  1  0  0.047135  0  3.624144  0  0  0.138127  0  3.836425  0  0  0.127384  0  3.863557  0  0  -0.215159  0.148159  0  3.817728  0
N  N74  1  0.20878421  0.41782425  0.54231798  1  0  0.047157  0  3.624205  0  0  0.138107  0  3.836476  0  0  0.127362  0  3.863604  0  0  -0.21519  0.148129  0  3.817776  0
N  N75  1  0.79121776  0.91782426  0.95768247  1  0  0.047241  0  3.623893  0  0  0.138208  0  3.836187  0  0  0.127464  0  3.863315  0  0  -0.215153  0.14823  0  3.817491  0
O  O76  1  0.60818906  0.49408348  0.13051818  1  0  -0.699513  0  2.127788  0  0  -0.618617  0  2.393527  0  0  -0.64959  0  2.386086  0  0  -0.361631  -0.596212  0  2.398239  0
O  O77  1  0.39180927  0.99408156  0.36948064  1  0  -0.699483  0  2.127846  0  0  -0.618604  0  2.39359  0  0  -0.649578  0  2.386154  0  0  -0.361633  -0.596201  0  2.3983  0
O  O78  1  0.39180798  0.50591899  0.86947907  1  0  -0.699377  0  2.127755  0  0  -0.61856  0  2.393531  0  0  -0.64953  0  2.386097  0  0  -0.361631  -0.596155  0  2.398241  0
O  O79  1  0.60819115  0.00591794  0.63052118  1  0  -0.699361  0  2.127774  0  0  -0.618524  0  2.393544  0  0  -0.649496  0  2.386106  0  0  -0.361622  -0.596122  0  2.398255  0
O  O80  1  0.09956428  0.76416585  0.24875927  1  0  -0.624943  0  1.977816  0  0  -0.569988  0  2.198904  0  0  -0.594718  0  2.190168  0  0  -0.312455  -0.552142  0  2.20452  0
O  O81  1  0.90044311  0.26416401  0.25124305  1  0  -0.624905  0  1.977902  0  0  -0.569955  0  2.198969  0  0  -0.594684  0  2.190231  0  0  -0.312505  -0.55211  0  2.204585  0
O  O82  1  0.90043614  0.23583464  0.75124078  1  0  -0.624958  0  1.977725  0  0  -0.570045  0  2.19883  0  0  -0.594774  0  2.190091  0  0  -0.312493  -0.552199  0  2.204447  0
O  O83  1  0.09955731  0.73583549  0.74875345  1  0  -0.62494  0  1.977963  0  0  -0.57  0  2.199013  0  0  -0.594731  0  2.190275  0  0  -0.3125  -0.552154  0  2.204629  0
O  O84  1  0.18761362  0.74162106  0.46365959  1  0  -0.664448  0  2.029016  0  0  -0.596668  0  2.289119  0  0  -0.626808  0  2.276918  0  0  -0.33157  -0.576349  0  2.297289  0
O  O85  1  0.81239241  0.24162439  0.03634941  1  0  -0.66445  0  2.028982  0  0  -0.596631  0  2.289005  0  0  -0.626771  0  2.276807  0  0  -0.331559  -0.576309  0  2.297167  0
O  O86  1  0.81238454  0.25837744  0.53634066  1  0  -0.664463  0  2.029005  0  0  -0.596697  0  2.289102  0  0  -0.626844  0  2.276912  0  0  -0.331581  -0.576379  0  2.297274  0
O  O87  1  0.18760913  0.75837710  0.96365275  1  0  -0.664363  0  2.029007  0  0  -0.596618  0  2.289108  0  0  -0.62675  0  2.276889  0  0  -0.331533  -0.576299  0  2.297274  0
O  O88  1  0.59560413  0.65421926  0.67562520  1  0  -0.621251  0  1.999714  0  0  -0.563733  0  2.230577  0  0  -0.589817  0  2.223065  0  0  -0.302998  -0.54525  0  2.234883  0
O  O89  1  0.40439418  0.15421290  0.82437133  1  0  -0.621131  0  1.999755  0  0  -0.563705  0  2.230521  0  0  -0.589796  0  2.223033  0  0  -0.302932  -0.54522  0  2.234831  0
O  O90  1  0.40439516  0.34578123  0.32437539  1  0  -0.621197  0  1.999698  0  0  -0.563698  0  2.230547  0  0  -0.589785  0  2.223045  0  0  -0.302956  -0.545214  0  2.234855  0
O  O91  1  0.59560624  0.84578262  0.17562605  1  0  -0.621128  0  1.999686  0  0  -0.563677  0  2.230488  0  0  -0.589763  0  2.222993  0  0  -0.302957  -0.545192  0  2.234797  0
O  O92  1  0.56488021  0.74195134  0.48517191  1  0  -0.683256  0  2.078969  0  0  -0.605328  0  2.317698  0  0  -0.634249  0  2.307672  0  0  -0.311708  -0.585217  0  2.324091  0
O  O93  1  0.43511682  0.24194995  0.01482283  1  0  -0.683216  0  2.079151  0  0  -0.60537  0  2.317862  0  0  -0.634255  0  2.307812  0  0  -0.311739  -0.585281  0  2.324316  0
O  O94  1  0.43511908  0.25805014  0.51482779  1  0  -0.683259  0  2.078979  0  0  -0.605334  0  2.31772  0  0  -0.634247  0  2.307692  0  0  -0.311695  -0.585232  0  2.324137  0
O  O95  1  0.56488248  0.75805054  0.98517245  1  0  -0.683243  0  2.079066  0  0  -0.605335  0  2.317769  0  0  -0.634242  0  2.307736  0  0  -0.311702  -0.58525  0  2.324228  0
O  O96  1  0.36095389  0.67427819  0.23930042  1  0  -0.852759  0  1.869716  0  0  -0.790906  0  2.07005  0  0  -0.813783  0  2.036494  0  0  -0.589136  -0.77382  0  2.093664  0
O  O97  1  0.63904700  0.17427646  0.26069633  1  0  -0.852814  0  1.869654  0  0  -0.790959  0  2.069903  0  0  -0.813837  0  2.036354  0  0  -0.589152  -0.77387  0  2.093518  0
O  O98  1  0.63904766  0.32572429  0.76070085  1  0  -0.852834  0  1.869649  0  0  -0.790964  0  2.069933  0  0  -0.813838  0  2.036376  0  0  -0.589179  -0.773878  0  2.093547  0
O  O99  1  0.36095455  0.82572304  0.73930494  1  0  -0.852786  0  1.869695  0  0  -0.79096  0  2.070018  0  0  -0.813838  0  2.036464  0  0  -0.589138  -0.773871  0  2.093634  0
O  O100  1  0.26671641  0.43008264  0.08229019  1  0  -0.831313  0  1.851643  0  0  -0.772663  0  2.033287  0  0  -0.796617  0  2.001605  0  0  -0.595816  -0.755438  0  2.055027  0
O  O101  1  0.73328581  0.93008420  0.41771066  1  0  -0.831224  0  1.85179  0  0  -0.772601  0  2.033422  0  0  -0.79655  0  2.001742  0  0  -0.59579  -0.755379  0  2.055159  0
O  O102  1  0.73328401  0.56991685  0.91771074  1  0  -0.831345  0  1.851593  0  0  -0.772661  0  2.033249  0  0  -0.796627  0  2.001564  0  0  -0.595805  -0.755429  0  2.055006  0
O  O103  1  0.26671574  0.06991430  0.58228884  1  0  -0.831245  0  1.851759  0  0  -0.772624  0  2.033414  0  0  -0.796576  0  2.001737  0  0  -0.595803  -0.755402  0  2.055153  0
