# generated using pymatgen
data_Ag2H15C20I(NO2)2
_symmetry_space_group_name_H-M   'P 1'
_cell_length_a   9.13035130
_cell_length_b   9.11527991
_cell_length_c   13.44632688
_cell_angle_alpha   88.97334958
_cell_angle_beta   71.23819006
_cell_angle_gamma   69.27123782
_symmetry_Int_Tables_number   1
_chemical_formula_structural   Ag2H15C20I(NO2)2
_chemical_formula_sum   'Ag4 H30 C40 I2 N4 O8'
_cell_volume   985.19284880
_cell_formula_units_Z   2
loop_
 _symmetry_equiv_pos_site_id
 _symmetry_equiv_pos_as_xyz
  1  'x, y, z'
loop_
 _atom_site_type_symbol
 _atom_site_label
 _atom_site_symmetry_multiplicity
 _atom_site_fract_x
 _atom_site_fract_y
 _atom_site_fract_z
 _atom_site_occupancy
 _atom_site_hle17_bader_spin_density
 _atom_site_hle17_ddec_charge
 _atom_site_hle17_ddec_spin_density
 _atom_site_hle17_ddec_sum_bond_order
 _atom_site_hle17_magmom
 _atom_site_hse06_10hf_bader_spin_density
 _atom_site_hse06_10hf_ddec_charge
 _atom_site_hse06_10hf_ddec_spin_density
 _atom_site_hse06_10hf_ddec_sum_bond_order
 _atom_site_hse06_10hf_magmom
 _atom_site_hse06_bader_spin_density
 _atom_site_hse06_ddec_charge
 _atom_site_hse06_ddec_spin_density
 _atom_site_hse06_ddec_sum_bond_order
 _atom_site_hse06_magmom
 _atom_site_pbe_bader_spin_density
 _atom_site_pbe_cm5_charge
 _atom_site_pbe_ddec_charge
 _atom_site_pbe_ddec_spin_density
 _atom_site_pbe_ddec_sum_bond_order
 _atom_site_pbe_magmom
Ag  Ag0  1  0.98949861  0.10969164  0.92658870  1  0  0.540243  0  1.518035  0  0  0.427703  0  1.990229  0  0  0.464835  0  1.925844  0  0  0.395127  0.402323  0  2.034247  0
Ag  Ag1  1  0.01050003  0.89030858  0.07341476  1  0  0.540268  0  1.518013  0  0  0.42773  0  1.990211  0  0  0.464864  0  1.925827  0  0  0.395134  0.402351  0  2.03423  0
Ag  Ag2  1  0.19974496  0.26744658  0.98555969  1  0  0.503219  0  1.462213  0  0  0.355422  0  1.900079  0  0  0.385295  0  1.855026  0  0  0.469943  0.335135  0  1.93094  0
Ag  Ag3  1  0.80025760  0.73255251  0.01443994  1  0  0.503192  0  1.462244  0  0  0.355357  0  1.900114  0  0  0.385237  0  1.855062  0  0  0.469931  0.335071  0  1.930976  0
H  H4  1  0.41941047  0.21290129  0.57948049  1  0  0.076312  0  1.035889  0  0  0.081187  0  1.113518  0  0  0.084138  0  1.113001  0  0  0.083925  0.079048  0  1.114051  0
H  H5  1  0.58059038  0.78710490  0.42051572  1  0  0.076354  0  1.035915  0  0  0.081245  0  1.113516  0  0  0.084199  0  1.112993  0  0  0.08394  0.079097  0  1.114052  0
H  H6  1  0.20225755  0.03955480  0.16152189  1  0  0.08242  0  0.940313  0  0  0.092139  0  1.004256  0  0  0.093931  0  1.002997  0  0  0.115149  0.090778  0  1.005294  0
H  H7  1  0.79774521  0.96044667  0.83847990  1  0  0.082408  0  0.940327  0  0  0.092132  0  1.004269  0  0  0.093923  0  1.003007  0  0  0.115159  0.09077  0  1.005308  0
H  H8  1  0.76373183  0.27149908  0.71962542  1  0  0.120235  0  0.977453  0  0  0.12755  0  1.041437  0  0  0.131177  0  1.040701  0  0  0.103006  0.124914  0  1.042134  0
H  H9  1  0.23626910  0.72850117  0.28037381  1  0  0.120213  0  0.977454  0  0  0.127528  0  1.041448  0  0  0.131155  0  1.040711  0  0  0.102998  0.124898  0  1.042137  0
H  H10  1  0.63546715  0.43690070  0.28987238  1  0  0.101378  0  0.961122  0  0  0.112259  0  1.021189  0  0  0.114194  0  1.023256  0  0  0.1022  0.110873  0  1.019945  0
H  H11  1  0.36453379  0.56309956  0.71012983  1  0  0.101419  0  0.961139  0  0  0.11231  0  1.021189  0  0  0.114247  0  1.023258  0  0  0.102212  0.110925  0  1.019944  0
H  H12  1  0.84430067  0.44171376  0.11729907  1  0  0.091297  0  0.957299  0  0  0.097971  0  1.026362  0  0  0.10093  0  1.023153  0  0  0.113906  0.095694  0  1.028863  0
H  H13  1  0.15569999  0.55829005  0.88270315  1  0  0.091228  0  0.957367  0  0  0.09792  0  1.026409  0  0  0.100879  0  1.023199  0  0  0.11388  0.095644  0  1.028909  0
H  H14  1  0.22938519  0.22148480  0.75950411  1  0  0.09193  0  0.973147  0  0  0.098186  0  1.040158  0  0  0.101666  0  1.036273  0  0  0.111204  0.095543  0  1.043075  0
H  H15  1  0.77061728  0.77852023  0.24049250  1  0  0.091896  0  0.973155  0  0  0.098123  0  1.040212  0  0  0.101602  0  1.036329  0  0  0.111202  0.095483  0  1.043125  0
H  H16  1  0.56334818  0.27228122  0.89396082  1  0  0.090114  0  0.964004  0  0  0.098444  0  1.028767  0  0  0.101345  0  1.025725  0  0  0.114676  0.096226  0  1.031112  0
H  H17  1  0.43665485  0.72771669  0.10603650  1  0  0.090116  0  0.963992  0  0  0.098425  0  1.028777  0  0  0.101326  0  1.025736  0  0  0.114662  0.096208  0  1.03112  0
H  H18  1  0.55599595  0.30031102  0.43654430  1  0  0.077735  0  0.931178  0  0  0.095988  0  0.989096  0  0  0.097387  0  0.988598  0  0  0.091901  0.094978  0  0.989476  0
H  H19  1  0.44400430  0.69968804  0.56345584  1  0  0.077749  0  0.931162  0  0  0.095994  0  0.989085  0  0  0.097393  0  0.988586  0  0  0.091896  0.094983  0  0.989464  0
H  H20  1  0.67418131  0.09742613  0.43086105  1  0  0.078077  0  0.94191  0  0  0.093896  0  1.007314  0  0  0.095274  0  1.006599  0  0  0.08888  0.092889  0  1.007894  0
H  H21  1  0.32582057  0.90257177  0.56913949  1  0  0.078032  0  0.941992  0  0  0.093843  0  1.0074  0  0  0.095219  0  1.006685  0  0  0.088858  0.092836  0  1.007981  0
H  H22  1  0.00765007  0.01363291  0.33291426  1  0  0.106292  0  0.945767  0  0  0.118116  0  1.006152  0  0  0.12105  0  1.005589  0  0  0.103191  0.116001  0  1.006773  0
H  H23  1  0.99234856  0.98636731  0.66708548  1  0  0.106312  0  0.945759  0  0  0.118138  0  1.00615  0  0  0.121071  0  1.005589  0  0  0.103189  0.116028  0  1.006755  0
H  H24  1  0.42783158  0.39233321  0.05292116  1  0  0.105676  0  0.957251  0  0  0.115332  0  1.021861  0  0  0.119123  0  1.018225  0  0  0.105229  0.112545  0  1.024603  0
H  H25  1  0.57216665  0.60766225  0.94707873  1  0  0.105637  0  0.957282  0  0  0.115305  0  1.021881  0  0  0.119095  0  1.018246  0  0  0.105222  0.112518  0  1.024621  0
H  H26  1  0.73974923  0.36463893  0.52317384  1  0  0.08287  0  0.92039  0  0  0.103013  0  0.977682  0  0  0.104074  0  0.977636  0  0  0.094442  0.102267  0  0.977713  0
H  H27  1  0.26025352  0.63536254  0.47682275  1  0  0.082881  0  0.920414  0  0  0.10302  0  0.977691  0  0  0.104083  0  0.977642  0  0  0.094449  0.102274  0  0.977721  0
H  H28  1  0.85204122  0.16373876  0.51740264  1  0  0.062516  0  0.977814  0  0  0.074569  0  1.055905  0  0  0.075903  0  1.055324  0  0  0.082256  0.073633  0  1.056317  0
H  H29  1  0.14796201  0.83626153  0.48259609  1  0  0.062523  0  0.977875  0  0  0.074575  0  1.055954  0  0  0.075906  0  1.055383  0  0  0.082257  0.073643  0  1.056357  0
H  H30  1  0.03351608  0.48609848  0.35229239  1  0  0.086404  0  0.999759  0  0  0.090387  0  1.078476  0  0  0.094226  0  1.075666  0  0  0.086023  0.087598  0  1.080593  0
H  H31  1  0.96648350  0.51389938  0.64770717  1  0  0.086395  0  0.999754  0  0  0.090383  0  1.078465  0  0  0.094223  0  1.075653  0  0  0.086008  0.087595  0  1.080582  0
H  H32  1  0.50117220  0.09513318  0.29797493  1  0  0.110032  0  0.96749  0  0  0.118602  0  1.033769  0  0  0.121984  0  1.031917  0  0  0.100887  0.116194  0  1.035065  0
H  H33  1  0.49882846  0.90487064  0.70202804  1  0  0.110078  0  0.96741  0  0  0.118646  0  1.033689  0  0  0.12202  0  1.031863  0  0  0.100917  0.116238  0  1.034986  0
C  C34  1  0.45731706  0.22732746  0.64642958  1  0  -0.189367  0  3.751552  0  0  -0.205454  0  3.995691  0  0  -0.21478  0  4.017987  0  0  -0.098904  -0.199363  0  3.980777  0
C  C35  1  0.54268264  0.77267872  0.35356762  1  0  -0.189467  0  3.751631  0  0  -0.205541  0  3.995752  0  0  -0.21487  0  4.018047  0  0  -0.098908  -0.199441  0  3.980845  0
C  C36  1  0.60880748  0.24404835  0.63230416  1  0  0.146232  0  3.727185  0  0  0.165752  0  3.9598  0  0  0.17142  0  3.981977  0  0  0.006859  0.162121  0  3.944618  0
C  C37  1  0.39119385  0.75595666  0.36769344  1  0  0.146254  0  3.727099  0  0  0.165762  0  3.959708  0  0  0.17143  0  3.981887  0  0  0.00683  0.162132  0  3.944523  0
C  C38  1  0.07552396  0.12540039  0.19304950  1  0  0.105415  0  3.747655  0  0  0.07465  0  4.004589  0  0  0.08172  0  4.023341  0  0  0.034625  0.069914  0  3.992128  0
C  C39  1  0.92447745  0.87459869  0.80695262  1  0  0.105415  0  3.747649  0  0  0.0746  0  4.004581  0  0  0.081681  0  4.023332  0  0  0.034589  0.069866  0  3.99212  0
C  C40  1  0.64678446  0.25998423  0.72374578  1  0  -0.174944  0  3.686716  0  0  -0.190152  0  3.927594  0  0  -0.199832  0  3.950848  0  0  -0.090035  -0.183877  0  3.912071  0
C  C41  1  0.35321579  0.74001483  0.27625213  1  0  -0.174811  0  3.686609  0  0  -0.190031  0  3.927499  0  0  -0.199711  0  3.950754  0  0  -0.089967  -0.183762  0  3.911972  0
C  C42  1  0.76064832  0.34730633  0.26525531  1  0  -0.159519  0  3.686291  0  0  -0.177244  0  3.929997  0  0  -0.185747  0  3.952495  0  0  -0.086687  -0.171872  0  3.915074  0
C  C43  1  0.23935511  0.65269634  0.73474557  1  0  -0.159522  0  3.686322  0  0  -0.177269  0  3.930024  0  0  -0.185777  0  3.952526  0  0  -0.086663  -0.171896  0  3.915101  0
C  C44  1  0.87581187  0.35177863  0.16926421  1  0  0.140486  0  3.668878  0  0  0.107901  0  3.915384  0  0  0.115597  0  3.934035  0  0  0.044395  0.10278  0  3.903016  0
C  C45  1  0.12419224  0.64822524  0.83073800  1  0  0.140493  0  3.668751  0  0  0.107861  0  3.915233  0  0  0.115563  0  3.933892  0  0  0.044394  0.10274  0  3.902866  0
C  C46  1  0.34928514  0.23169596  0.74755351  1  0  0.12817  0  3.689028  0  0  0.098539  0  3.933113  0  0  0.106741  0  3.950668  0  0  0.041164  0.093203  0  3.921273  0
C  C47  1  0.65071667  0.76830787  0.25244400  1  0  0.128306  0  3.688909  0  0  0.098657  0  3.933051  0  0  0.106858  0  3.950609  0  0  0.041162  0.093318  0  3.921212  0
C  C48  1  0.80397355  0.22576522  0.32755879  1  0  0.166187  0  3.691056  0  0  0.184678  0  3.92304  0  0  0.190558  0  3.943946  0  0  0.015085  0.180857  0  3.908854  0
C  C49  1  0.19602441  0.77423381  0.67244261  1  0  0.166133  0  3.691171  0  0  0.184656  0  3.923116  0  0  0.190536  0  3.94402  0  0  0.015058  0.180833  0  3.908933  0
C  C50  1  0.53380459  0.26221042  0.82248572  1  0  0.117564  0  3.68691  0  0  0.089465  0  3.928655  0  0  0.096427  0  3.948543  0  0  0.041197  0.084966  0  3.915195  0
C  C51  1  0.46619681  0.73778865  0.17751194  1  0  0.117504  0  3.686931  0  0  0.089414  0  3.928686  0  0  0.096376  0  3.948576  0  0  0.041199  0.084915  0  3.91523  0
C  C52  1  0.68031779  0.21606284  0.43046769  1  0  -0.152763  0  3.704461  0  0  -0.194397  0  3.950227  0  0  -0.195736  0  3.961261  0  0  -0.159069  -0.193292  0  3.942378  0
C  C53  1  0.31968226  0.78393384  0.56953178  1  0  -0.152699  0  3.704487  0  0  -0.194336  0  3.950231  0  0  -0.195669  0  3.961255  0  0  -0.159041  -0.193235  0  3.942393  0
C  C54  1  0.96621005  0.11340517  0.28959472  1  0  -0.155013  0  3.689879  0  0  -0.1749  0  3.939042  0  0  -0.182656  0  3.959611  0  0  -0.085821  -0.170021  0  3.925536  0
C  C55  1  0.03378858  0.88659505  0.71040651  1  0  -0.155079  0  3.689966  0  0  -0.175011  0  3.93918  0  0  -0.182767  0  3.959745  0  0  -0.085848  -0.17013  0  3.925677  0
C  C56  1  0.37951163  0.36043387  0.13190662  1  0  -0.105696  0  3.72417  0  0  -0.140419  0  3.973235  0  0  -0.138129  0  3.989387  0  0  -0.087541  -0.141871  0  3.962646  0
C  C57  1  0.62048430  0.63956156  0.86809304  1  0  -0.105652  0  3.72422  0  0  -0.140403  0  3.973215  0  0  -0.138113  0  3.989367  0  0  -0.08753  -0.141852  0  3.962624  0
C  C58  1  0.48215338  0.23459527  0.16875825  1  0  -0.039017  0  3.738742  0  0  -0.007097  0  3.964344  0  0  -0.015199  0  3.986506  0  0  -0.015376  -0.002021  0  3.949614  0
C  C59  1  0.51784593  0.76540615  0.83124281  1  0  -0.039075  0  3.738815  0  0  -0.007102  0  3.964322  0  0  -0.015204  0  3.986482  0  0  -0.015401  -0.002026  0  3.949593  0
C  C60  1  0.66115097  0.14552350  0.10264421  1  0  0.62144  0  3.944366  0  0  0.569498  0  4.231488  0  0  0.605454  0  4.226627  0  0  0.195756  0.545092  0  4.233865  0
C  C61  1  0.33884814  0.85447554  0.89735693  1  0  0.621473  0  3.944425  0  0  0.56954  0  4.231499  0  0  0.605497  0  4.226633  0  0  0.195773  0.545133  0  4.233878  0
C  C62  1  0.72696374  0.24852683  0.52534943  1  0  -0.158846  0  3.7302  0  0  -0.201261  0  3.973609  0  0  -0.203304  0  3.986503  0  0  -0.160125  -0.199653  0  3.964457  0
C  C63  1  0.27303787  0.75147462  0.47464890  1  0  -0.158906  0  3.730262  0  0  -0.201284  0  3.973607  0  0  -0.203331  0  3.986497  0  0  -0.16012  -0.199676  0  3.964456  0
C  C64  1  0.15791364  0.41369989  0.30079957  1  0  -0.113626  0  3.757157  0  0  -0.148022  0  4.006993  0  0  -0.14778  0  4.027156  0  0  -0.09903  -0.147914  0  3.993388  0
C  C65  1  0.84208547  0.58629915  0.69920083  1  0  -0.113716  0  3.757359  0  0  -0.148138  0  4.007175  0  0  -0.147897  0  4.027338  0  0  -0.099078  -0.14803  0  3.993573  0
C  C66  1  0.21825600  0.45059314  0.19783553  1  0  -0.031985  0  3.748229  0  0  -0.003613  0  3.977239  0  0  -0.009689  0  3.997674  0  0  -0.014992  7.2e-05  0  3.963594  0
C  C67  1  0.78173946  0.54940347  0.80216495  1  0  -0.03189  0  3.748198  0  0  -0.003473  0  3.977186  0  0  -0.009546  0  3.997619  0  0  -0.014934  0.000212  0  3.963543  0
C  C68  1  0.11062996  0.58980730  0.15899947  1  0  0.638101  0  3.924565  0  0  0.591526  0  4.207184  0  0  0.624784  0  4.203445  0  0  0.189992  0.569004  0  4.208592  0
C  C69  1  0.88936597  0.41018813  0.84100093  1  0  0.638045  0  3.924695  0  0  0.591398  0  4.207387  0  0  0.624656  0  4.20365  0  0  0.189941  0.568876  0  4.208796  0
C  C70  1  0.42043949  0.19441459  0.27099039  1  0  -0.109335  0  3.736484  0  0  -0.144394  0  3.983177  0  0  -0.143491  0  4.003523  0  0  -0.096475  -0.144752  0  3.969412  0
C  C71  1  0.57956009  0.80558327  0.72901066  1  0  -0.109367  0  3.736524  0  0  -0.144454  0  3.983206  0  0  -0.143555  0  4.003551  0  0  -0.096498  -0.144811  0  3.969441  0
C  C72  1  0.25924594  0.28432004  0.33519469  1  0  0.017402  0  3.711003  0  0  0.047552  0  3.971517  0  0  0.046984  0  3.996343  0  0  -0.05277  0.047701  0  3.954692  0
C  C73  1  0.74075547  0.71567904  0.66480669  1  0  0.017411  0  3.711063  0  0  0.047574  0  3.971558  0  0  0.047008  0  3.996383  0  0  -0.05276  0.047722  0  3.954734  0
I  I74  1  0.16634150  0.22981686  0.49125126  1  0  0.030636  0  1.361809  0  0  0.026652  0  1.660697  0  0  0.025764  0  1.651019  0  0  0.14123  0.027038  0  1.667633  0
I  I75  1  0.83365876  0.77018219  0.50875037  1  0  0.03064  0  1.361792  0  0  0.026645  0  1.660679  0  0  0.025754  0  1.651012  0  0  0.141224  0.027031  0  1.667612  0
N  N76  1  0.03150342  0.24306539  0.13352035  1  0  -0.316255  0  3.401281  0  0  -0.221029  0  3.670131  0  0  -0.242576  0  3.688878  0  0  -0.355881  -0.206634  0  3.65738  0
N  N77  1  0.96849799  0.75693369  0.86648177  1  0  -0.316111  0  3.401131  0  0  -0.220765  0  3.669887  0  0  -0.242333  0  3.688653  0  0  -0.355825  -0.206372  0  3.657139  0
N  N78  1  0.38550820  0.25010424  0.83512281  1  0  -0.296732  0  3.34121  0  0  -0.206269  0  3.618388  0  0  -0.227198  0  3.635938  0  0  -0.351776  -0.192199  0  3.606169  0
N  N79  1  0.61449292  0.74989839  0.16487561  1  0  -0.296806  0  3.341318  0  0  -0.20631  0  3.61848  0  0  -0.22724  0  3.636031  0  0  -0.351794  -0.19224  0  3.606264  0
O  O80  1  0.71210217  0.18036471  0.00890779  1  0  -0.608636  0  2.067081  0  0  -0.538148  0  2.325839  0  0  -0.569911  0  2.315583  0  0  -0.32437  -0.516049  0  2.332035  0
O  O81  1  0.28789674  0.81963195  0.99109194  1  0  -0.608658  0  2.067095  0  0  -0.538179  0  2.32585  0  0  -0.569942  0  2.315595  0  0  -0.324363  -0.516078  0  2.332047  0
O  O82  1  0.74667871  0.04474937  0.14866660  1  0  -0.624483  0  2.164346  0  0  -0.55241  0  2.437628  0  0  -0.585119  0  2.428787  0  0  -0.323787  -0.52967  0  2.442797  0
O  O83  1  0.25332060  0.95525205  0.85133520  1  0  -0.624466  0  2.164374  0  0  -0.552391  0  2.43762  0  0  -0.585097  0  2.428777  0  0  -0.323784  -0.529649  0  2.442789  0
O  O84  1  0.03605268  0.71825712  0.22052398  1  0  -0.635089  0  1.93722  0  0  -0.571645  0  2.170625  0  0  -0.600438  0  2.161792  0  0  -0.339738  -0.550979  0  2.175765  0
O  O85  1  0.96394095  0.28173827  0.77947618  1  0  -0.635019  0  1.937328  0  0  -0.571555  0  2.170765  0  0  -0.60035  0  2.161937  0  0  -0.339706  -0.550887  0  2.175902  0
O  O86  1  0.10425685  0.57077588  0.06733996  1  0  -0.647088  0  1.998587  0  0  -0.580531  0  2.256822  0  0  -0.610397  0  2.245637  0  0  -0.329874  -0.55924  0  2.263517  0
O  O87  1  0.89574233  0.42921723  0.93265975  1  0  -0.647121  0  1.998571  0  0  -0.580535  0  2.256809  0  0  -0.6104  0  2.245626  0  0  -0.329858  -0.559241  0  2.263501  0
