# generated using pymatgen
data_ZnH21C29N5O4
_symmetry_space_group_name_H-M   'P 1'
_cell_length_a   7.62504423
_cell_length_b   9.91327797
_cell_length_c   16.22233529
_cell_angle_alpha   85.13878746
_cell_angle_beta   80.17959865
_cell_angle_gamma   81.27042093
_symmetry_Int_Tables_number   1
_chemical_formula_structural   ZnH21C29N5O4
_chemical_formula_sum   'Zn2 H42 C58 N10 O8'
_cell_volume   1192.08569626
_cell_formula_units_Z   2
loop_
 _symmetry_equiv_pos_site_id
 _symmetry_equiv_pos_as_xyz
  1  'x, y, z'
loop_
 _atom_site_type_symbol
 _atom_site_label
 _atom_site_symmetry_multiplicity
 _atom_site_fract_x
 _atom_site_fract_y
 _atom_site_fract_z
 _atom_site_occupancy
 _atom_site_hle17_bader_spin_density
 _atom_site_hle17_ddec_charge
 _atom_site_hle17_ddec_spin_density
 _atom_site_hle17_ddec_sum_bond_order
 _atom_site_hle17_magmom
 _atom_site_hse06_10hf_bader_spin_density
 _atom_site_hse06_10hf_ddec_charge
 _atom_site_hse06_10hf_ddec_spin_density
 _atom_site_hse06_10hf_ddec_sum_bond_order
 _atom_site_hse06_10hf_magmom
 _atom_site_hse06_bader_spin_density
 _atom_site_hse06_ddec_charge
 _atom_site_hse06_ddec_spin_density
 _atom_site_hse06_ddec_sum_bond_order
 _atom_site_hse06_magmom
 _atom_site_pbe_bader_spin_density
 _atom_site_pbe_cm5_charge
 _atom_site_pbe_ddec_charge
 _atom_site_pbe_ddec_spin_density
 _atom_site_pbe_ddec_sum_bond_order
 _atom_site_pbe_magmom
Zn  Zn0  1  0.63944732  0.44360699  0.24574901  1  0  0.962424  0  1.853356  0  0  0.763858  0  2.311289  0  0  0.809102  0  2.262832  0  0  0.700856  0.732596  0  2.344567  0
Zn  Zn1  1  0.36055358  0.55639294  0.75425044  1  0  0.962385  0  1.853441  0  0  0.763796  0  2.311391  0  0  0.809039  0  2.262935  0  0  0.700851  0.732542  0  2.344667  0
H  H2  1  0.95861735  0.64396318  0.46664078  1  0  0.097014  0  0.956039  0  0  0.108599  0  1.015068  0  0  0.110776  0  1.01541  0  0  0.106357  0.106862  0  1.015171  0
H  H3  1  0.04137804  0.35603777  0.53335843  1  0  0.096991  0  0.956086  0  0  0.108581  0  1.015122  0  0  0.11077  0  1.015431  0  0  0.106348  0.106854  0  1.015222  0
H  H4  1  0.25084665  0.63990641  0.51710459  1  0  0.114507  0  0.946892  0  0  0.124151  0  1.006296  0  0  0.128152  0  1.004021  0  0  0.109919  0.121187  0  1.00816  0
H  H5  1  0.74914953  0.36009759  0.48289376  1  0  0.114485  0  0.947008  0  0  0.124138  0  1.006391  0  0  0.128136  0  1.004118  0  0  0.10993  0.121187  0  1.008247  0
H  H6  1  0.53916922  0.56269425  0.41837444  1  0  0.082109  0  0.962567  0  0  0.088378  0  1.031212  0  0  0.091324  0  1.029027  0  0  0.114785  0.086113  0  1.033018  0
H  H7  1  0.46082767  0.43730571  0.58162594  1  0  0.082021  0  0.962584  0  0  0.088345  0  1.031177  0  0  0.091293  0  1.02899  0  0  0.114786  0.086083  0  1.032994  0
H  H8  1  0.60338109  0.16586078  0.15938936  1  0  0.115736  0  0.955924  0  0  0.125697  0  1.01345  0  0  0.128446  0  1.012122  0  0  0.120733  0.123765  0  1.014394  0
H  H9  1  0.39661918  0.83413512  0.84061284  1  0  0.115708  0  0.955998  0  0  0.125678  0  1.01351  0  0  0.128427  0  1.012184  0  0  0.120726  0.123753  0  1.014454  0
H  H10  1  0.93982426  0.23736847  0.32663168  1  0  0.103944  0  0.953083  0  0  0.110431  0  1.020719  0  0  0.113012  0  1.017908  0  0  0.134851  0.108486  0  1.022738  0
H  H11  1  0.06017894  0.76263350  0.67336746  1  0  0.10396  0  0.953074  0  0  0.110423  0  1.020732  0  0  0.113005  0  1.017923  0  0  0.134854  0.108484  0  1.022753  0
H  H12  1  0.79386251  0.91415545  0.20936943  1  0  0.134263  0  0.942614  0  0  0.144988  0  0.999917  0  0  0.14817  0  0.997893  0  0  0.128915  0.142413  0  1.001718  0
H  H13  1  0.20613755  0.08584150  0.79063458  1  0  0.134185  0  0.942739  0  0  0.144948  0  0.999987  0  0  0.148128  0  0.997966  0  0  0.128915  0.14238  0  1.001781  0
H  H14  1  0.15924168  0.94657978  0.28916097  1  0  0.077709  0  0.96066  0  0  0.090916  0  1.024963  0  0  0.091632  0  1.02488  0  0  0.106561  0.090451  0  1.024924  0
H  H15  1  0.84076244  0.05342429  0.71084106  1  0  0.077687  0  0.960628  0  0  0.090834  0  1.024984  0  0  0.091549  0  1.024899  0  0  0.106509  0.090373  0  1.024954  0
H  H16  1  0.98446752  0.84634810  0.31642751  1  0  0.100962  0  0.971985  0  0  0.112018  0  1.038014  0  0  0.114382  0  1.036066  0  0  0.11406  0.110201  0  1.039578  0
H  H17  1  0.01553829  0.15365395  0.68357574  1  0  0.100955  0  0.971919  0  0  0.111964  0  1.037964  0  0  0.114324  0  1.036027  0  0  0.114052  0.110153  0  1.039532  0
H  H18  1  0.28359969  0.08946722  0.31298360  1  0  0.08892  0  0.976625  0  0  0.099013  0  1.039993  0  0  0.101897  0  1.039054  0  0  0.099244  0.096905  0  1.040821  0
H  H19  1  0.71640497  0.91053380  0.68701918  1  0  0.08887  0  0.976594  0  0  0.098989  0  1.039942  0  0  0.101872  0  1.039004  0  0  0.099275  0.096878  0  1.040774  0
H  H20  1  0.50873609  0.20229608  0.35875331  1  0  0.086559  0  0.987186  0  0  0.093874  0  1.055193  0  0  0.096308  0  1.054927  0  0  0.097126  0.09209  0  1.055569  0
H  H21  1  0.49127633  0.79769879  0.64124923  1  0  0.086637  0  0.987121  0  0  0.093904  0  1.055158  0  0  0.096336  0  1.054889  0  0  0.097147  0.092115  0  1.055539  0
H  H22  1  0.50695696  0.22429749  0.51164556  1  0  0.079357  0  0.968881  0  0  0.092614  0  1.028588  0  0  0.094573  0  1.028581  0  0  0.096916  0.091394  0  1.028286  0
H  H23  1  0.49305316  0.77569535  0.48835790  1  0  0.079394  0  0.968827  0  0  0.092664  0  1.028514  0  0  0.094621  0  1.02851  0  0  0.096938  0.091449  0  1.028207  0
H  H24  1  0.26840636  0.14574457  0.61627017  1  0  0.101243  0  0.976396  0  0  0.109949  0  1.039936  0  0  0.113087  0  1.03868  0  0  0.102412  0.107818  0  1.040682  0
H  H25  1  0.73160018  0.85425339  0.38373327  1  0  0.101231  0  0.976482  0  0  0.109953  0  1.040007  0  0  0.113094  0  1.038751  0  0  0.1024  0.107826  0  1.040744  0
H  H26  1  0.76650598  0.31491344  0.93110292  1  0  0.084908  0  0.984591  0  0  0.09527  0  1.049578  0  0  0.097367  0  1.049735  0  0  0.098135  0.093378  0  1.050284  0
H  H27  1  0.23349494  0.68508645  0.06889468  1  0  0.084913  0  0.984532  0  0  0.095273  0  1.049518  0  0  0.097369  0  1.049675  0  0  0.098147  0.093363  0  1.050252  0
H  H28  1  0.76100811  0.82634550  0.88325003  1  0  0.094901  0  0.979948  0  0  0.104264  0  1.046726  0  0  0.107537  0  1.044292  0  0  0.101621  0.10167  0  1.049004  0
H  H29  1  0.23897375  0.17365658  0.11675325  1  0  0.094878  0  0.980154  0  0  0.104345  0  1.046788  0  0  0.107619  0  1.044357  0  0  0.101643  0.101751  0  1.049057  0
H  H30  1  0.56367084  0.00706533  0.81920881  1  0  0.080135  0  0.972545  0  0  0.093249  0  1.031968  0  0  0.095507  0  1.031263  0  0  0.098293  0.091618  0  1.032538  0
H  H31  1  0.43632019  0.99293768  0.18079062  1  0  0.080122  0  0.972542  0  0  0.093242  0  1.031944  0  0  0.095501  0  1.03124  0  0  0.098311  0.09161  0  1.03251  0
H  H32  1  0.56813646  0.25209266  0.84229237  1  0  0.09142  0  0.962249  0  0  0.10237  0  1.021276  0  0  0.104775  0  1.020854  0  0  0.098402  0.100708  0  1.021519  0
H  H33  1  0.43186354  0.74791234  0.15770500  1  0  0.091339  0  0.962345  0  0  0.102333  0  1.021329  0  0  0.104737  0  1.020907  0  0  0.098391  0.100672  0  1.021565  0
H  H34  1  0.97975609  0.70190715  0.90440563  1  0  0.108737  0  0.942892  0  0  0.118758  0  1.010985  0  0  0.120947  0  1.008996  0  0  0.118674  0.117022  0  1.012309  0
H  H35  1  0.02023692  0.29809987  0.09558970  1  0  0.108826  0  0.942797  0  0  0.118843  0  1.010884  0  0  0.121035  0  1.008892  0  0  0.118707  0.117112  0  1.012206  0
H  H36  1  0.13145150  0.65259374  0.97473760  1  0  0.077793  0  0.976877  0  0  0.090976  0  1.042465  0  0  0.091567  0  1.043195  0  0  0.10771  0.090181  0  1.042273  0
H  H37  1  0.86854321  0.34741121  0.02525711  1  0  0.077791  0  0.976855  0  0  0.090974  0  1.042449  0  0  0.091567  0  1.043178  0  0  0.107686  0.090176  0  1.042258  0
H  H38  1  0.94545128  0.63778305  0.14564157  1  0  0.10768  0  0.971779  0  0  0.11403  0  1.04018  0  0  0.116704  0  1.036999  0  0  0.13394  0.111935  0  1.04265  0
H  H39  1  0.05455135  0.36221475  0.85435416  1  0  0.107657  0  0.971859  0  0  0.114032  0  1.040214  0  0  0.116712  0  1.037024  0  0  0.133934  0.111929  0  1.042691  0
H  H40  1  0.50764596  0.49176721  0.07422544  1  0  0.105417  0  1.011001  0  0  0.115879  0  1.069563  0  0  0.1178  0  1.069562  0  0  0.115934  0.114393  0  1.069809  0
H  H41  1  0.49235191  0.50823476  0.92577351  1  0  0.105402  0  1.010991  0  0  0.115873  0  1.069551  0  0  0.117794  0  1.06955  0  0  0.115936  0.11439  0  1.069795  0
H  H42  1  0.70054267  0.61709849  0.93226065  1  0  0.123662  0  1.00667  0  0  0.127268  0  1.077368  0  0  0.131964  0  1.072757  0  0  0.12013  0.123782  0  1.080944  0
H  H43  1  0.29945159  0.38290142  0.06773747  1  0  0.123684  0  1.006554  0  0  0.127252  0  1.077311  0  0  0.131948  0  1.072701  0  0  0.120114  0.123777  0  1.080881  0
C  C44  1  0.90399356  0.56871466  0.31728354  1  0  0.670103  0  3.934811  0  0  0.613799  0  4.244875  0  0  0.649919  0  4.233155  0  0  0.207538  0.589206  0  4.252219  0
C  C45  1  0.09601002  0.43128524  0.68271446  1  0  0.670168  0  3.934656  0  0  0.613825  0  4.244761  0  0  0.649945  0  4.233047  0  0  0.207621  0.589232  0  4.252103  0
C  C46  1  0.25925216  0.42789836  0.22390858  1  0  0.588188  0  3.987041  0  0  0.541248  0  4.285838  0  0  0.573331  0  4.279137  0  0  0.193367  0.519567  0  4.289789  0
C  C47  1  0.74074643  0.57209954  0.77609179  1  0  0.588209  0  3.986972  0  0  0.541272  0  4.285779  0  0  0.573351  0  4.279082  0  0  0.193372  0.519589  0  4.289743  0
C  C48  1  0.24632638  0.50058771  0.30389862  1  0  0.084098  0  3.691818  0  0  0.07739  0  3.929028  0  0  0.079976  0  3.947573  0  0  0.112571  0.075273  0  3.917224  0
C  C49  1  0.75367107  0.49940916  0.69610128  1  0  0.084107  0  3.691796  0  0  0.077375  0  3.929032  0  0  0.079963  0  3.947579  0  0  0.112571  0.07527  0  3.917234  0
C  C50  1  0.08099868  0.55309007  0.35055333  1  0  -0.075519  0  3.654769  0  0  -0.057373  0  3.88954  0  0  -0.063646  0  3.907297  0  0  0.004114  -0.054203  0  3.878559  0
C  C51  1  0.91900048  0.44690474  0.64944594  1  0  -0.075526  0  3.654539  0  0  -0.057341  0  3.889296  0  0  -0.06362  0  3.907064  0  0  0.004146  -0.054172  0  3.87832  0
C  C52  1  0.08436244  0.60419664  0.42813424  1  0  -0.024293  0  3.695726  0  0  -0.051117  0  3.945094  0  0  -0.047808  0  3.962303  0  0  -0.06417  -0.053151  0  3.934009  0
C  C53  1  0.91563353  0.39580119  0.57186264  1  0  -0.024299  0  3.695811  0  0  -0.051147  0  3.945163  0  0  -0.047832  0  3.962377  0  0  -0.064199  -0.053185  0  3.934084  0
C  C54  1  0.24765884  0.60525019  0.45545036  1  0  -0.112179  0  3.726761  0  0  -0.127383  0  3.986781  0  0  -0.132583  0  4.004983  0  0  -0.082344  -0.124087  0  3.9747  0
C  C55  1  0.75234111  0.39474768  0.54454805  1  0  -0.11221  0  3.726819  0  0  -0.127412  0  3.986862  0  0  -0.132613  0  4.005065  0  0  -0.08236  -0.12412  0  3.974779  0
C  C56  1  0.40623561  0.55984384  0.40284563  1  0  0.118125  0  3.709406  0  0  0.085055  0  3.961769  0  0  0.092491  0  3.977461  0  0  0.041539  0.079982  0  3.95125  0
C  C57  1  0.59376108  0.44015716  0.59715593  1  0  0.118278  0  3.709201  0  0  0.085162  0  3.961567  0  0  0.0926  0  3.977255  0  0  0.041584  0.080105  0  3.951017  0
C  C58  1  0.70198435  0.14186062  0.20106368  1  0  -0.003328  0  3.736951  0  0  -0.039108  0  4.006307  0  0  -0.037582  0  4.025974  0  0  -0.002924  -0.039985  0  3.992615  0
C  C59  1  0.29801876  0.85813424  0.79893836  1  0  -0.003331  0  3.736916  0  0  -0.039125  0  4.006299  0  0  -0.0376  0  4.025966  0  0  -0.00295  -0.040003  0  3.992612  0
C  C60  1  0.87398252  0.18413168  0.28781806  1  0  0.16942  0  3.633879  0  0  0.105548  0  3.898055  0  0  0.119494  0  3.910203  0  0  0.143985  0.096478  0  3.889777  0
C  C61  1  0.12602067  0.81587030  0.71218170  1  0  0.169338  0  3.63387  0  0  0.105488  0  3.898056  0  0  0.119434  0  3.910204  0  0  0.144029  0.096422  0  3.889777  0
C  C62  1  0.79372614  0.01844208  0.22487788  1  0  -0.064852  0  3.653601  0  0  -0.106893  0  3.915419  0  0  -0.105553  0  3.934279  0  0  0.004666  -0.107337  0  3.902371  0
C  C63  1  0.20627659  0.98155486  0.77512530  1  0  -0.064883  0  3.653576  0  0  -0.10694  0  3.915397  0  0  -0.105601  0  3.934255  0  0  0.004673  -0.107386  0  3.902345  0
C  C64  1  0.02202996  0.94708804  0.32306813  1  0  -0.055  0  3.661261  0  0  -0.119755  0  3.906887  0  0  -0.115656  0  3.916741  0  0  -0.056396  -0.122331  0  3.89994  0
C  C65  1  0.97797452  0.05291400  0.67693461  1  0  -0.054879  0  3.661015  0  0  -0.119531  0  3.906606  0  0  -0.115426  0  3.916454  0  0  -0.056305  -0.122135  0  3.899709  0
C  C66  1  0.01010392  0.97617216  0.41369895  1  0  -0.016567  0  3.69263  0  0  -0.009747  0  3.939911  0  0  -0.0116  0  3.963925  0  0  -0.00981  -0.008011  0  3.923209  0
C  C67  1  0.98989354  0.02383193  0.58630361  1  0  -0.016767  0  3.692686  0  0  -0.009904  0  3.939943  0  0  -0.011758  0  3.963956  0  0  -0.009832  -0.008161  0  3.923249  0
C  C68  1  0.14039071  0.04443605  0.43873212  1  0  0.013812  0  3.778418  0  0  0.023416  0  4.010158  0  0  0.022902  0  4.035344  0  0  -0.009556  0.023512  0  3.992689  0
C  C69  1  0.85960979  0.95556599  0.56127032  1  0  0.013826  0  3.778449  0  0  0.023431  0  4.010105  0  0  0.022917  0  4.035289  0  0  -0.009549  0.023524  0  3.992639  0
C  C70  1  0.27895047  0.09777573  0.37985507  1  0  -0.121436  0  3.748084  0  0  -0.138114  0  3.99492  0  0  -0.141734  0  4.016995  0  0  -0.095682  -0.135327  0  3.979519  0
C  C71  1  0.72105322  0.90222326  0.62014853  1  0  -0.121352  0  3.748008  0  0  -0.138074  0  3.994822  0  0  -0.141694  0  4.0169  0  0  -0.095765  -0.135278  0  3.979415  0
C  C72  1  0.40573518  0.16235329  0.40529079  1  0  -0.058641  0  3.779896  0  0  -0.075716  0  4.034883  0  0  -0.077268  0  4.057726  0  0  -0.096156  -0.074589  0  4.019175  0
C  C73  1  0.59427555  0.83764361  0.59471114  1  0  -0.058725  0  3.77985  0  0  -0.075731  0  4.034822  0  0  -0.077281  0  4.057661  0  0  -0.096123  -0.07461  0  4.019126  0
C  C74  1  0.40263521  0.17683832  0.49170370  1  0  -0.063293  0  3.778532  0  0  -0.076632  0  4.026919  0  0  -0.078893  0  4.049204  0  0  -0.092816  -0.074872  0  4.011401  0
C  C75  1  0.59737453  0.82315658  0.50830028  1  0  -0.063409  0  3.778647  0  0  -0.076773  0  4.027047  0  0  -0.079034  0  4.049337  0  0  -0.092886  -0.075011  0  4.011522  0
C  C76  1  0.26960081  0.13075384  0.55048493  1  0  -0.115641  0  3.739826  0  0  -0.134092  0  3.989492  0  0  -0.136488  0  4.010369  0  0  -0.092897  -0.132426  0  3.975331  0
C  C77  1  0.73040458  0.86924309  0.44951804  1  0  -0.115545  0  3.739988  0  0  -0.134053  0  3.989606  0  0  -0.13645  0  4.010478  0  0  -0.092881  -0.132391  0  3.975429  0
C  C78  1  0.13205046  0.06593249  0.52664206  1  0  0.01612  0  3.764334  0  0  0.024754  0  3.9994  0  0  0.023919  0  4.024091  0  0  -0.0093  0.025408  0  3.982714  0
C  C79  1  0.86795251  0.93407056  0.47336012  1  0  0.016013  0  3.764423  0  0  0.024761  0  3.999325  0  0  0.023928  0  4.024013  0  0  -0.009267  0.025419  0  3.982634  0
C  C80  1  0.76772370  0.20713116  0.92228905  1  0  -0.115724  0  3.745308  0  0  -0.132472  0  3.990951  0  0  -0.135787  0  4.013922  0  0  -0.094093  -0.130261  0  3.976083  0
C  C81  1  0.23227267  0.79287181  0.07770872  1  0  -0.115757  0  3.745463  0  0  -0.132505  0  3.991124  0  0  -0.135821  0  4.014097  0  0  -0.094138  -0.130288  0  3.976255  0
C  C82  1  0.88442861  0.10560066  0.96265306  1  0  0.017538  0  3.764983  0  0  0.025721  0  3.998851  0  0  0.025123  0  4.023773  0  0  -0.007037  0.026121  0  3.981982  0
C  C83  1  0.11556848  0.89439826  0.03734675  1  0  0.017458  0  3.765161  0  0  0.025646  0  3.999011  0  0  0.025048  0  4.023932  0  0  -0.00705  0.026045  0  3.982146  0
C  C84  1  0.88322930  0.96338303  0.94840039  1  0  0.019688  0  3.762184  0  0  0.028463  0  3.997339  0  0  0.02776  0  4.022268  0  0  -0.007468  0.028978  0  3.980345  0
C  C85  1  0.11676474  0.03661797  0.05160076  1  0  0.019787  0  3.762227  0  0  0.02856  0  3.997408  0  0  0.027858  0  4.022335  0  0  -0.007477  0.029076  0  3.98041  0
C  C86  1  0.76412844  0.93208289  0.89568373  1  0  -0.10037  0  3.71726  0  0  -0.123006  0  3.968006  0  0  -0.12473  0  3.988383  0  0  -0.090158  -0.121691  0  3.954559  0
C  C87  1  0.23586122  0.06792019  0.10431888  1  0  -0.100541  0  3.717469  0  0  -0.123266  0  3.968212  0  0  -0.124996  0  3.988591  0  0  -0.09021  -0.121952  0  3.954766  0
C  C88  1  0.65358819  0.03339560  0.85898050  1  0  -0.074638  0  3.795451  0  0  -0.08562  0  4.041206  0  0  -0.087166  0  4.061631  0  0  -0.095616  -0.084571  0  4.027343  0
C  C89  1  0.34640568  0.96660639  0.14101937  1  0  -0.074512  0  3.795296  0  0  -0.085496  0  4.041083  0  0  -0.087042  0  4.061509  0  0  -0.095593  -0.084445  0  4.027213  0
C  C90  1  0.65586468  0.17258536  0.87203532  1  0  -0.061164  0  3.779204  0  0  -0.074537  0  4.024196  0  0  -0.076311  0  4.046203  0  0  -0.095023  -0.073305  0  4.009268  0
C  C91  1  0.34413589  0.82741655  0.12796096  1  0  -0.061026  0  3.779185  0  0  -0.074434  0  4.024159  0  0  -0.076207  0  4.046165  0  0  -0.094975  -0.073203  0  4.009219  0
C  C92  1  0.99944894  0.86028449  0.98552291  1  0  -0.010335  0  3.682774  0  0  -0.003827  0  3.931076  0  0  -0.005539  0  3.954567  0  0  -0.007749  -0.003128  0  3.915166  0
C  C93  1  0.00055044  0.13971645  0.01447598  1  0  -0.010329  0  3.682772  0  0  -0.003847  0  3.931094  0  0  -0.005558  0  3.954587  0  0  -0.007753  -0.003162  0  3.915179  0
C  C94  1  0.00132723  0.71296958  0.96840863  1  0  -0.04825  0  3.63767  0  0  -0.114656  0  3.885299  0  0  -0.110353  0  3.895197  0  0  -0.054732  -0.116815  0  3.877862  0
C  C95  1  0.99866765  0.28703437  0.03158736  1  0  -0.048364  0  3.637636  0  0  -0.114748  0  3.88522  0  0  -0.110453  0  3.895124  0  0  -0.054732  -0.116902  0  3.877774  0
C  C96  1  0.85136562  0.61530869  0.10755855  1  0  0.18493  0  3.60219  0  0  0.119145  0  3.867892  0  0  0.134938  0  3.877973  0  0  0.146315  0.109756  0  3.8599  0
C  C97  1  0.14863186  0.38468814  0.89243950  1  0  0.184912  0  3.602202  0  0  0.119083  0  3.867958  0  0  0.134875  0  3.878042  0  0  0.146269  0.109694  0  3.859974  0
C  C98  1  0.62545499  0.54221088  0.06706173  1  0  -0.023614  0  3.779402  0  0  -0.056804  0  4.041526  0  0  -0.05537  0  4.062179  0  0  -0.01224  -0.057261  0  4.027617  0
C  C99  1  0.37454174  0.45779006  0.93293675  1  0  -0.02362  0  3.779507  0  0  -0.056815  0  4.041615  0  0  -0.05538  0  4.062269  0  0  -0.012291  -0.057269  0  4.027701  0
C  C100  1  0.71836791  0.60272979  0.99754387  1  0  -0.074083  0  3.678372  0  0  -0.116034  0  3.942228  0  0  -0.11506  0  3.9595  0  0  -0.003854  -0.116692  0  3.930998  0
C  C101  1  0.28162865  0.39727215  0.00245333  1  0  -0.074141  0  3.67834  0  0  -0.116068  0  3.94222  0  0  -0.115096  0  3.959494  0  0  -0.003811  -0.116723  0  3.930987  0
N  N102  1  0.40432731  0.50840817  0.32913087  1  0  -0.327606  0  3.315577  0  0  -0.249925  0  3.585259  0  0  -0.265857  0  3.598288  0  0  -0.318224  -0.239137  0  3.576609  0
N  N103  1  0.59567243  0.49159075  0.67086934  1  0  -0.327628  0  3.315694  0  0  -0.24995  0  3.585408  0  0  -0.265881  0  3.598432  0  0  -0.318222  -0.23917  0  3.576769  0
N  N104  1  0.75264790  0.24410851  0.24114701  1  0  -0.369487  0  3.296828  0  0  -0.283773  0  3.584143  0  0  -0.303406  0  3.597173  0  0  -0.358266  -0.27054  0  3.57521  0
N  N105  1  0.24735070  0.75588939  0.75885274  1  0  -0.369419  0  3.296791  0  0  -0.283702  0  3.584102  0  0  -0.303329  0  3.597122  0  0  -0.358252  -0.27047  0  3.575169  0
N  N106  1  0.90117924  0.04742020  0.27981522  1  0  -0.052008  0  3.561708  0  0  0.044597  0  3.777417  0  0  0.029342  0  3.804612  0  0  -0.238172  0.054684  0  3.758684  0
N  N107  1  0.09882429  0.95257977  0.72018648  1  0  -0.051888  0  3.561475  0  0  0.044698  0  3.77717  0  0  0.029445  0  3.804362  0  0  -0.238234  0.054784  0  3.758448  0
N  N108  1  0.70907332  0.55056218  0.13549903  1  0  -0.382671  0  3.293279  0  0  -0.297831  0  3.589618  0  0  -0.31817  0  3.600964  0  0  -0.35931  -0.284214  0  3.58114  0
N  N109  1  0.29092512  0.44943669  0.86449883  1  0  -0.382589  0  3.293273  0  0  -0.297731  0  3.589597  0  0  -0.318072  0  3.600949  0  0  -0.359254  -0.284118  0  3.581126  0
N  N110  1  0.86111868  0.64737454  0.02413825  1  0  -0.051434  0  3.54002  0  0  0.045287  0  3.75636  0  0  0.030229  0  3.782567  0  0  -0.239136  0.054995  0  3.737748  0
N  N111  1  0.13888110  0.35262431  0.97585826  1  0  -0.051403  0  3.539983  0  0  0.045333  0  3.756285  0  0  0.030279  0  3.78249  0  0  -0.239119  0.055041  0  3.73768  0
O  O112  1  0.86111649  0.68250863  0.28061797  1  0  -0.61737  0  1.925497  0  0  -0.575566  0  2.155848  0  0  -0.600059  0  2.146385  0  0  -0.319271  -0.558169  0  2.161872  0
O  O113  1  0.13890194  0.31749015  0.71937647  1  0  -0.617414  0  1.925364  0  0  -0.575611  0  2.15576  0  0  -0.600101  0  2.146299  0  0  -0.319359  -0.55819  0  2.161755  0
O  O114  1  0.80862401  0.47081235  0.33322624  1  0  -0.655361  0  2.036502  0  0  -0.587416  0  2.302267  0  0  -0.616042  0  2.288111  0  0  -0.326777  -0.567189  0  2.311272  0
O  O115  1  0.19137177  0.52919377  0.66677509  1  0  -0.655371  0  2.036509  0  0  -0.587407  0  2.302301  0  0  -0.616043  0  2.288163  0  0  -0.32675  -0.567154  0  2.311258  0
O  O116  1  0.11631702  0.41993294  0.19735401  1  0  -0.592362  0  1.954073  0  0  -0.553782  0  2.189474  0  0  -0.576796  0  2.183432  0  0  -0.315115  -0.537549  0  2.193041  0
O  O117  1  0.88368157  0.58006497  0.80264635  1  0  -0.592356  0  1.954073  0  0  -0.553756  0  2.189442  0  0  -0.57677  0  2.183406  0  0  -0.315104  -0.537531  0  2.19302  0
O  O118  1  0.41783261  0.37806802  0.19071726  1  0  -0.63406  0  2.039187  0  0  -0.569723  0  2.286581  0  0  -0.594927  0  2.275442  0  0  -0.325402  -0.552058  0  2.293689  0
O  O119  1  0.58216562  0.62193192  0.80928240  1  0  -0.634072  0  2.039175  0  0  -0.569722  0  2.286553  0  0  -0.594926  0  2.275414  0  0  -0.3254  -0.552059  0  2.293666  0
