# generated using pymatgen
data_CdH8C12S2(N2Cl)2
_symmetry_space_group_name_H-M   'P 1'
_cell_length_a   8.61217652
_cell_length_b   11.43073106
_cell_length_c   18.11430894
_cell_angle_alpha   77.89196417
_cell_angle_beta   76.58801566
_cell_angle_gamma   67.91612012
_symmetry_Int_Tables_number   1
_chemical_formula_structural   CdH8C12S2(N2Cl)2
_chemical_formula_sum   'Cd4 H32 C48 S8 N16 Cl8'
_cell_volume   1592.41642176
_cell_formula_units_Z   4
loop_
 _symmetry_equiv_pos_site_id
 _symmetry_equiv_pos_as_xyz
  1  'x, y, z'
loop_
 _atom_site_type_symbol
 _atom_site_label
 _atom_site_symmetry_multiplicity
 _atom_site_fract_x
 _atom_site_fract_y
 _atom_site_fract_z
 _atom_site_occupancy
 _atom_site_hle17_bader_spin_density
 _atom_site_hle17_ddec_charge
 _atom_site_hle17_ddec_spin_density
 _atom_site_hle17_ddec_sum_bond_order
 _atom_site_hle17_magmom
 _atom_site_hse06_10hf_bader_spin_density
 _atom_site_hse06_10hf_ddec_charge
 _atom_site_hse06_10hf_ddec_spin_density
 _atom_site_hse06_10hf_ddec_sum_bond_order
 _atom_site_hse06_10hf_magmom
 _atom_site_hse06_bader_spin_density
 _atom_site_hse06_ddec_charge
 _atom_site_hse06_ddec_spin_density
 _atom_site_hse06_ddec_sum_bond_order
 _atom_site_hse06_magmom
 _atom_site_pbe_bader_charge
 _atom_site_pbe_bader_spin_density
 _atom_site_pbe_cm5_charge
 _atom_site_pbe_ddec_charge
 _atom_site_pbe_ddec_spin_density
 _atom_site_pbe_ddec_sum_bond_order
 _atom_site_pbe_magmom
Cd  Cd0  1  0.99999693  0.99999882  0.50000370  1  0  0.946323  0  2.028222  0  0  0.770019  0  2.496849  0  0  0.814029  0  2.460561  0  1.177306  0  0.715408  0.739396  0  2.521173  0
Cd  Cd1  1  0.50000050  0.50000132  0.00000022  1  0  0.947051  0  2.027124  0  0  0.770571  0  2.496166  0  0  0.814651  0  2.459759  0  1.174555  0  0.715633  0.739676  0  2.520289  0
Cd  Cd2  1  0.96130812  0.25019744  0.74994076  1  0  0.947464  0  2.003799  0  0  0.771988  0  2.465779  0  0  0.816123  0  2.429725  0  1.167128  0  0.713075  0.741084  0  2.490574  0
Cd  Cd3  1  0.03868962  0.74980233  0.25006113  1  0  0.947502  0  2.003822  0  0  0.77203  0  2.465811  0  0  0.816167  0  2.429755  0  1.167212  0  0.713079  0.741127  0  2.490605  0
H  H4  1  0.71881515  0.21845760  0.60403490  1  0  0.083936  0  0.944554  0  0  0.092654  0  1.008145  0  0  0.094034  0  1.00758  0  0.108092  0  0.112557  0.091624  0  1.008616  0
H  H5  1  0.45988251  0.71911169  0.10366490  1  0  0.084177  0  0.942963  0  0  0.093102  0  1.00628  0  0  0.094496  0  1.005655  0  0.122422  0  0.112839  0.092064  0  1.006775  0
H  H6  1  0.28117941  0.78154217  0.39596658  1  0  0.083902  0  0.944575  0  0  0.092637  0  1.008155  0  0  0.094017  0  1.007591  0  0.107876  0  0.11255  0.091607  0  1.008628  0
H  H7  1  0.54012189  0.28088999  0.89633408  1  0  0.084272  0  0.94294  0  0  0.093136  0  1.006329  0  0  0.094531  0  1.0057  0  0.122332  0  0.112886  0.092103  0  1.006826  0
H  H8  1  0.44585005  0.40143791  0.59807531  1  0  0.124829  0  0.940844  0  0  0.134492  0  1.000123  0  0  0.137729  0  0.999608  0  0.107558  0  0.106888  0.1322  0  1.000617  0
H  H9  1  0.55536325  0.90248937  0.09768498  1  0  0.125131  0  0.941072  0  0  0.134452  0  1.000717  0  0  0.137669  0  1.000236  0  0.107248  0  0.107122  0.132268  0  1.000983  0
H  H10  1  0.55414594  0.59856472  0.40192317  1  0  0.124863  0  0.940845  0  0  0.134503  0  1.000144  0  0  0.13774  0  0.999628  0  0.107532  0  0.106885  0.132209  0  1.00064  0
H  H11  1  0.44464170  0.09751231  0.90231345  1  0  0.125204  0  0.941044  0  0  0.13453  0  1.000682  0  0  0.137736  0  1.000248  0  0.107193  0  0.107146  0.132345  0  1.000947  0
H  H12  1  0.42562359  0.29287236  0.38651035  1  0  0.121846  0  0.962532  0  0  0.124838  0  1.033288  0  0  0.128789  0  1.031337  0  0.104522  0  0.099494  0.121832  0  1.03518  0
H  H13  1  0.89359866  0.79249630  0.88707497  1  0  0.121691  0  0.960483  0  0  0.124751  0  1.031438  0  0  0.128785  0  1.029387  0  0.104987  0  0.099549  0.121748  0  1.033377  0
H  H14  1  0.57438067  0.70712741  0.61348741  1  0  0.121741  0  0.962546  0  0  0.124744  0  1.033305  0  0  0.128694  0  1.031355  0  0.104464  0  0.099457  0.121739  0  1.035195  0
H  H15  1  0.10640278  0.20750728  0.11292234  1  0  0.121742  0  0.960514  0  0  0.124748  0  1.031512  0  0  0.128775  0  1.02947  0  0.105001  0  0.099547  0.121745  0  1.03345  0
H  H16  1  0.69907870  0.11166835  0.40233055  1  0  0.081089  0  0.94752  0  0  0.085838  0  1.017185  0  0  0.088173  0  1.015186  0  0.091647  0  0.10956  0.0842  0  1.018511  0
H  H17  1  0.78612727  0.61098926  0.90289666  1  0  0.081458  0  0.947174  0  0  0.086352  0  1.016688  0  0  0.088701  0  1.014669  0  0.092745  0  0.110043  0.0849  0  1.017606  0
H  H18  1  0.30092485  0.88833047  0.59766962  1  0  0.081145  0  0.947439  0  0  0.085891  0  1.017105  0  0  0.088224  0  1.015105  0  0.091712  0  0.109578  0.084255  0  1.018427  0
H  H19  1  0.21387363  0.38901432  0.09710120  1  0  0.081384  0  0.947154  0  0  0.086292  0  1.016663  0  0  0.088639  0  1.014645  0  0.092586  0  0.110031  0.084837  0  1.017589  0
H  H20  1  0.16352316  0.00235473  0.86116933  1  0  0.07904  0  0.96018  0  0  0.078283  0  1.040282  0  0  0.081378  0  1.037059  0  0.131492  0  0.104634  0.076141  0  1.042448  0
H  H21  1  0.97353724  0.50283157  0.36165064  1  0  0.079124  0  0.960323  0  0  0.078392  0  1.040781  0  0  0.081475  0  1.037581  0  0.120841  0  0.104612  0.076118  0  1.043145  0
H  H22  1  0.83647403  0.99763837  0.13882953  1  0  0.079017  0  0.96005  0  0  0.078273  0  1.040128  0  0  0.081368  0  1.036906  0  0.131432  0  0.104618  0.076131  0  1.042293  0
H  H23  1  0.02646529  0.49716725  0.63834816  1  0  0.079114  0  0.960332  0  0  0.078385  0  1.040775  0  0  0.081468  0  1.037575  0  0.120845  0  0.104622  0.076111  0  1.043138  0
H  H24  1  0.43844478  0.81972489  0.86205413  1  0  0.127389  0  0.955206  0  0  0.132326  0  1.023602  0  0  0.135631  0  1.022834  0  0.121247  0  0.10239  0.129965  0  1.0243  0
H  H25  1  0.88013354  0.32013620  0.36240632  1  0  0.128179  0  0.957037  0  0  0.133077  0  1.025238  0  0  0.136378  0  1.024467  0  0.119109  0  0.102491  0.130609  0  1.026055  0
H  H26  1  0.56155384  0.18027203  0.13794483  1  0  0.127335  0  0.955177  0  0  0.132264  0  1.023585  0  0  0.13557  0  1.022819  0  0.121211  0  0.102393  0.129894  0  1.024306  0
H  H27  1  0.11987049  0.67986167  0.63759269  1  0  0.128172  0  0.956968  0  0  0.133061  0  1.025179  0  0  0.13636  0  1.02441  0  0.119115  0  0.102492  0.130593  0  1.025996  0
H  H28  1  0.61441235  0.98681860  0.63568563  1  0  0.126045  0  0.95276  0  0  0.133914  0  1.015669  0  0  0.136833  0  1.01548  0  0.112248  0  0.10507  0.131808  0  1.015975  0
H  H29  1  0.76273728  0.48568137  0.13519448  1  0  0.125551  0  0.954775  0  0  0.132884  0  1.01862  0  0  0.135837  0  1.018453  0  0.113134  0  0.104524  0.13074  0  1.018974  0
H  H30  1  0.38558546  0.01318118  0.36431378  1  0  0.126059  0  0.952732  0  0  0.133908  0  1.015668  0  0  0.136826  0  1.015479  0  0.112351  0  0.10506  0.13181  0  1.015959  0
H  H31  1  0.23726832  0.51431650  0.86480536  1  0  0.125436  0  0.954798  0  0  0.132751  0  1.018687  0  0  0.135704  0  1.018519  0  0.112874  0  0.104493  0.130608  0  1.019039  0
H  H32  1  0.33194232  0.16371455  0.64527334  1  0  0.080046  0  0.95444  0  0  0.088175  0  1.017525  0  0  0.089715  0  1.01719  0  0.104269  0  0.111499  0.087028  0  1.017842  0
H  H33  1  0.85920896  0.66259901  0.14491421  1  0  0.080555  0  0.954584  0  0  0.089175  0  1.017299  0  0  0.090646  0  1.017032  0  0.108284  0  0.111967  0.088096  0  1.017494  0
H  H34  1  0.66805538  0.83628426  0.35472670  1  0  0.080094  0  0.954544  0  0  0.088198  0  1.017637  0  0  0.08974  0  1.017299  0  0.104268  0  0.111523  0.087051  0  1.017954  0
H  H35  1  0.14079551  0.33739790  0.85508488  1  0  0.080553  0  0.954628  0  0  0.089168  0  1.017345  0  0  0.090643  0  1.017071  0  0.108272  0  0.111966  0.088087  0  1.017546  0
C  C36  1  0.07247482  0.23491978  0.55621807  1  0  0.297422  0  4.021213  0  0  0.276227  0  4.32839  0  0  0.298363  0  4.341689  0  0.557417  0  0.137923  0.261177  0  4.318984  0
C  C37  1  0.13569416  0.73465046  0.05621517  1  0  0.29735  0  4.020152  0  0  0.276144  0  4.327191  0  0  0.298281  0  4.340562  0  0.584557  0  0.137576  0.261232  0  4.317744  0
C  C38  1  0.92751921  0.76508094  0.44378580  1  0  0.29736  0  4.021353  0  0  0.276166  0  4.328515  0  0  0.298301  0  4.341815  0  0.557249  0  0.137883  0.261116  0  4.319109  0
C  C39  1  0.86430665  0.26535313  0.94378516  1  0  0.297322  0  4.020369  0  0  0.276107  0  4.327416  0  0  0.298244  0  4.340788  0  0.584251  0  0.137571  0.261196  0  4.317966  0
C  C40  1  0.90895628  0.01600095  0.69081185  1  0  0.297535  0  4.037229  0  0  0.273814  0  4.349835  0  0  0.296419  0  4.363312  0  0.591967  0  0.138158  0.258482  0  4.340373  0
C  C41  1  0.38540484  0.51651304  0.19086801  1  0  0.299088  0  4.035006  0  0  0.275555  0  4.347176  0  0  0.298191  0  4.360569  0  0.582016  0  0.139087  0.260094  0  4.337911  0
C  C42  1  0.09102698  0.98400073  0.30919869  1  0  0.297567  0  4.037091  0  0  0.273845  0  4.3497  0  0  0.296449  0  4.363176  0  0.592029  0  0.138139  0.258513  0  4.34024  0
C  C43  1  0.61459751  0.48348959  0.80913130  1  0  0.298885  0  4.035069  0  0  0.275346  0  4.347261  0  0  0.297981  0  4.360657  0  0.582257  0  0.138998  0.259884  0  4.337993  0
C  C44  1  0.64941315  0.23691335  0.55710766  1  0  0.140651  0  3.709692  0  0  0.110408  0  3.964462  0  0  0.11802  0  3.982408  0  0.508549  0  0.043835  0.105452  0  3.95228  0
C  C45  1  0.55716257  0.73738542  0.05695541  1  0  0.139791  0  3.708936  0  0  0.109323  0  3.964001  0  0  0.116964  0  3.981873  0  0.519988  0  0.044101  0.104366  0  3.951826  0
C  C46  1  0.35058332  0.76308928  0.44289275  1  0  0.140677  0  3.709868  0  0  0.110428  0  3.964624  0  0  0.118037  0  3.982574  0  0.50899  0  0.043854  0.105471  0  3.952444  0
C  C47  1  0.44284417  0.26261817  0.94304259  1  0  0.139755  0  3.708754  0  0  0.109339  0  3.963833  0  0  0.116983  0  3.981699  0  0.518251  0  0.04404  0.104374  0  3.951666  0
C  C48  1  0.49734712  0.33908747  0.55375613  1  0  -0.189603  0  3.727737  0  0  -0.20978  0  3.979218  0  0  -0.217092  0  3.998438  0  0.000593  0  -0.094031  -0.205105  0  3.966425  0
C  C49  1  0.61012252  0.83977968  0.05357042  1  0  -0.188732  0  3.726701  0  0  -0.208732  0  3.978517  0  0  -0.215997  0  3.997674  0  -0.014563  0  -0.093738  -0.204005  0  3.965494  0
C  C50  1  0.50265191  0.66091325  0.44624155  1  0  -0.189637  0  3.72751  0  0  -0.209778  0  3.979013  0  0  -0.21709  0  3.998233  0  0.000426  0  -0.094013  -0.205105  0  3.966222  0
C  C51  1  0.38988433  0.16021914  0.94642645  1  0  -0.188788  0  3.726449  0  0  -0.20879  0  3.978267  0  0  -0.216073  0  3.99742  0  -0.014786  0  -0.093748  -0.20406  0  3.965244  0
C  C52  1  0.41563291  0.35979313  0.49155377  1  0  0.182695  0  3.788484  0  0  0.190348  0  4.051069  0  0  0.197879  0  4.070498  0  0.0442  0  0.030062  0.185194  0  4.03799  0
C  C53  1  0.73267783  0.86013846  0.99166420  1  0  0.182  0  3.787596  0  0  0.189779  0  4.050103  0  0  0.197289  0  4.069571  0  -0.016492  0  0.02999  0.184689  0  4.036967  0
C  C54  1  0.58436894  0.64020950  0.50844486  1  0  0.182735  0  3.788296  0  0  0.190337  0  4.050933  0  0  0.197867  0  4.070363  0  0.044067  0  0.030049  0.185186  0  4.037849  0
C  C55  1  0.26732625  0.13986513  0.00833407  1  0  0.181927  0  3.787668  0  0  0.189682  0  4.050203  0  0  0.197205  0  4.069651  0  -0.016317  0  0.030015  0.184593  0  4.037065  0
C  C56  1  0.48651346  0.27793585  0.43569890  1  0  -0.18416  0  3.741264  0  0  -0.204702  0  3.99444  0  0  -0.212153  0  4.014611  0  -0.018816  0  -0.094433  -0.199915  0  3.981184  0
C  C57  1  0.79906228  0.77778851  0.93606889  1  0  -0.181834  0  3.737544  0  0  -0.2025  0  3.990551  0  0  -0.209973  0  4.010695  0  0.074264  0  -0.093989  -0.197803  0  3.977475  0
C  C58  1  0.51348762  0.72206392  0.56429845  1  0  -0.184037  0  3.741324  0  0  -0.204569  0  3.994509  0  0  -0.212014  0  4.014667  0  -0.018558  0  -0.094403  -0.199782  0  3.981251  0
C  C59  1  0.20094184  0.22221508  0.06392814  1  0  -0.18193  0  3.737756  0  0  -0.202524  0  3.99076  0  0  -0.209996  0  4.010903  0  0.074197  0  -0.0941  -0.197827  0  3.977681  0
C  C60  1  0.63787823  0.17771527  0.44459853  1  0  0.140778  0  3.705118  0  0  0.111426  0  3.958366  0  0  0.11911  0  3.975263  0  0.551442  0  0.043056  0.106332  0  3.946916  0
C  C61  1  0.73934181  0.67741354  0.94497620  1  0  0.138283  0  3.707652  0  0  0.108678  0  3.961426  0  0  0.116334  0  3.978369  0  0.513066  0  0.042133  0.103768  0  3.949464  0
C  C62  1  0.36212320  0.82228355  0.55540137  1  0  0.140632  0  3.705082  0  0  0.111267  0  3.958338  0  0  0.118955  0  3.975233  0  0.551384  0  0.043003  0.106173  0  3.94689  0
C  C63  1  0.26066245  0.32258623  0.05502156  1  0  0.138525  0  3.707657  0  0  0.108908  0  3.961434  0  0  0.116564  0  3.978375  0  0.512947  0  0.042278  0.103998  0  3.949469  0
C  C64  1  0.26724386  0.99623563  0.81262681  1  0  0.135926  0  3.715434  0  0  0.105641  0  3.975112  0  0  0.113522  0  3.991415  0  0.469839  0  0.041739  0.100512  0  3.963871  0
C  C65  1  0.92429394  0.49631245  0.31290009  1  0  0.136965  0  3.715619  0  0  0.106396  0  3.975274  0  0  0.11428  0  3.991581  0  0.473892  0  0.041631  0.101284  0  3.964082  0
C  C66  1  0.73275136  0.00375938  0.18737299  1  0  0.135988  0  3.715269  0  0  0.105718  0  3.974979  0  0  0.113599  0  3.99128  0  0.469864  0  0.041807  0.100593  0  3.963733  0
C  C67  1  0.07571016  0.50368636  0.68709954  1  0  0.136953  0  3.715683  0  0  0.106411  0  3.975321  0  0  0.114297  0  3.991625  0  0.473698  0  0.041599  0.1013  0  3.964127  0
C  C68  1  0.42066719  0.89462279  0.81319350  1  0  -0.189675  0  3.726279  0  0  -0.209109  0  3.977797  0  0  -0.216526  0  3.997003  0  0.033698  0  -0.097188  -0.204405  0  3.965158  0
C  C69  1  0.87172168  0.39472915  0.31340716  1  0  -0.192025  0  3.728308  0  0  -0.211355  0  3.980198  0  0  -0.218759  0  3.999378  0  0.043262  0  -0.09733  -0.206372  0  3.967268  0
C  C70  1  0.57933120  0.10537222  0.18680672  1  0  -0.189598  0  3.726209  0  0  -0.209033  0  3.977772  0  0  -0.216453  0  3.996986  0  0.033793  0  -0.097178  -0.204331  0  3.965126  0
C  C71  1  0.12828290  0.60526871  0.68659131  1  0  -0.192066  0  3.728035  0  0  -0.211409  0  3.979995  0  0  -0.21881  0  3.999172  0  0.043651  0  -0.09734  -0.206427  0  3.967064  0
C  C72  1  0.54634768  0.89016680  0.74826341  1  0  0.180035  0  3.802487  0  0  0.185096  0  4.06837  0  0  0.1931  0  4.087469  0  0.009941  0  0.028565  0.179722  0  4.055776  0
C  C73  1  0.81508490  0.38990724  0.24821374  1  0  0.181385  0  3.802829  0  0  0.186006  0  4.068958  0  0  0.194027  0  4.08801  0  -0.003194  0  0.028365  0.180633  0  4.056035  0
C  C74  1  0.45365134  0.10982916  0.25173687  1  0  0.180048  0  3.802487  0  0  0.185113  0  4.068365  0  0  0.193115  0  4.087468  0  0.009894  0  0.028581  0.17974  0  4.05577  0
C  C75  1  0.18491921  0.61009158  0.75178589  1  0  0.181393  0  3.802685  0  0  0.185999  0  4.068828  0  0  0.194018  0  4.087878  0  -0.003415  0  0.028347  0.180626  0  4.055903  0
C  C76  1  0.51771337  0.98767625  0.68658311  1  0  -0.182782  0  3.720342  0  0  -0.201034  0  3.967327  0  0  -0.209261  0  3.988255  0  0.025002  0  -0.092899  -0.195834  0  3.953411  0
C  C77  1  0.80785236  0.48690686  0.18631728  1  0  -0.182874  0  3.720001  0  0  -0.200549  0  3.966846  0  0  -0.208863  0  3.987751  0  0.07969  0  -0.092769  -0.19536  0  3.953115  0
C  C78  1  0.48228339  0.01232352  0.31341616  1  0  -0.182803  0  3.720399  0  0  -0.20106  0  3.967379  0  0  -0.209288  0  3.988311  0  0.025289  0  -0.092896  -0.195864  0  3.953462  0
C  C79  1  0.19214867  0.51309291  0.81368131  1  0  -0.182694  0  3.720118  0  0  -0.200336  0  3.966932  0  0  -0.208654  0  3.987854  0  0.080027  0  -0.092732  -0.195145  0  3.953197  0
C  C80  1  0.36121115  0.08573292  0.69201551  1  0  0.145973  0  3.699221  0  0  0.119607  0  3.944767  0  0  0.127064  0  3.962759  0  0.489253  0  0.045682  0.114789  0  3.932495  0
C  C81  1  0.86112702  0.58495853  0.19180343  1  0  0.144347  0  3.698654  0  0  0.117621  0  3.944095  0  0  0.125119  0  3.962134  0  0.459222  0  0.044309  0.112704  0  3.931924  0
C  C82  1  0.63878582  0.91426400  0.30798509  1  0  0.145913  0  3.699264  0  0  0.119621  0  3.944741  0  0  0.127078  0  3.962734  0  0.488805  0  0.045708  0.114801  0  3.932476  0
C  C83  1  0.13887449  0.41504124  0.80819708  1  0  0.144269  0  3.698725  0  0  0.117559  0  3.944159  0  0  0.125056  0  3.962196  0  0.459151  0  0.044308  0.112639  0  3.931988  0
S  S84  1  0.12546415  0.19574981  0.47001088  1  0  -0.349287  0  2.197804  0  0  -0.322862  0  2.537007  0  0  -0.339313  0  2.530881  0  0.064524  0  -0.154854  -0.311021  0  2.540957  0
S  S85  1  0.20898763  0.69669645  0.96981381  1  0  -0.350374  0  2.19809  0  0  -0.323682  0  2.537548  0  0  -0.340252  0  2.531448  0  0.047004  0  -0.155143  -0.31225  0  2.541278  0
S  S86  1  0.87453273  0.80424711  0.52999221  1  0  -0.349277  0  2.197874  0  0  -0.322854  0  2.537083  0  0  -0.339302  0  2.530957  0  0.064444  0  -0.154878  -0.311012  0  2.541033  0
S  S87  1  0.79101358  0.30330618  0.03018784  1  0  -0.350381  0  2.198001  0  0  -0.32366  0  2.537401  0  0  -0.34023  0  2.531301  0  0.046962  0  -0.155147  -0.312226  0  2.54113  0
S  S88  1  0.82254892  0.06280308  0.77446492  1  0  -0.353328  0  2.174999  0  0  -0.326218  0  2.505011  0  0  -0.343549  0  2.500234  0  0.054252  0  -0.159806  -0.313951  0  2.508292  0
S  S89  1  0.34096676  0.56268147  0.27484835  1  0  -0.354135  0  2.174987  0  0  -0.327245  0  2.505235  0  0  -0.34457  0  2.500439  0  0.054618  0  -0.159797  -0.314761  0  2.508597  0
S  S90  1  0.17744250  0.93719955  0.22554293  1  0  -0.35343  0  2.174717  0  0  -0.326321  0  2.504706  0  0  -0.343656  0  2.499927  0  0.054266  0  -0.159878  -0.314055  0  2.507989  0
S  S91  1  0.65903789  0.43732307  0.72515122  1  0  -0.354021  0  2.175063  0  0  -0.327113  0  2.505289  0  0  -0.344436  0  2.500495  0  0.054304  0  -0.15974  -0.314643  0  2.50868  0
N  N92  1  0.03414478  0.26698648  0.61789899  1  0  -0.540262  0  2.893914  0  0  -0.485309  0  3.174156  0  0  -0.506067  0  3.180823  0  -1.288541  0  -0.397547  -0.471073  0  3.169484  0
N  N93  1  0.07929110  0.76595003  0.11799855  1  0  -0.539067  0  2.891374  0  0  -0.484072  0  3.171279  0  0  -0.504796  0  3.177879  0  -1.297847  0  -0.39707  -0.470109  0  3.166744  0
N  N94  1  0.96584842  0.73301615  0.38210349  1  0  -0.540223  0  2.893981  0  0  -0.485259  0  3.174204  0  0  -0.506019  0  3.180873  0  -1.2884  0  -0.397484  -0.471024  0  3.169532  0
N  N95  1  0.92070974  0.23405450  0.88200363  1  0  -0.539003  0  2.891655  0  0  -0.484005  0  3.171559  0  0  -0.504729  0  3.178162  0  -1.297498  0  -0.397027  -0.470042  0  3.167021  0
N  N96  1  0.97391976  0.98071687  0.63044559  1  0  -0.545646  0  2.901473  0  0  -0.490071  0  3.185147  0  0  -0.511321  0  3.191574  0  -1.309275  0  -0.402059  -0.475544  0  3.180555  0
N  N97  1  0.41650387  0.48153509  0.13029379  1  0  -0.546958  0  2.900908  0  0  -0.491567  0  3.185182  0  0  -0.512835  0  3.191457  0  -1.300352  0  -0.402948  -0.476859  0  3.180522  0
N  N98  1  0.02606398  0.01928386  0.36956379  1  0  -0.545547  0  2.901629  0  0  -0.489977  0  3.185323  0  0  -0.511227  0  3.191752  0  -1.309451  0  -0.401963  -0.475452  0  3.180731  0
N  N99  1  0.58349577  0.51846754  0.86970703  1  0  -0.54686  0  2.900841  0  0  -0.491452  0  3.185102  0  0  -0.512719  0  3.191378  0  -1.300278  0  -0.402903  -0.476744  0  3.18044  0
N  N100  1  0.71890352  0.15732027  0.50380510  1  0  -0.339419  0  3.25902  0  0  -0.265762  0  3.520403  0  0  -0.284856  0  3.540179  0  -1.242996  0  -0.332338  -0.252739  0  3.506718  0
N  N101  1  0.62026954  0.65727108  0.00392755  1  0  -0.338808  0  3.261421  0  0  -0.264999  0  3.52298  0  0  -0.284057  0  3.542741  0  -1.244787  0  -0.332219  -0.251866  0  3.509053  0
N  N102  1  0.28109258  0.84267854  0.49619535  1  0  -0.339359  0  3.259152  0  0  -0.26571  0  3.520556  0  0  -0.284804  0  3.54033  0  -1.243054  0  -0.332318  -0.252689  0  3.506872  0
N  N103  1  0.37973541  0.34273059  0.99607088  1  0  -0.338974  0  3.261432  0  0  -0.265176  0  3.523005  0  0  -0.284235  0  3.542766  0  -1.242616  0  -0.332267  -0.252042  0  3.509077  0
N  N104  1  0.23723362  0.08992208  0.75328508  1  0  -0.324408  0  3.240128  0  0  -0.25249  0  3.499949  0  0  -0.271239  0  3.519139  0  -1.231513  0  -0.331868  -0.239655  0  3.486648  0
N  N105  1  0.91989499  0.58954221  0.25335346  1  0  -0.324399  0  3.243259  0  0  -0.252422  0  3.503561  0  0  -0.271204  0  3.522756  0  -1.249292  0  -0.331856  -0.239619  0  3.490387  0
N  N106  1  0.76276288  0.91007484  0.24671360  1  0  -0.32449  0  3.239988  0  0  -0.252635  0  3.499848  0  0  -0.271385  0  3.51904  0  -1.231461  0  -0.332009  -0.239801  0  3.486548  0
N  N107  1  0.08010959  0.41045565  0.74664500  1  0  -0.324323  0  3.243205  0  0  -0.252384  0  3.503541  0  0  -0.271165  0  3.522735  0  -1.249272  0  -0.331834  -0.239579  0  3.490365  0
Cl  Cl108  1  0.22953642  0.48558226  0.48283959  1  0  -0.047658  0  1.438827  0  0  -0.026537  0  1.688091  0  0  -0.032904  0  1.686102  0  -0.17753  0  0.040183  -0.021843  0  1.689582  0
Cl  Cl109  1  0.80145996  0.98604766  0.98302092  1  0  -0.047812  0  1.439634  0  0  -0.026893  0  1.688967  0  0  -0.033267  0  1.686999  0  -0.180099  0  0.040571  -0.02222  0  1.690078  0
Cl  Cl110  1  0.77046528  0.51441846  0.51715781  1  0  -0.047685  0  1.438753  0  0  -0.026538  0  1.688024  0  0  -0.032909  0  1.686039  0  -0.177573  0  0.040184  -0.021843  0  1.689514  0
Cl  Cl111  1  0.19854200  0.01395592  0.01697708  1  0  -0.047779  0  1.439666  0  0  -0.026846  0  1.688997  0  0  -0.033224  0  1.687027  0  -0.180019  0  0.040565  -0.022175  0  1.690107  0
Cl  Cl112  1  0.73517277  0.76411942  0.74252310  1  0  -0.045255  0  1.415761  0  0  -0.019306  0  1.657827  0  0  -0.025662  0  1.656087  0  -0.185146  0  0.041686  -0.014919  0  1.659814  0
Cl  Cl113  1  0.75768307  0.26389416  0.24244471  1  0  -0.045987  0  1.420326  0  0  -0.019899  0  1.663374  0  0  -0.026202  0  1.661557  0  -0.18465  0  0.041394  -0.015192  0  1.664761  0
Cl  Cl114  1  0.26482709  0.23587940  0.25747598  1  0  -0.045245  0  1.415735  0  0  -0.0193  0  1.6578  0  0  -0.02565  0  1.656047  0  -0.185122  0  0.041683  -0.014912  0  1.659783  0
Cl  Cl115  1  0.24232406  0.73610275  0.75755411  1  0  -0.04599  0  1.420314  0  0  -0.019892  0  1.663374  0  0  -0.026197  0  1.661564  0  -0.184654  0  0.041404  -0.015183  0  1.664758  0
