# generated using pymatgen
data_HoH31C27O14
_symmetry_space_group_name_H-M   'P 1'
_cell_length_a   9.13420121
_cell_length_b   12.67188005
_cell_length_c   13.02770121
_cell_angle_alpha   94.04600485
_cell_angle_beta   93.66382093
_cell_angle_gamma   92.70150036
_symmetry_Int_Tables_number   1
_chemical_formula_structural   HoH31C27O14
_chemical_formula_sum   'Ho2 H62 C54 O28'
_cell_volume   1499.07023750
_cell_formula_units_Z   2
loop_
 _symmetry_equiv_pos_site_id
 _symmetry_equiv_pos_as_xyz
  1  'x, y, z'
loop_
 _atom_site_type_symbol
 _atom_site_label
 _atom_site_symmetry_multiplicity
 _atom_site_fract_x
 _atom_site_fract_y
 _atom_site_fract_z
 _atom_site_occupancy
 _atom_site_hle17_bader_spin_density
 _atom_site_hle17_ddec_charge
 _atom_site_hle17_ddec_spin_density
 _atom_site_hle17_ddec_sum_bond_order
 _atom_site_hle17_magmom
 _atom_site_hse06_10hf_bader_spin_density
 _atom_site_hse06_10hf_ddec_charge
 _atom_site_hse06_10hf_ddec_spin_density
 _atom_site_hse06_10hf_ddec_sum_bond_order
 _atom_site_hse06_10hf_magmom
 _atom_site_hse06_bader_spin_density
 _atom_site_hse06_ddec_charge
 _atom_site_hse06_ddec_spin_density
 _atom_site_hse06_ddec_sum_bond_order
 _atom_site_hse06_magmom
 _atom_site_pbe_bader_spin_density
 _atom_site_pbe_cm5_charge
 _atom_site_pbe_ddec_charge
 _atom_site_pbe_ddec_spin_density
 _atom_site_pbe_ddec_sum_bond_order
 _atom_site_pbe_magmom
Ho  Ho0  1  0.74756920  0.48890649  0.48664633  1  0  2.273541  0  1.607006  0  0  2.129749  0  2.076024  0  0  2.260289  0  1.882162  0  0  1.515007  2.092915  0  2.107921  0
Ho  Ho1  1  0.25244150  0.51109945  0.51335707  1  0  2.273618  0  1.607126  0  0  2.129865  0  2.076045  0  0  2.260341  0  1.882285  0  0  1.515068  2.093006  0  2.107978  0
H  H2  1  0.64561152  0.28374020  0.43075514  1  0  0.433971  0  0.825574  0  0  0.416097  0  0.88047  0  0  0.424936  0  0.870644  0  0  0.319734  0.409378  0  0.888625  0
H  H3  1  0.35438410  0.71626881  0.56924077  1  0  0.434013  0  0.825656  0  0  0.416121  0  0.88056  0  0  0.424958  0  0.870635  0  0  0.319756  0.409402  0  0.888714  0
H  H4  1  0.49523854  0.33914630  0.40543466  1  0  0.437847  0  0.866308  0  0  0.406044  0  0.931479  0  0  0.41694  0  0.915906  0  0  0.29827  0.397922  0  0.943366  0
H  H5  1  0.50474811  0.66086120  0.59456916  1  0  0.437934  0  0.866181  0  0  0.406085  0  0.931415  0  0  0.416978  0  0.915849  0  0  0.298261  0.397963  0  0.943304  0
H  H6  1  0.80843307  0.46485225  0.28217932  1  0  0.434861  0  0.822062  0  0  0.418266  0  0.874003  0  0  0.427091  0  0.863083  0  0  0.323095  0.411594  0  0.882021  0
H  H7  1  0.19156569  0.53515606  0.71782592  1  0  0.434874  0  0.821983  0  0  0.418281  0  0.873918  0  0  0.427105  0  0.86305  0  0  0.323099  0.411609  0  0.881937  0
H  H8  1  0.96722449  0.43721458  0.32961494  1  0  0.438078  0  0.866178  0  0  0.405069  0  0.933648  0  0  0.416003  0  0.918066  0  0  0.300224  0.396949  0  0.945491  0
H  H9  1  0.03277496  0.56278737  0.67038766  1  0  0.438025  0  0.866217  0  0  0.405027  0  0.933678  0  0  0.415961  0  0.918096  0  0  0.300198  0.396908  0  0.945522  0
H  H10  1  0.22832410  0.59163743  0.27226556  1  0  0.123973  0  0.995957  0  0  0.128128  0  1.068207  0  0  0.131424  0  1.066611  0  0  0.109739  0.125412  0  1.070429  0
H  H11  1  0.77167809  0.40835322  0.72771580  1  0  0.123895  0  0.995988  0  0  0.128062  0  1.068238  0  0  0.131355  0  1.066641  0  0  0.109711  0.125347  0  1.070461  0
H  H12  1  0.55772971  0.80152740  0.06447692  1  0  0.108652  0  0.968928  0  0  0.118716  0  1.029964  0  0  0.122119  0  1.028708  0  0  0.10243  0.115986  0  1.031335  0
H  H13  1  0.44228401  0.19847203  0.93551013  1  0  0.108663  0  0.969338  0  0  0.11874  0  1.030312  0  0  0.122127  0  1.029074  0  0  0.102423  0.11601  0  1.031683  0
H  H14  1  0.66156640  0.70709794  0.21184573  1  0  0.095441  0  0.955972  0  0  0.103375  0  1.023702  0  0  0.106845  0  1.020943  0  0  0.098197  0.100784  0  1.026133  0
H  H15  1  0.33842044  0.29291106  0.78815128  1  0  0.095481  0  0.955841  0  0  0.103365  0  1.023627  0  0  0.106832  0  1.020874  0  0  0.098198  0.100777  0  1.026056  0
H  H16  1  0.03125356  0.53761996  0.16474954  1  0  0.081578  0  0.957648  0  0  0.098101  0  1.024476  0  0  0.098872  0  1.02312  0  0  0.097948  0.097099  0  1.025917  0
H  H17  1  0.96874452  0.46237718  0.83524734  1  0  0.081546  0  0.957556  0  0  0.098085  0  1.024399  0  0  0.098858  0  1.023038  0  0  0.09796  0.09708  0  1.025848  0
H  H18  1  0.88851884  0.61989177  0.12120796  1  0  0.09394  0  0.924004  0  0  0.113685  0  0.983001  0  0  0.114312  0  0.982499  0  0  0.106965  0.112815  0  0.984056  0
H  H19  1  0.11148539  0.38009734  0.87877802  1  0  0.09368  0  0.924072  0  0  0.113472  0  0.983052  0  0  0.114097  0  0.98255  0  0  0.106899  0.1126  0  0.984117  0
H  H20  1  0.98789814  0.65233105  0.24364924  1  0  0.087808  0  0.955642  0  0  0.104012  0  1.022937  0  0  0.104017  0  1.023465  0  0  0.100074  0.104268  0  1.021771  0
H  H21  1  0.01211567  0.34766830  0.75632937  1  0  0.087593  0  0.955537  0  0  0.103925  0  1.022708  0  0  0.103933  0  1.023229  0  0  0.100076  0.104178  0  1.02155  0
H  H22  1  0.40976156  0.92330450  0.98575670  1  0  0.091781  0  0.956714  0  0  0.09968  0  1.037726  0  0  0.101879  0  1.034823  0  0  0.09825  0.098054  0  1.039834  0
H  H23  1  0.59023523  0.07668860  0.01423220  1  0  0.091866  0  0.956476  0  0  0.099742  0  1.037487  0  0  0.101938  0  1.034601  0  0  0.098239  0.098113  0  1.0396  0
H  H24  1  0.28228722  0.87996617  0.87939949  1  0  0.094176  0  0.935783  0  0  0.11511  0  0.994059  0  0  0.115431  0  0.994219  0  0  0.105774  0.114882  0  0.993897  0
H  H25  1  0.71773210  0.12003485  0.12058716  1  0  0.094087  0  0.935895  0  0  0.115021  0  0.994177  0  0  0.115346  0  0.994332  0  0  0.105725  0.114792  0  0.994021  0
H  H26  1  0.43945634  0.80443636  0.90637463  1  0  0.07996  0  0.941643  0  0  0.096806  0  1.006631  0  0  0.096404  0  1.007377  0  0  0.09632  0.097106  0  1.006074  0
H  H27  1  0.56055902  0.19557184  0.09361839  1  0  0.079951  0  0.941717  0  0  0.096832  0  1.006643  0  0  0.09642  0  1.007405  0  0  0.096394  0.097141  0  1.006076  0
H  H28  1  0.62638438  0.81241301  0.68804876  1  0  0.103617  0  0.993858  0  0  0.112006  0  1.063879  0  0  0.115792  0  1.060385  0  0  0.103397  0.109424  0  1.066144  0
H  H29  1  0.37361008  0.18759522  0.31194858  1  0  0.103565  0  0.993946  0  0  0.112  0  1.063912  0  0  0.115785  0  1.060417  0  0  0.10337  0.10942  0  1.066172  0
H  H30  1  0.96925110  0.75506257  0.98843042  1  0  0.120778  0  1.01071  0  0  0.119012  0  1.090125  0  0  0.124016  0  1.086332  0  0  0.105525  0.115483  0  1.09289  0
H  H31  1  0.03074271  0.24493615  0.01156634  1  0  0.120746  0  1.010697  0  0  0.119001  0  1.090095  0  0  0.124014  0  1.086284  0  0  0.105514  0.115466  0  1.092867  0
H  H32  1  0.94524275  0.62564254  0.83757011  1  0  0.09262  0  0.964382  0  0  0.10297  0  1.025548  0  0  0.106774  0  1.021802  0  0  0.101883  0.100389  0  1.027912  0
H  H33  1  0.05475076  0.37436723  0.16242420  1  0  0.092612  0  0.964365  0  0  0.102889  0  1.025607  0  0  0.106688  0  1.021868  0  0  0.101854  0.100308  0  1.027971  0
H  H34  1  0.61154530  0.99260514  0.68867210  1  0  0.078639  0  0.936363  0  0  0.099584  0  0.998055  0  0  0.099149  0  0.998769  0  0  0.097783  0.099596  0  0.99807  0
H  H35  1  0.38845709  0.00739210  0.31133344  1  0  0.0786  0  0.936402  0  0  0.099545  0  0.998101  0  0  0.099111  0  0.998818  0  0  0.09776  0.099556  0  0.99812  0
H  H36  1  0.49986413  0.06325299  0.77550532  1  0  0.098049  0  0.949481  0  0  0.115195  0  1.013331  0  0  0.11568  0  1.013786  0  0  0.102698  0.114722  0  1.013152  0
H  H37  1  0.50012556  0.93674969  0.22449146  1  0  0.098128  0  0.949451  0  0  0.115275  0  1.013299  0  0  0.115757  0  1.013756  0  0  0.102734  0.114801  0  1.013119  0
H  H38  1  0.45711076  0.92557296  0.73873433  1  0  0.086571  0  0.946354  0  0  0.10037  0  1.017598  0  0  0.101621  0  1.016058  0  0  0.09871  0.099402  0  1.018697  0
H  H39  1  0.54289108  0.07443049  0.26126004  1  0  0.08659  0  0.946347  0  0  0.10037  0  1.017612  0  0  0.101618  0  1.016075  0  0  0.098686  0.099403  0  1.018712  0
H  H40  1  0.87423408  0.84113103  0.12945523  1  0  0.08493  0  0.934391  0  0  0.105675  0  0.994858  0  0  0.105061  0  0.996125  0  0  0.100243  0.105913  0  0.994365  0
H  H41  1  0.12577081  0.15887014  0.87054760  1  0  0.084946  0  0.934367  0  0  0.105688  0  0.994824  0  0  0.105075  0  0.99609  0  0  0.100217  0.105926  0  0.994334  0
H  H42  1  0.89284489  0.98225637  0.15028013  1  0  0.088941  0  0.962584  0  0  0.105559  0  1.02946  0  0  0.106011  0  1.029669  0  0  0.101595  0.105123  0  1.029449  0
H  H43  1  0.10715747  0.01774005  0.84972307  1  0  0.08899  0  0.962394  0  0  0.105612  0  1.029275  0  0  0.106057  0  1.029492  0  0  0.101621  0.105175  0  1.029266  0
H  H44  1  0.02210390  0.91263320  0.07615643  1  0  0.1028  0  0.935145  0  0  0.115204  0  1.003465  0  0  0.117047  0  1.001551  0  0  0.104248  0.113953  0  1.004626  0
H  H45  1  0.97789916  0.08737352  0.92384740  1  0  0.102825  0  0.93509  0  0  0.115222  0  1.003426  0  0  0.117066  0  1.001509  0  0  0.104255  0.113973  0  1.004585  0
H  H46  1  0.75731941  0.75079908  0.45695653  1  0  0.122563  0  0.995993  0  0  0.127246  0  1.067287  0  0  0.130554  0  1.065562  0  0  0.109673  0.124424  0  1.06979  0
H  H47  1  0.24268814  0.24919510  0.54305831  1  0  0.122398  0  0.996264  0  0  0.127096  0  1.067556  0  0  0.130393  0  1.065827  0  0  0.109603  0.124291  0  1.07004  0
H  H48  1  0.10389725  0.01680999  0.32760012  1  0  0.10313  0  0.972794  0  0  0.111999  0  1.037541  0  0  0.115032  0  1.036748  0  0  0.099752  0.109753  0  1.038232  0
H  H49  1  0.89611317  0.98319115  0.67239838  1  0  0.103076  0  0.972819  0  0  0.111975  0  1.037532  0  0  0.115005  0  1.036742  0  0  0.099747  0.109728  0  1.038224  0
H  H50  1  0.18976551  0.84142879  0.37314011  1  0  0.10003  0  0.947453  0  0  0.109375  0  1.011558  0  0  0.112905  0  1.008677  0  0  0.101771  0.106705  0  1.014081  0
H  H51  1  0.81023589  0.15856917  0.62685929  1  0  0.099997  0  0.94733  0  0  0.109387  0  1.011401  0  0  0.112918  0  1.008521  0  0  0.101787  0.106718  0  1.013922  0
H  H52  1  0.51524783  0.79940812  0.39903678  1  0  0.085756  0  0.957104  0  0  0.103083  0  1.022351  0  0  0.102798  0  1.023582  0  0  0.098166  0.103393  0  1.020918  0
H  H53  1  0.48475512  0.20059617  0.60096230  1  0  0.085809  0  0.957139  0  0  0.1031  0  1.022426  0  0  0.102816  0  1.023652  0  0  0.098149  0.103408  0  1.020998  0
H  H54  1  0.44413221  0.90836303  0.47345217  1  0  0.100033  0  0.952525  0  0  0.112486  0  1.022473  0  0  0.1145  0  1.020397  0  0  0.105053  0.1109  0  1.024248  0
H  H55  1  0.55587803  0.09163659  0.52655314  1  0  0.10001  0  0.952502  0  0  0.112509  0  1.022387  0  0  0.11452  0  1.020318  0  0  0.105079  0.110924  0  1.02416  0
H  H56  1  0.58760725  0.83426595  0.52874380  1  0  0.077878  0  0.968318  0  0  0.095176  0  1.03602  0  0  0.095959  0  1.034859  0  0  0.095657  0.094346  0  1.037135  0
H  H57  1  0.41239128  0.16572338  0.47126263  1  0  0.077879  0  0.968289  0  0  0.095194  0  1.035972  0  0  0.095957  0  1.03483  0  0  0.095674  0.094366  0  1.037085  0
H  H58  1  0.01636366  0.17705388  0.37288956  1  0  0.082708  0  0.960929  0  0  0.098841  0  1.029524  0  0  0.097976  0  1.031554  0  0  0.095165  0.099493  0  1.027939  0
H  H59  1  0.98363888  0.82294490  0.62711147  1  0  0.082721  0  0.960948  0  0  0.098853  0  1.029532  0  0  0.097987  0  1.031563  0  0  0.095199  0.099504  0  1.027948  0
H  H60  1  0.86073080  0.22926411  0.30675671  1  0  0.114624  0  0.936646  0  0  0.134134  0  0.99284  0  0  0.135561  0  0.99149  0  0  0.108185  0.133035  0  0.993952  0
H  H61  1  0.13925720  0.77073068  0.69324413  1  0  0.114677  0  0.936663  0  0  0.134171  0  0.992863  0  0  0.1356  0  0.99151  0  0  0.10819  0.133069  0  0.993977  0
H  H62  1  0.96765671  0.13384697  0.24068658  1  0  0.068705  0  0.978653  0  0  0.081231  0  1.055956  0  0  0.080866  0  1.057708  0  0  0.089579  0.08133  0  1.054887  0
H  H63  1  0.03233660  0.86614463  0.75931050  1  0  0.06865  0  0.978571  0  0  0.081176  0  1.055878  0  0  0.08081  0  1.057631  0  0  0.089565  0.08128  0  1.054803  0
C  C64  1  0.51281311  0.58761201  0.33885064  1  0  0.717478  0  3.856089  0  0  0.674237  0  4.141564  0  0  0.711059  0  4.13441  0  0  0.224154  0.648967  0  4.149919  0
C  C65  1  0.48716592  0.41239796  0.66116292  1  0  0.7176  0  3.856324  0  0  0.674627  0  4.141324  0  0  0.711454  0  4.134155  0  0  0.224262  0.649356  0  4.149689  0
C  C66  1  0.45136506  0.64319553  0.25035005  1  0  -0.084676  0  3.80441  0  0  -0.063455  0  4.043461  0  0  -0.072223  0  4.064413  0  0  -0.034487  -0.057358  0  4.028053  0
C  C67  1  0.54864056  0.35679838  0.74964011  1  0  -0.084875  0  3.804416  0  0  -0.063672  0  4.043368  0  0  -0.072447  0  4.064324  0  0  -0.034513  -0.057576  0  4.027979  0
C  C68  1  0.29864834  0.63758340  0.22589003  1  0  -0.181932  0  3.744492  0  0  -0.216477  0  3.999312  0  0  -0.217229  0  4.018723  0  0  -0.105115  -0.215668  0  3.986534  0
C  C69  1  0.70135680  0.36241921  0.77409831  1  0  -0.181507  0  3.744277  0  0  -0.216063  0  3.998978  0  0  -0.216818  0  4.018409  0  0  -0.104927  -0.21525  0  3.986196  0
C  C70  1  0.24007463  0.68744638  0.14238125  1  0  0.158909  0  3.805897  0  0  0.148614  0  4.0652  0  0  0.154008  0  4.082181  0  0  0.072687  0.144838  0  4.053806  0
C  C71  1  0.75992175  0.31253867  0.85759487  1  0  0.158482  0  3.805611  0  0  0.148401  0  4.064876  0  0  0.153832  0  4.081851  0  0  0.072594  0.144563  0  4.053487  0
C  C72  1  0.33382186  0.74758940  0.08293377  1  0  0.196426  0  3.785681  0  0  0.17984  0  4.04561  0  0  0.191156  0  4.060329  0  0  0.084102  0.172053  0  4.03556  0
C  C73  1  0.66616967  0.25239018  0.91704947  1  0  0.196754  0  3.785227  0  0  0.179978  0  4.045354  0  0  0.191302  0  4.060051  0  0  0.084099  0.172178  0  4.03532  0
C  C74  1  0.48527984  0.75472987  0.10893580  1  0  -0.206618  0  3.799563  0  0  -0.225159  0  4.055406  0  0  -0.230959  0  4.074422  0  0  -0.116377  -0.221117  0  4.042863  0
C  C75  1  0.51470741  0.24526965  0.89106298  1  0  -0.206812  0  3.799895  0  0  -0.225329  0  4.055741  0  0  -0.231113  0  4.074752  0  0  -0.11638  -0.221288  0  4.043208  0
C  C76  1  0.54375714  0.70169795  0.19137986  1  0  -0.07111  0  3.784294  0  0  -0.10139  0  4.044457  0  0  -0.098066  0  4.0617  0  0  -0.099876  -0.10339  0  4.032814  0
C  C77  1  0.45623878  0.29829915  0.80861307  1  0  -0.070998  0  3.783949  0  0  -0.101253  0  4.044105  0  0  -0.097925  0  4.061345  0  0  -0.099844  -0.103256  0  4.032476  0
C  C78  1  0.99584708  0.61933663  0.16394053  1  0  -0.075899  0  3.635229  0  0  -0.169678  0  3.893053  0  0  -0.16267  0  3.896876  0  0  -0.137533  -0.173744  0  3.889943  0
C  C79  1  0.00414817  0.38065014  0.83604869  1  0  -0.075516  0  3.634973  0  0  -0.169332  0  3.89288  0  0  -0.162287  0  3.89672  0  0  -0.137472  -0.173462  0  3.889753  0
C  C80  1  0.35668129  0.85383795  0.94061126  1  0  -0.071597  0  3.623527  0  0  -0.169918  0  3.894195  0  0  -0.16224  0  3.896425  0  0  -0.140475  -0.174914  0  3.892404  0
C  C81  1  0.64332878  0.14615676  0.05937840  1  0  -0.071736  0  3.623727  0  0  -0.170066  0  3.894323  0  0  -0.162386  0  3.896563  0  0  -0.140511  -0.175078  0  3.892531  0
C  C82  1  0.77198937  0.63471608  0.66175665  1  0  0.667872  0  3.853732  0  0  0.618052  0  4.136972  0  0  0.652709  0  4.134594  0  0  0.206817  0.594412  0  4.142931  0
C  C83  1  0.22799956  0.36527720  0.33824953  1  0  0.6679  0  3.853782  0  0  0.618133  0  4.13698  0  0  0.652789  0  4.134595  0  0  0.206838  0.594492  0  4.142939  0
C  C84  1  0.78309251  0.71004699  0.75353954  1  0  -0.081079  0  3.826426  0  0  -0.057535  0  4.061268  0  0  -0.066955  0  4.084657  0  0  -0.034572  -0.051056  0  4.044522  0
C  C85  1  0.21689823  0.28995573  0.24646190  1  0  -0.080968  0  3.826306  0  0  -0.057505  0  4.061219  0  0  -0.066924  0  4.084612  0  0  -0.034582  -0.051026  0  4.044472  0
C  C86  1  0.70032245  0.80103623  0.75452928  1  0  -0.194168  0  3.773107  0  0  -0.227983  0  4.027999  0  0  -0.228485  0  4.046035  0  0  -0.107719  -0.227343  0  4.015196  0
C  C87  1  0.29967259  0.19896405  0.24546533  1  0  -0.194092  0  3.773078  0  0  -0.227937  0  4.027965  0  0  -0.228441  0  4.046009  0  0  -0.107644  -0.227297  0  4.015163  0
C  C88  1  0.71217347  0.87496233  0.83893133  1  0  0.152479  0  3.8301  0  0  0.140033  0  4.096409  0  0  0.146475  0  4.112779  0  0  0.072785  0.135376  0  4.085329  0
C  C89  1  0.28780915  0.12503489  0.16107476  1  0  0.152415  0  3.830599  0  0  0.139904  0  4.096855  0  0  0.14634  0  4.113232  0  0  0.07272  0.135244  0  4.085775  0
C  C90  1  0.80811721  0.85711642  0.92586420  1  0  0.187615  0  3.794466  0  0  0.170207  0  4.059686  0  0  0.181138  0  4.074624  0  0  0.08405  0.163062  0  4.049146  0
C  C91  1  0.19187903  0.14288714  0.07414140  1  0  0.187708  0  3.794704  0  0  0.170371  0  4.059801  0  0  0.181309  0  4.07474  0  0  0.084121  0.163222  0  4.049267  0
C  C92  1  0.89128661  0.76736261  0.92421424  1  0  -0.203487  0  3.778378  0  0  -0.224351  0  4.040368  0  0  -0.230087  0  4.058259  0  0  -0.114029  -0.220565  0  4.027984  0
C  C93  1  0.10870848  0.23264015  0.07579049  1  0  -0.203542  0  3.778343  0  0  -0.224436  0  4.040269  0  0  -0.230163  0  4.058129  0  0  -0.11404  -0.220649  0  4.027891  0
C  C94  1  0.87849441  0.69443059  0.83856007  1  0  -0.045855  0  3.759292  0  0  -0.072726  0  4.010093  0  0  -0.069359  0  4.027366  0  0  -0.089045  -0.074177  0  3.99722  0
C  C95  1  0.12151479  0.30558396  0.16143454  1  0  -0.045875  0  3.759198  0  0  -0.07268  0  4.010017  0  0  -0.069317  0  4.027305  0  0  -0.089044  -0.074131  0  3.997142  0
C  C96  1  0.54624712  0.98686582  0.75645545  1  0  -0.072602  0  3.624399  0  0  -0.170891  0  3.889462  0  0  -0.163949  0  3.893817  0  0  -0.140949  -0.175492  0  3.886499  0
C  C97  1  0.45375340  0.01313617  0.24355028  1  0  -0.072572  0  3.624181  0  0  -0.170945  0  3.889251  0  0  -0.163999  0  3.893608  0  0  -0.140967  -0.175552  0  3.88629  0
C  C98  1  0.90677309  0.91490276  0.09531072  1  0  -0.076384  0  3.606769  0  0  -0.172416  0  3.868665  0  0  -0.165788  0  3.873119  0  0  -0.137755  -0.176759  0  3.865384  0
C  C99  1  0.09322861  0.08509999  0.90469204  1  0  -0.076514  0  3.606654  0  0  -0.172549  0  3.868556  0  0  -0.165916  0  3.873014  0  0  -0.137787  -0.176892  0  3.865278  0
C  C100  1  0.02940729  0.68212401  0.44906413  1  0  0.709686  0  3.869275  0  0  0.664866  0  4.159167  0  0  0.70156  0  4.152259  0  0  0.222522  0.639626  0  4.167355  0
C  C101  1  0.97059735  0.31787402  0.55094081  1  0  0.709695  0  3.869376  0  0  0.664901  0  4.159248  0  0  0.701584  0  4.152356  0  0  0.222422  0.63966  0  4.167439  0
C  C102  1  0.97858710  0.78580389  0.41804653  1  0  -0.086813  0  3.802813  0  0  -0.066322  0  4.04495  0  0  -0.074793  0  4.065213  0  0  -0.034823  -0.060416  0  4.029981  0
C  C103  1  0.02142203  0.21419659  0.58196491  1  0  -0.086864  0  3.802934  0  0  -0.066357  0  4.045054  0  0  -0.074822  0  4.065316  0  0  -0.034752  -0.060445  0  4.030085  0
C  C104  1  0.83121902  0.81011852  0.42856150  1  0  -0.191596  0  3.748787  0  0  -0.226494  0  4.007019  0  0  -0.2269  0  4.025358  0  0  -0.106829  -0.225942  0  3.994912  0
C  C105  1  0.16879124  0.18988192  0.57144693  1  0  -0.191284  0  3.748983  0  0  -0.226246  0  4.007217  0  0  -0.226636  0  4.025539  0  0  -0.106752  -0.225712  0  3.995117  0
C  C106  1  0.78326518  0.90901725  0.40684206  1  0  0.155663  0  3.80736  0  0  0.145409  0  4.06884  0  0  0.151143  0  4.085733  0  0  0.070597  0.141416  0  4.057237  0
C  C107  1  0.21673906  0.09099363  0.59318126  1  0  0.155489  0  3.807225  0  0  0.145331  0  4.068605  0  0  0.151075  0  4.085484  0  0  0.070589  0.141354  0  4.057006  0
C  C108  1  0.88211805  0.98485126  0.36929636  1  0  0.18597  0  3.798264  0  0  0.171087  0  4.059918  0  0  0.181617  0  4.075622  0  0  0.081687  0.163925  0  4.049102  0
C  C109  1  0.11789322  0.01514927  0.63071980  1  0  0.186074  0  3.798102  0  0  0.171152  0  4.059795  0  0  0.181677  0  4.075492  0  0  0.081743  0.163994  0  4.04898  0
C  C110  1  0.02764579  0.95921299  0.35664805  1  0  -0.200604  0  3.790451  0  0  -0.217905  0  4.047502  0  0  -0.224039  0  4.067723  0  0  -0.114149  -0.213756  0  4.033966  0
C  C111  1  0.97237022  0.04079312  0.64337175  1  0  -0.200746  0  3.790694  0  0  -0.218056  0  4.04777  0  0  -0.224194  0  4.068  0  0  -0.114233  -0.213905  0  4.034241  0
C  C112  1  0.07609838  0.86080689  0.38192332  1  0  -0.0502  0  3.750875  0  0  -0.082298  0  4.010606  0  0  -0.078033  0  4.026419  0  0  -0.093599  -0.084936  0  3.999886  0
C  C113  1  0.92392022  0.13918638  0.61807974  1  0  -0.050048  0  3.751056  0  0  -0.082198  0  4.010812  0  0  -0.077938  0  4.026628  0  0  -0.093592  -0.084836  0  4.000093  0
C  C114  1  0.54255067  0.86561900  0.45740452  1  0  -0.083884  0  3.619591  0  0  -0.17664  0  3.877752  0  0  -0.170006  0  3.881418  0  0  -0.142398  -0.1804  0  3.874477  0
C  C115  1  0.45746290  0.13438142  0.54260177  1  0  -0.083838  0  3.619327  0  0  -0.176599  0  3.877481  0  0  -0.169948  0  3.881163  0  0  -0.142398  -0.180344  0  3.87421  0
C  C116  1  0.92422725  0.15890310  0.31492398  1  0  -0.088648  0  3.625267  0  0  -0.18578  0  3.893829  0  0  -0.179178  0  3.898429  0  0  -0.148509  -0.189967  0  3.8904  0
C  C117  1  0.07577160  0.84109014  0.68507808  1  0  -0.088692  0  3.624931  0  0  -0.185786  0  3.893516  0  0  -0.179184  0  3.898095  0  0  -0.14856  -0.189974  0  3.890092  0
O  O118  1  0.65057169  0.57200769  0.34514872  1  0  -0.74351  0  2.009056  0  0  -0.692102  0  2.255105  0  0  -0.726928  0  2.239851  0  0  -0.403931  -0.674326  0  2.263483  0
O  O119  1  0.34941451  0.42801186  0.65487266  1  0  -0.743535  0  2.009556  0  0  -0.692267  0  2.255511  0  0  -0.727076  0  2.240245  0  0  -0.403884  -0.674486  0  2.263897  0
O  O120  1  0.42922622  0.55766411  0.40705696  1  0  -0.790063  0  2.135255  0  0  -0.736798  0  2.399453  0  0  -0.777348  0  2.387521  0  0  -0.414074  -0.718132  0  2.407411  0
O  O121  1  0.57076243  0.44234104  0.59294989  1  0  -0.790205  0  2.1348  0  0  -0.737047  0  2.39891  0  0  -0.777605  0  2.38696  0  0  -0.414165  -0.718385  0  2.40687  0
O  O122  1  0.93595784  0.60762832  0.46337531  1  0  -0.786918  0  2.130338  0  0  -0.734959  0  2.39831  0  0  -0.775058  0  2.386224  0  0  -0.413425  -0.716627  0  2.40677  0
O  O123  1  0.06405079  0.39236335  0.53662639  1  0  -0.786917  0  2.130348  0  0  -0.734972  0  2.398292  0  0  -0.775055  0  2.386218  0  0  -0.413334  -0.716639  0  2.406755  0
O  O124  1  0.16776587  0.67061053  0.46134912  1  0  -0.737401  0  2.020644  0  0  -0.686817  0  2.272432  0  0  -0.721697  0  2.257984  0  0  -0.401637  -0.669007  0  2.280508  0
O  O125  1  0.83224042  0.32937958  0.53865544  1  0  -0.737396  0  2.020579  0  0  -0.686867  0  2.272443  0  0  -0.721754  0  2.257993  0  0  -0.4016  -0.669056  0  2.280507  0
O  O126  1  0.09416557  0.68304626  0.11001546  1  0  -0.240517  0  2.394406  0  0  -0.162024  0  2.629823  0  0  -0.178956  0  2.633316  0  0  -0.184817  -0.150137  0  2.626876  0
O  O127  1  0.90585278  0.31693879  0.88995870  1  0  -0.240382  0  2.394244  0  0  -0.162163  0  2.62984  0  0  -0.179191  0  2.633386  0  0  -0.184888  -0.150119  0  2.626799  0
O  O128  1  0.26578255  0.79351444  0.00316321  1  0  -0.225352  0  2.355913  0  0  -0.15298  0  2.596523  0  0  -0.170318  0  2.598275  0  0  -0.179061  -0.140737  0  2.594684  0
O  O129  1  0.73421083  0.20647709  0.99682696  1  0  -0.225319  0  2.356098  0  0  -0.152857  0  2.596715  0  0  -0.170193  0  2.598467  0  0  -0.179024  -0.140597  0  2.594861  0
O  O130  1  0.64455895  0.94136047  0.42078725  1  0  -0.243195  0  2.378694  0  0  -0.167453  0  2.618596  0  0  -0.184905  0  2.623458  0  0  -0.186324  -0.155046  0  2.614658  0
O  O131  1  0.35544586  0.05864162  0.57922791  1  0  -0.243352  0  2.378531  0  0  -0.167625  0  2.618416  0  0  -0.185089  0  2.623269  0  0  -0.186436  -0.155249  0  2.614508  0
O  O132  1  0.82509857  0.07871979  0.34790108  1  0  -0.23777  0  2.358958  0  0  -0.166687  0  2.603176  0  0  -0.18388  0  2.605432  0  0  -0.184459  -0.154661  0  2.601115  0
O  O133  1  0.17491181  0.92128307  0.65211133  1  0  -0.2377  0  2.358814  0  0  -0.166682  0  2.603112  0  0  -0.183853  0  2.605344  0  0  -0.184439  -0.154655  0  2.601052  0
O  O134  1  0.68262262  0.64890503  0.58410984  1  0  -0.711989  0  2.08035  0  0  -0.650684  0  2.318716  0  0  -0.684261  0  2.308358  0  0  -0.364168  -0.633006  0  2.325912  0
O  O135  1  0.31736526  0.35108820  0.41589244  1  0  -0.711933  0  2.080411  0  0  -0.650692  0  2.318769  0  0  -0.684257  0  2.308393  0  0  -0.364141  -0.633014  0  2.325968  0
O  O136  1  0.85215312  0.55399052  0.65719953  1  0  -0.713139  0  2.084014  0  0  -0.652599  0  2.323691  0  0  -0.686269  0  2.313757  0  0  -0.362832  -0.634996  0  2.330911  0
O  O137  1  0.14784423  0.44601303  0.34280459  1  0  -0.713351  0  2.084105  0  0  -0.652705  0  2.323548  0  0  -0.686372  0  2.313618  0  0  -0.362889  -0.635101  0  2.330769  0
O  O138  1  0.63784293  0.96571233  0.84546971  1  0  -0.23749  0  2.367703  0  0  -0.161894  0  2.606977  0  0  -0.179136  0  2.61135  0  0  -0.18533  -0.149817  0  2.603705  0
O  O139  1  0.36213552  0.03428720  0.15453093  1  0  -0.237523  0  2.367625  0  0  -0.161775  0  2.606769  0  0  -0.179014  0  2.611142  0  0  -0.185212  -0.149684  0  2.603488  0
O  O140  1  0.81178705  0.93146031  0.00628431  1  0  -0.229462  0  2.36388  0  0  -0.155558  0  2.606104  0  0  -0.173661  0  2.609935  0  0  -0.177678  -0.142645  0  2.602701  0
O  O141  1  0.18820279  0.06854559  0.99371881  1  0  -0.229455  0  2.36395  0  0  -0.155587  0  2.606161  0  0  -0.173691  0  2.609988  0  0  -0.177748  -0.142674  0  2.602762  0
O  O142  1  0.60285591  0.34140322  0.39516000  1  0  -0.876488  0  1.836062  0  0  -0.831747  0  2.019741  0  0  -0.858803  0  1.987302  0  0  -0.630356  -0.818953  0  2.039963  0
O  O143  1  0.39712447  0.65860988  0.60485074  1  0  -0.876614  0  1.835966  0  0  -0.83183  0  2.019763  0  0  -0.858907  0  1.987294  0  0  -0.630399  -0.819035  0  2.039983  0
O  O144  1  0.85890200  0.42277646  0.33199102  1  0  -0.879512  0  1.86846  0  0  -0.834504  0  2.05926  0  0  -0.862416  0  2.026306  0  0  -0.624205  -0.821031  0  2.079064  0
O  O145  1  0.14110308  0.57722620  0.66800346  1  0  -0.879517  0  1.868485  0  0  -0.834514  0  2.059286  0  0  -0.862415  0  2.026391  0  0  -0.624212  -0.821037  0  2.07909  0
