# generated using pymatgen
data_V8Ni3H12C12N6O23
_symmetry_space_group_name_H-M   'P 1'
_cell_length_a   8.50672228
_cell_length_b   8.89425248
_cell_length_c   12.49725621
_cell_angle_alpha   102.33021261
_cell_angle_beta   96.71056509
_cell_angle_gamma   118.00447437
_symmetry_Int_Tables_number   1
_chemical_formula_structural   V8Ni3H12C12N6O23
_chemical_formula_sum   'V8 Ni3 H12 C12 N6 O23'
_cell_volume   789.32061596
_cell_formula_units_Z   1
loop_
 _symmetry_equiv_pos_site_id
 _symmetry_equiv_pos_as_xyz
  1  'x, y, z'
loop_
 _atom_site_type_symbol
 _atom_site_label
 _atom_site_symmetry_multiplicity
 _atom_site_fract_x
 _atom_site_fract_y
 _atom_site_fract_z
 _atom_site_occupancy
 _atom_site_pbe_cm5_charge
 _atom_site_pbe_ddec_charge
 _atom_site_pbe_ddec_spin_density
 _atom_site_pbe_ddec_sum_bond_order
 _atom_site_pbe_magmom
V  V0  1  0.21466472  0.12156376  0.42533793  1  1.458436  1.995082  -0.01237  3.340312  -0.02
V  V1  1  0.78536918  0.87911666  0.57504268  1  1.457807  1.995662  -0.006508  3.340319  -0.011
V  V2  1  0.85441735  0.03627766  0.24251009  1  1.456911  1.974992  -0.013559  3.410301  -0.02
V  V3  1  0.14564786  0.96422523  0.75736938  1  1.453724  1.971095  -0.032394  3.405235  -0.048
V  V4  1  0.07368944  0.69575666  0.11516070  1  1.465332  2.009233  0.019457  3.413973  0.03
V  V5  1  0.92686328  0.30457833  0.88432844  1  1.465024  2.006267  0.039279  3.416241  0.063
V  V6  1  0.47014430  0.97981498  0.30435503  1  1.468626  1.994795  0.003163  3.413626  0.005
V  V7  1  0.52981872  0.02043248  0.69569855  1  1.468969  1.99464  -0.000215  3.416689  0.0
Ni  Ni8  1  0.99995768  0.00021911  0.99985248  1  0.695592  1.040645  1.828143  2.582983  1.466
Ni  Ni9  1  0.84486827  0.68689694  0.33151958  1  0.69034  1.004384  -1.810938  2.569493  -1.454
Ni  Ni10  1  0.15515378  0.31263948  0.66844457  1  0.679993  0.982147  -0.018085  2.618188  -0.015
H  H11  1  0.46483060  0.60741551  0.29553268  1  0.131025  0.126702  -0.000469  1.011918  -0.001
H  H12  1  0.53459438  0.39195729  0.70429859  1  0.131372  0.127166  0.000938  1.011957  0.001
H  H13  1  0.15227093  0.35885425  0.16862606  1  0.134247  0.10868  0.000266  0.997097  0.001
H  H14  1  0.84713773  0.64072139  0.83106009  1  0.134101  0.108342  0.001159  0.996338  0.002
H  H15  1  0.38830211  0.06819996  0.03942849  1  0.133688  0.118448  0.000329  0.985821  0.001
H  H16  1  0.61109946  0.93131683  0.96025360  1  0.133983  0.119095  0.001135  0.985343  0.002
H  H17  1  0.70259842  0.31833381  0.16346091  1  0.134899  0.120734  -0.000447  0.981468  -0.001
H  H18  1  0.29671699  0.68113484  0.83641183  1  0.135219  0.120928  0.000981  0.981252  0.001
H  H19  1  0.19042120  0.68164626  0.39524476  1  0.127704  0.117558  -0.001547  1.032634  -0.003
H  H20  1  0.80996222  0.31789090  0.60516387  1  0.127806  0.1175  -0.001752  1.033183  -0.003
H  H21  1  0.68384729  0.43329704  0.47275711  1  0.132343  0.115849  -0.00161  0.988193  -0.002
H  H22  1  0.31667858  0.56631782  0.52768110  1  0.132129  0.115598  -0.001864  0.988601  -0.003
C  C23  1  0.44688009  0.48661503  0.23778246  1  0.071232  0.07583  0.005647  3.813596  0.007
C  C24  1  0.55248443  0.51276447  0.76202591  1  0.071548  0.074799  0.003195  3.810728  0.004
C  C25  1  0.27590985  0.35054010  0.16855904  1  0.073016  0.069696  -0.005656  3.869059  -0.008
C  C26  1  0.72350009  0.64902190  0.83117151  1  0.074236  0.071407  -0.000613  3.867535  -0.001
C  C27  1  0.40700241  0.18928170  0.09692965  1  0.071061  0.056748  -0.005387  3.878336  -0.007
C  C28  1  0.59236599  0.81017583  0.90280708  1  0.070974  0.055818  -9.2e-05  3.878486  0.0
C  C29  1  0.57894045  0.32618652  0.16506498  1  0.06976  0.058176  0.0055  3.874636  0.007
C  C30  1  0.42034093  0.67319006  0.83475643  1  0.071087  0.058772  0.003608  3.872588  0.004
C  C31  1  0.10414891  0.59880342  0.44115974  1  0.068973  0.080047  -0.002197  3.812981  -0.002
C  C32  1  0.89624154  0.40068840  0.55922562  1  0.069042  0.079066  -0.004293  3.811004  -0.005
C  C33  1  0.82549559  0.46340346  0.48508884  1  0.07012  0.073311  -0.002212  3.86678  -0.003
C  C34  1  0.17498331  0.53613542  0.51528832  1  0.071264  0.073021  -0.004393  3.866024  -0.005
N  N35  1  0.59768072  0.47329546  0.23607066  1  -0.298102  -0.16103  -0.053514  3.530418  -0.074
N  N36  1  0.40170359  0.52612401  0.76377265  1  -0.295445  -0.152233  0.022911  3.527233  0.031
N  N37  1  0.25604622  0.20162082  0.09923448  1  -0.29416  -0.166664  0.049929  3.526234  0.069
N  N38  1  0.74339969  0.79800579  0.90044247  1  -0.293303  -0.166899  0.044839  3.523649  0.062
N  N39  1  0.92947368  0.56223076  0.42609090  1  -0.298499  -0.175232  -0.051748  3.528084  -0.072
N  N40  1  0.07092746  0.43737238  0.57425092  1  -0.294988  -0.165236  -0.057888  3.525921  -0.078
O  O41  1  0.39941595  0.13195517  0.35994816  1  -0.68033  -0.964621  0.000506  1.864741  0.0
O  O42  1  0.60084027  0.86835829  0.64079793  1  -0.680925  -0.965555  -0.000885  1.867673  -0.001
O  O43  1  0.08040676  0.91453367  0.42717005  1  -0.58572  -0.85788  -0.01708  1.950762  -0.02
O  O44  1  0.92103667  0.08681793  0.57397370  1  -0.583934  -0.855767  0.006161  1.958717  0.006
O  O45  1  0.07846310  0.17446511  0.33691478  1  -0.682526  -0.950375  -0.003604  1.886326  -0.003
O  O46  1  0.92156668  0.82582492  0.66297778  1  -0.682476  -0.949544  0.001938  1.888312  0.004
O  O47  1  0.71340143  0.73023872  0.44742044  1  -0.594795  -0.817335  -0.033786  1.876615  -0.045
O  O48  1  0.28653242  0.27055243  0.55319993  1  -0.590472  -0.810504  0.019748  1.880588  0.025
O  O49  1  0.69494735  0.10376392  0.28745847  1  -0.684472  -0.954665  0.00195  1.86279  0.002
O  O50  1  0.30511786  0.89647289  0.71262147  1  -0.684829  -0.954833  0.00165  1.862881  0.002
O  O51  1  0.87407554  0.06275431  0.11511843  1  -0.602006  -0.840933  0.033293  1.846961  0.045
O  O52  1  0.12572968  0.93798487  0.88475647  1  -0.60256  -0.84181  0.03675  1.852163  0.051
O  O53  1  0.01304027  0.82854277  0.07262045  1  -0.598882  -0.840845  0.017947  1.961724  0.024
O  O54  1  0.98719215  0.17198441  0.92750312  1  -0.598645  -0.840571  0.036485  1.966161  0.051
O  O55  1  0.32214366  0.82636825  0.17033783  1  -0.68848  -0.987743  0.00166  1.838349  0.002
O  O56  1  0.67841381  0.17426172  0.82948702  1  -0.688831  -0.987025  0.000674  1.838582  0.0
O  O57  1  0.46705880  0.86530074  0.38909330  1  -0.560755  -0.722761  0.000109  1.615043  0.0
O  O58  1  0.53285195  0.13460553  0.61072893  1  -0.561519  -0.724442  0.001123  1.616637  0.002
O  O59  1  0.78194550  0.82719101  0.24047628  1  -0.587996  -0.829134  -0.01542  1.876704  -0.018
O  O60  1  0.21815429  0.17360298  0.75928131  1  -0.585736  -0.825185  -0.015903  1.87984  -0.016
O  O61  1  0.97707246  0.63697042  0.21945905  1  -0.598824  -0.857636  -0.037104  1.913422  -0.052
O  O62  1  0.02390208  0.36293100  0.77996959  1  -0.595515  -0.850384  0.020372  1.922634  0.027
O  O63  1  0.00010693  0.50045402  0.99942994  1  -0.706856  -0.995392  0.002686  1.838907  0.003
