# generated using pymatgen
data_CuH7C17N3(OF3)4
_symmetry_space_group_name_H-M   'P 1'
_cell_length_a   8.36327157
_cell_length_b   14.92260522
_cell_length_c   18.30465108
_cell_angle_alpha   90.00013988
_cell_angle_beta   99.34288416
_cell_angle_gamma   89.99992624
_symmetry_Int_Tables_number   1
_chemical_formula_structural   CuH7C17N3(OF3)4
_chemical_formula_sum   'Cu4 H28 C68 N12 O16 F48'
_cell_volume   2254.14895281
_cell_formula_units_Z   4
loop_
 _symmetry_equiv_pos_site_id
 _symmetry_equiv_pos_as_xyz
  1  'x, y, z'
loop_
 _atom_site_type_symbol
 _atom_site_label
 _atom_site_symmetry_multiplicity
 _atom_site_fract_x
 _atom_site_fract_y
 _atom_site_fract_z
 _atom_site_occupancy
 _atom_site_pbe_bader_charge
 _atom_site_pbe_bader_spin_density
 _atom_site_pbe_cm5_charge
 _atom_site_pbe_ddec_charge
 _atom_site_pbe_ddec_spin_density
 _atom_site_pbe_ddec_sum_bond_order
 _atom_site_pbe_magmom
Cu  Cu0  1  0.27755471  0.00071875  0.31736048  1  1.157687  0.596619  0.729508  0.854203  0.763582  2.25073  0.595
Cu  Cu1  1  0.72243702  0.50071888  0.18263958  1  1.157717  -0.596615  0.72951  0.854265  -0.808287  2.250612  -0.595
Cu  Cu2  1  0.72245681  0.99928137  0.68264300  1  1.157768  0.596621  0.729517  0.854301  0.763582  2.250541  0.595
Cu  Cu3  1  0.27754784  0.49928057  0.81735756  1  1.157775  0.596621  0.729532  0.854339  0.763584  2.250486  0.595
H  H4  1  0.20909835  0.28920797  0.33208968  1  0.134605  -0.000403  0.099521  0.138575  -0.000181  1.041496  0.0
H  H5  1  0.79090744  0.78920801  0.16790927  1  0.134574  0.000403  0.099537  0.138582  0.000169  1.041479  0.0
H  H6  1  0.79090105  0.71079081  0.66791127  1  0.134568  -0.000405  0.099543  0.138578  -0.000188  1.041528  0.0
H  H7  1  0.20909923  0.21079211  0.83208894  1  0.134595  -0.000404  0.099535  0.138603  -0.000186  1.041469  0.0
H  H8  1  0.23240319  0.71086550  0.28786168  1  0.077538  -0.000401  0.099837  0.138334  -0.000177  1.03787  0.0
H  H9  1  0.76760516  0.21086604  0.21213838  1  0.077524  0.000401  0.099819  0.138314  0.000166  1.037821  0.0
H  H10  1  0.76759258  0.28913596  0.71214063  1  0.077489  -0.000404  0.099842  0.138323  -0.00018  1.037857  0.0
H  H11  1  0.23240636  0.78913341  0.78785963  1  0.077532  -0.000404  0.099806  0.138283  -0.000179  1.038071  0.0
H  H12  1  0.01658811  0.00236378  0.17032477  1  0.08068  -0.000102  0.117084  0.094194  -5.9e-05  0.982546  0.0
H  H13  1  0.98341331  0.50236349  0.32967547  1  0.0807  0.000102  0.117094  0.09421  5.6e-05  0.982505  0.0
H  H14  1  0.98341615  0.99763701  0.82967927  1  0.080695  -0.0001  0.117105  0.094227  -5.6e-05  0.982523  0.0
H  H15  1  0.01658730  0.49763663  0.67032229  1  0.080679  -0.0001  0.117091  0.094228  -5.5e-05  0.982502  0.0
H  H16  1  0.72397013  0.00278025  0.11347209  1  0.097606  -3.1e-05  0.113961  0.126642  -1.8e-05  0.973779  0.0
H  H17  1  0.27603249  0.50277998  0.38652769  1  0.097616  3.2e-05  0.113963  0.126656  1.7e-05  0.973783  0.0
H  H18  1  0.27603533  0.99722053  0.88653149  1  0.097496  -2.4e-05  0.113918  0.126526  -1e-05  0.973811  0.0
H  H19  1  0.72396933  0.49722081  0.61346961  1  0.097523  -2.4e-05  0.113942  0.126588  -8e-06  0.973808  0.0
H  H20  1  0.51167829  0.00685414  0.19750234  1  0.120605  -7.7e-05  0.116799  0.13664  -4.1e-05  0.992806  0.0
H  H21  1  0.48832433  0.50685480  0.30249689  1  0.120581  7.6e-05  0.116778  0.13662  3.6e-05  0.992777  0.0
H  H22  1  0.48832596  0.99314598  0.80249896  1  0.120549  -7.7e-05  0.116802  0.136645  -4.1e-05  0.992823  0.0
H  H23  1  0.51167628  0.49314732  0.69750032  1  0.120608  -7.6e-05  0.116788  0.136608  -4e-05  0.992801  0.0
H  H24  1  0.55536561  0.01874319  0.45372028  1  0.108198  -0.000102  0.116914  0.094461  -4.6e-05  1.005008  0.0
H  H25  1  0.44463336  0.51874445  0.04628035  1  0.108234  0.00012  0.116933  0.094478  9.3e-05  1.005026  0.0
H  H26  1  0.44463501  0.98125693  0.54628185  1  0.108301  -0.000102  0.116905  0.094467  -4.7e-05  1.005045  0.0
H  H27  1  0.55536120  0.48125701  0.95371751  1  0.108269  -0.00012  0.116936  0.094496  -9.9e-05  1.005006  0.0
H  H28  1  0.85392056  0.01516201  0.50221182  1  0.183837  5.8e-05  0.115181  0.094412  8.5e-05  1.037389  0.0
H  H29  1  0.14608004  0.51516216  0.99778858  1  0.183843  9.3e-05  0.115161  0.094381  0.0001  1.037385  0.0
H  H30  1  0.14607885  0.98483878  0.49779077  1  0.183921  5.8e-05  0.115211  0.094427  8.5e-05  1.037408  0.0
H  H31  1  0.85391693  0.48483796  0.00220891  1  0.183921  -9.3e-05  0.115216  0.094417  -0.000108  1.037427  0.0
C  C32  1  0.25072756  0.16627173  0.39334866  1  0.760036  -0.003905  0.119145  0.253772  -0.001392  4.063701  -0.005
C  C33  1  0.74926995  0.66627162  0.10665106  1  0.760777  0.003905  0.11924  0.253967  0.000971  4.063604  0.005
C  C34  1  0.74927790  0.83372637  0.60665383  1  0.760614  -0.003913  0.119298  0.253935  -0.001401  4.063584  -0.005
C  C35  1  0.25072460  0.33372783  0.89334734  1  0.760426  -0.003909  0.119281  0.253995  -0.001397  4.063584  -0.005
C  C36  1  0.23521623  0.21279925  0.46717592  1  1.752083  0.011551  0.299717  0.626981  0.008326  3.999166  0.01
C  C37  1  0.76478242  0.71279957  0.03282398  1  1.752078  -0.011551  0.29973  0.626896  -0.00881  3.999149  -0.01
C  C38  1  0.76478923  0.78719953  0.53282657  1  1.752095  0.011549  0.299685  0.627111  0.008331  3.998905  0.01
C  C39  1  0.23521213  0.28720122  0.96717442  1  1.752087  0.011551  0.29971  0.62711  0.008323  3.998932  0.01
C  C40  1  0.23212745  0.21780420  0.32866325  1  -0.047333  0.005303  -0.153141  -0.380519  0.003312  4.031025  0.006
C  C41  1  0.76787603  0.71780494  0.17133702  1  -0.048016  -0.005303  -0.153154  -0.380547  -0.003556  4.030912  -0.006
C  C42  1  0.76787922  0.78219592  0.67133987  1  -0.047052  0.005289  -0.153171  -0.380729  0.003285  4.031586  0.006
C  C43  1  0.23212458  0.28219518  0.82866183  1  -0.047228  0.005291  -0.153182  -0.380636  0.003287  4.031013  0.006
C  C44  1  0.25205436  0.18060080  0.26045038  1  0.841739  -0.004054  0.11523  0.249865  -0.001405  4.074703  -0.005
C  C45  1  0.74794555  0.68060042  0.23954955  1  0.841743  0.004054  0.115221  0.249891  0.000983  4.074709  0.005
C  C46  1  0.74794868  0.81939731  0.73955084  1  0.841667  -0.004062  0.115204  0.249392  -0.001411  4.075378  -0.005
C  C47  1  0.25205142  0.31939970  0.76044903  1  0.841714  -0.00406  0.115226  0.249896  -0.001409  4.074721  -0.005
C  C48  1  0.24702817  0.24523486  0.19419706  1  1.709492  0.011613  0.301158  0.63016  0.008313  3.990195  0.01
C  C49  1  0.75297164  0.74523467  0.30580299  1  1.709504  -0.011614  0.301105  0.630063  -0.008793  3.99032  -0.01
C  C50  1  0.75297002  0.75476258  0.80580270  1  1.709492  0.011609  0.301117  0.6295  0.008313  3.991921  0.01
C  C51  1  0.24702776  0.25476411  0.69419741  1  1.709246  0.011612  0.301061  0.63006  0.008313  3.990297  0.01
C  C52  1  0.26035412  0.83678310  0.23469254  1  0.821786  -0.003703  0.108662  0.235866  -0.001176  4.099466  -0.005
C  C53  1  0.73964432  0.33678248  0.26530759  1  0.821515  0.003704  0.108693  0.235799  0.000759  4.099538  0.005
C  C54  1  0.73964771  0.16321903  0.76530968  1  0.821572  -0.003704  0.108613  0.235729  -0.001181  4.099414  -0.005
C  C55  1  0.26035386  0.66321563  0.73469054  1  0.821522  -0.003704  0.108651  0.235569  -0.001179  4.100212  -0.005
C  C56  1  0.25311214  0.79386488  0.15781147  1  1.702264  0.011604  0.299847  0.628673  0.008338  4.008361  0.01
C  C57  1  0.74688638  0.29386448  0.34218913  1  1.702599  -0.011603  0.299814  0.62858  -0.008822  4.00854  -0.01
C  C58  1  0.74688242  0.20613725  0.84219021  1  1.702772  0.011599  0.299848  0.628739  0.008338  4.008252  0.01
C  C59  1  0.25311545  0.70613363  0.65780927  1  1.702695  0.011602  0.299904  0.628691  0.008333  4.008328  0.01
C  C60  1  0.24775943  0.78272628  0.29555047  1  0.076869  0.005066  -0.151633  -0.376691  0.003218  4.042423  0.005
C  C61  1  0.75224395  0.28272681  0.20444937  1  0.076862  -0.005064  -0.151686  -0.376685  -0.003451  4.042468  -0.005
C  C62  1  0.75223876  0.21727585  0.70445148  1  0.076764  0.005053  -0.151681  -0.37672  0.003199  4.042549  0.005
C  C63  1  0.24776151  0.71727398  0.79554929  1  0.076882  0.005053  -0.151602  -0.377036  0.0032  4.043288  0.005
C  C64  1  0.26409415  0.81816255  0.36743237  1  0.773451  -0.004468  0.124496  0.26456  -0.001882  4.040256  -0.005
C  C65  1  0.73590675  0.31816154  0.13256791  1  0.77342  0.004469  0.124516  0.264601  0.001458  4.040459  0.005
C  C66  1  0.73591253  0.18183957  0.63257021  1  0.773637  -0.004465  0.124476  0.264637  -0.001877  4.04028  -0.005
C  C67  1  0.26408901  0.68183657  0.86743059  1  0.773548  -0.004463  0.12444  0.264475  -0.001871  4.040698  -0.005
C  C68  1  0.26283698  0.74933083  0.43073101  1  1.727178  0.011296  0.301526  0.627512  0.008083  3.9906  0.01
C  C69  1  0.73716524  0.24933097  0.06926923  1  1.727165  -0.011294  0.301536  0.627381  -0.00855  3.990845  -0.01
C  C70  1  0.73716848  0.25066928  0.56927093  1  1.727401  0.011292  0.301535  0.62736  0.008083  3.990964  0.01
C  C71  1  0.26283415  0.75066781  0.93072899  1  1.727186  0.011296  0.30157  0.627443  0.008088  3.990698  0.01
C  C72  1  0.92304942  0.00359988  0.20563910  1  0.582303  -0.000216  0.05353  0.116587  -0.000136  3.959748  0.0
C  C73  1  0.07695320  0.50359948  0.29436067  1  0.58228  0.000327  0.053516  0.116563  0.000201  3.959791  0.0
C  C74  1  0.07695483  0.99640023  0.79436384  1  0.581919  -0.000233  0.053447  0.116416  -0.000151  3.959812  0.0
C  C75  1  0.92304740  0.49639997  0.70563708  1  0.582298  -0.000344  0.053435  0.116366  -0.000228  3.959812  0.0
C  C76  1  0.75732550  0.00380160  0.17353014  1  -0.059094  5.2e-05  -0.08423  -0.12589  5.4e-05  3.973068  0.0
C  C77  1  0.24267591  0.50379983  0.32647010  1  -0.059053  7.1e-05  -0.084279  -0.12598  2.8e-05  3.973023  0.0
C  C78  1  0.24267997  0.99619785  0.82647344  1  -0.058584  5e-05  -0.084136  -0.125569  4.7e-05  3.972852  0.0
C  C79  1  0.75732348  0.49619895  0.67352702  1  -0.058987  -7.4e-05  -0.084194  -0.125745  -3.6e-05  3.972878  0.0
C  C80  1  0.64105941  0.00610359  0.21902439  1  -0.045872  -0.000219  -0.060864  -0.088827  -0.000134  3.891481  0.0
C  C81  1  0.35894443  0.50610294  0.28097494  1  -0.04589  0.000244  -0.060805  -0.088745  0.000143  3.891265  0.0
C  C82  1  0.35894606  0.99389787  0.78097755  1  -0.045703  -0.000251  -0.06088  -0.08896  -0.000163  3.89141  0.0
C  C83  1  0.64105497  0.49389852  0.71902273  1  -0.045919  -0.000276  -0.06084  -0.08894  -0.00018  3.891556  0.0
C  C84  1  0.69304090  0.00799143  0.29651406  1  0.513345  -8e-05  0.10776  0.125377  -1.1e-05  4.0159  0.0
C  C85  1  0.30695930  0.50799259  0.20348610  1  0.51331  0.000234  0.107782  0.125374  0.000102  4.015995  0.0
C  C86  1  0.30696336  0.99200936  0.70348834  1  0.513135  -5.7e-05  0.107768  0.125382  4e-06  4.015848  0.0
C  C87  1  0.69303768  0.49200954  0.79651194  1  0.513304  -0.000211  0.107775  0.12519  -9.4e-05  4.016346  0.0
C  C88  1  0.64201958  0.01469890  0.41533127  1  0.547413  -0.000305  0.06189  0.078922  -0.000189  3.917972  0.0
C  C89  1  0.35798061  0.51470034  0.08466835  1  0.547325  0.000317  0.061899  0.078945  0.00023  3.917887  0.0
C  C90  1  0.35798225  0.98529988  0.58467040  1  0.547365  -0.000302  0.061973  0.078965  -0.000182  3.917967  0.0
C  C91  1  0.64201394  0.48529978  0.91532951  1  0.54729  -0.000314  0.061916  0.078874  -0.000236  3.918057  0.0
C  C92  1  0.81107990  0.01333718  0.44254368  1  0.547932  -7e-05  0.065595  0.080695  3e-06  3.895285  0.0
C  C93  1  0.18892029  0.51333867  0.05745757  1  0.547951  5.8e-05  0.065555  0.080674  5.9e-05  3.895346  0.0
C  C94  1  0.18892072  0.98666226  0.55746008  1  0.548018  -6.7e-05  0.06554  0.080697  1.2e-05  3.895227  0.0
C  C95  1  0.81107668  0.48666145  0.94253992  1  0.54799  -5.4e-05  0.065539  0.080717  -5.6e-05  3.895211  0.0
C  C96  1  0.86336800  0.00718860  0.32411886  1  1.008054  -0.000138  0.219787  0.273865  -7.1e-05  4.041754  0.0
C  C97  1  0.13663341  0.50719047  0.17588139  1  1.00774  0.000177  0.219739  0.273789  8.8e-05  4.04167  0.0
C  C98  1  0.13663505  0.99281085  0.67588455  1  1.007613  -0.000113  0.219708  0.273813  -4.2e-05  4.041869  0.0
C  C99  1  0.86336477  0.49281032  0.82411565  1  1.007629  -0.000151  0.219773  0.273881  -6.5e-05  4.041733  0.0
N  N100  1  0.58288831  0.01120947  0.34405175  1  -1.183323  -0.001856  -0.302665  -0.282327  -0.001281  3.417053  -0.001
N  N101  1  0.41711188  0.51120975  0.15594950  1  -1.183254  0.001975  -0.302733  -0.282416  0.001272  3.417101  0.001
N  N102  1  0.41711473  0.98879131  0.65595110  1  -1.183333  -0.001824  -0.302733  -0.28243  -0.001258  3.417021  -0.001
N  N103  1  0.58288509  0.48879171  0.84404799  1  -1.183282  -0.001943  -0.302737  -0.282551  -0.001316  3.417503  -0.001
N  N104  1  0.92034312  0.00892431  0.39806738  1  -1.137224  -0.000194  -0.290895  -0.267445  -0.000169  3.272128  0.0
N  N105  1  0.07965586  0.50892533  0.10193214  1  -1.137116  0.000471  -0.290754  -0.267251  0.00031  3.271926  0.0
N  N106  1  0.07965871  0.99107581  0.60193593  1  -1.137169  -0.00013  -0.290852  -0.267424  -0.00012  3.272125  0.0
N  N107  1  0.92033990  0.49107478  0.89806526  1  -1.13714  -0.000407  -0.290855  -0.267462  -0.000276  3.272162  0.0
N  N108  1  0.97581409  0.00501192  0.27804147  1  -1.227802  -0.001714  -0.315304  -0.341522  -0.001176  3.415891  -0.001
N  N109  1  0.02418611  0.50501268  0.22195922  1  -1.227608  0.001759  -0.3153  -0.34149  0.001143  3.415784  0.001
N  N110  1  0.02419017  0.99498886  0.72196311  1  -1.227398  -0.001703  -0.315219  -0.341425  -0.00117  3.415867  -0.001
N  N111  1  0.97581207  0.49498811  0.77803781  1  -1.227437  -0.001749  -0.315256  -0.341433  -0.001196  3.4158  -0.001
O  O112  1  0.27826059  0.08289621  0.40084123  1  -1.047769  0.088198  -0.277806  -0.40729  0.057332  2.472912  0.081
O  O113  1  0.72172979  0.58289811  0.09915834  1  -1.047781  -0.088194  -0.27787  -0.407442  -0.060746  2.473093  -0.081
O  O114  1  0.72174488  0.91710323  0.59916125  1  -1.048586  0.0882  -0.277871  -0.407356  0.057331  2.472854  0.081
O  O115  1  0.27825870  0.41710268  0.90083907  1  -1.048275  0.088198  -0.277874  -0.407418  0.057335  2.472971  0.081
O  O116  1  0.27928051  0.09981461  0.24544949  1  -1.063222  0.089304  -0.277499  -0.398248  0.058195  2.439921  0.082
O  O117  1  0.72071590  0.59981630  0.25454947  1  -1.063224  -0.089302  -0.277494  -0.398244  -0.061655  2.439955  -0.082
O  O118  1  0.72072738  0.90018618  0.75455372  1  -1.063202  0.08931  -0.277517  -0.398304  0.0582  2.439997  0.082
O  O119  1  0.27927623  0.40018516  0.74544766  1  -1.063239  0.089304  -0.27749  -0.398282  0.058196  2.439983  0.082
O  O120  1  0.27994422  0.92119462  0.23264521  1  -1.085536  0.090665  -0.287195  -0.413852  0.05884  2.460078  0.083
O  O121  1  0.72004803  0.42119402  0.26735463  1  -1.085525  -0.090661  -0.287215  -0.413834  -0.06234  2.46007  -0.083
O  O122  1  0.72006367  0.07880549  0.76735745  1  -1.085857  0.090658  -0.287105  -0.413736  0.058838  2.460034  0.083
O  O123  1  0.27993804  0.57880610  0.73264315  1  -1.085579  0.090652  -0.28718  -0.413913  0.058833  2.46042  0.083
O  O124  1  0.28185214  0.89908947  0.38759815  1  -1.052304  0.083909  -0.271658  -0.385445  0.054761  2.407271  0.077
O  O125  1  0.71814257  0.39908974  0.11240183  1  -1.052282  -0.083915  -0.27163  -0.38542  -0.058044  2.407261  -0.077
O  O126  1  0.71816302  0.10091065  0.61240505  1  -1.052475  0.083918  -0.271637  -0.385458  0.054768  2.407094  0.077
O  O127  1  0.28183865  0.60090971  0.88759505  1  -1.0525  0.083922  -0.271638  -0.385502  0.054776  2.407368  0.077
F  F128  1  0.24623769  0.30360711  0.46363589  1  -0.630336  0.002567  -0.101634  -0.197473  0.001469  1.302848  0.002
F  F129  1  0.75375839  0.80360745  0.03636346  1  -0.630347  -0.002555  -0.101634  -0.197455  -0.001557  1.302888  -0.002
F  F130  1  0.75376050  0.69639167  0.53636278  1  -0.630365  0.002564  -0.101638  -0.197531  0.001471  1.302843  0.002
F  F131  1  0.24623375  0.19639334  0.96363641  1  -0.630326  0.002557  -0.10162  -0.197517  0.001456  1.302769  0.002
F  F132  1  0.09000791  0.19229487  0.48740413  1  -0.604516  0.001339  -0.100189  -0.198048  0.00068  1.341223  0.001
F  F133  1  0.90999077  0.69229503  0.01259573  1  -0.604511  -0.001332  -0.100206  -0.198062  -0.000739  1.341231  -0.001
F  F134  1  0.90999998  0.80770257  0.51259908  1  -0.604507  0.001341  -0.100219  -0.198145  0.000683  1.341094  0.001
F  F135  1  0.09000257  0.30770710  0.98740149  1  -0.604546  0.001338  -0.100229  -0.198142  0.000686  1.341189  0.001
F  F136  1  0.35343841  0.18357182  0.52188431  1  -0.621397  0.000454  -0.101721  -0.203209  0.000111  1.366653  0.0
F  F137  1  0.64656070  0.68357021  0.97811631  1  -0.621423  -0.00044  -0.101718  -0.203296  -0.000136  1.366829  0.0
F  F138  1  0.64657069  0.81643031  0.47811845  1  -0.62135  0.000446  -0.101714  -0.203241  0.000122  1.366591  0.0
F  F139  1  0.35343264  0.31642991  0.02188255  1  -0.621341  0.000449  -0.101735  -0.203259  0.000109  1.366614  0.0
F  F140  1  0.22979592  0.20076465  0.12941536  1  -0.606408  0.000606  -0.095203  -0.18819  0.000249  1.372393  0.0
F  F141  1  0.77020153  0.70076464  0.37058388  1  -0.606403  -0.000583  -0.095194  -0.188172  -0.000268  1.372455  0.0
F  F142  1  0.77019863  0.79923278  0.87058359  1  -0.606357  0.000584  -0.095177  -0.188612  0.000251  1.372822  0.0
F  F143  1  0.22979303  0.29923480  0.62941616  1  -0.606159  0.000607  -0.095188  -0.188159  0.000253  1.372427  0.0
F  F144  1  0.38752808  0.29375919  0.20088854  1  -0.616567  0.000963  -0.10254  -0.204967  0.000445  1.338173  0.001
F  F145  1  0.61247286  0.79376042  0.29911114  1  -0.616576  -0.000958  -0.102535  -0.204957  -0.000476  1.338193  -0.001
F  F146  1  0.61247011  0.70623758  0.79910958  1  -0.616646  0.000864  -0.102535  -0.201156  0.000364  1.333599  0.001
F  F147  1  0.38752897  0.20624104  0.70088725  1  -0.616568  0.000869  -0.102511  -0.204955  0.00036  1.338193  0.001
F  F148  1  0.12313797  0.30538593  0.19100610  1  -0.617647  0.002678  -0.098212  -0.198316  0.001567  1.355946  0.002
F  F149  1  0.87686537  0.80538432  0.30899542  1  -0.617653  -0.002668  -0.098193  -0.198293  -0.001653  1.355975  -0.002
F  F150  1  0.87686507  0.69461352  0.80899511  1  -0.617672  0.002595  -0.098175  -0.198759  0.001515  1.356245  0.002
F  F151  1  0.12313645  0.19461312  0.69100516  1  -0.617667  0.002605  -0.098164  -0.198279  0.001521  1.355944  0.002
F  F152  1  0.23652152  0.70320243  0.15874404  1  -0.618263  0.002728  -0.094073  -0.192007  0.00156  1.364253  0.002
F  F153  1  0.76347351  0.20320135  0.34125503  1  -0.618271  -0.002724  -0.094068  -0.191994  -0.001664  1.364314  -0.002
F  F154  1  0.76347425  0.29679970  0.84125664  1  -0.618321  0.002712  -0.09411  -0.192053  0.001579  1.364317  0.002
F  F155  1  0.23652710  0.79679676  0.65874219  1  -0.618348  0.002717  -0.094104  -0.192041  0.001566  1.364155  0.002
F  F156  1  0.12532035  0.82744411  0.10996000  1  -0.610497  0.000942  -0.105151  -0.205082  0.000429  1.312523  0.0
F  F157  1  0.87467932  0.32744309  0.39003966  1  -0.610508  -0.000931  -0.105138  -0.205041  -0.000453  1.312521  0.0
F  F158  1  0.87467058  0.17255869  0.89004415  1  -0.610454  0.000902  -0.105176  -0.20513  0.000401  1.312432  0.0
F  F159  1  0.12532613  0.67255501  0.60995627  1  -0.610522  0.000911  -0.105213  -0.205147  0.000401  1.312482  0.0
F  F160  1  0.39062066  0.81282729  0.12999562  1  -0.607904  0.000512  -0.105518  -0.201601  0.000139  1.316007  0.0
F  F161  1  0.60938146  0.31282909  0.37000583  1  -0.607921  -0.000504  -0.105514  -0.201555  -0.000166  1.316085  0.0
F  F162  1  0.60937269  0.18717484  0.87000433  1  -0.607878  0.000488  -0.105513  -0.20159  0.000135  1.316045  0.0
F  F163  1  0.39062278  0.68716969  0.62999384  1  -0.608005  0.000495  -0.105515  -0.201644  0.000124  1.316258  0.0
F  F164  1  0.27913806  0.78972803  0.49742267  1  -0.615123  0.000499  -0.094864  -0.191525  0.000177  1.392019  0.0
F  F165  1  0.72086167  0.28972797  0.00257801  1  -0.615113  -0.000483  -0.094859  -0.191479  -0.000211  1.392087  0.0
F  F166  1  0.72086861  0.21027142  0.50257990  1  -0.615053  0.000484  -0.094849  -0.191467  0.000187  1.39211  0.0
F  F167  1  0.27913652  0.71027147  0.99742066  1  -0.615062  0.0005  -0.094856  -0.191486  0.000185  1.391996  0.0
F  F168  1  0.12187885  0.70150611  0.42083163  1  -0.606929  0.00217  -0.10679  -0.209621  0.001259  1.319741  0.002
F  F169  1  0.87812466  0.20150684  0.07916806  1  -0.606918  -0.002142  -0.106777  -0.209571  -0.001316  1.319849  -0.002
F  F170  1  0.87812661  0.29849468  0.57917031  1  -0.606983  0.002157  -0.106797  -0.209609  0.001234  1.319834  0.002
F  F171  1  0.12187595  0.79849261  0.92083025  1  -0.606962  0.00215  -0.106796  -0.209598  0.001227  1.319768  0.002
F  F172  1  0.38601692  0.68884739  0.43223660  1  -0.619654  0.001481  -0.108365  -0.212204  0.00078  1.302322  0.001
F  F173  1  0.61398540  0.18884693  0.06776298  1  -0.619665  -0.001476  -0.108368  -0.212179  -0.000839  1.302295  -0.001
F  F174  1  0.61398733  0.31115139  0.56776471  1  -0.619873  0.001477  -0.108356  -0.212157  0.000776  1.302422  0.001
F  F175  1  0.38601521  0.81114984  0.93223369  1  -0.619623  0.00148  -0.108356  -0.21221  0.00079  1.302491  0.001
