# generated using pymatgen
data_CdH5C7S2N3
_symmetry_space_group_name_H-M   'P 1'
_cell_length_a   5.92917914
_cell_length_b   12.17543564
_cell_length_c   13.67103733
_cell_angle_alpha   90.00060493
_cell_angle_beta   102.63522277
_cell_angle_gamma   90.00030844
_symmetry_Int_Tables_number   1
_chemical_formula_structural   CdH5C7S2N3
_chemical_formula_sum   'Cd4 H20 C28 S8 N12'
_cell_volume   963.01613477
_cell_formula_units_Z   4
loop_
 _symmetry_equiv_pos_site_id
 _symmetry_equiv_pos_as_xyz
  1  'x, y, z'
loop_
 _atom_site_type_symbol
 _atom_site_label
 _atom_site_symmetry_multiplicity
 _atom_site_fract_x
 _atom_site_fract_y
 _atom_site_fract_z
 _atom_site_occupancy
 _atom_site_hle17_bader_spin_density
 _atom_site_hle17_ddec_charge
 _atom_site_hle17_ddec_spin_density
 _atom_site_hle17_ddec_sum_bond_order
 _atom_site_hle17_magmom
 _atom_site_hse06_10hf_bader_spin_density
 _atom_site_hse06_10hf_ddec_charge
 _atom_site_hse06_10hf_ddec_spin_density
 _atom_site_hse06_10hf_ddec_sum_bond_order
 _atom_site_hse06_10hf_magmom
 _atom_site_hse06_bader_spin_density
 _atom_site_hse06_ddec_charge
 _atom_site_hse06_ddec_spin_density
 _atom_site_hse06_ddec_sum_bond_order
 _atom_site_hse06_magmom
 _atom_site_pbe_bader_spin_density
 _atom_site_pbe_cm5_charge
 _atom_site_pbe_ddec_charge
 _atom_site_pbe_ddec_spin_density
 _atom_site_pbe_ddec_sum_bond_order
 _atom_site_pbe_magmom
Cd  Cd0  1  0.39856526  0.84006891  0.52223196  1  0  0.919419  0  2.036191  0  0  0.750408  0  2.498477  0  0  0.793766  0  2.463676  0  0  0.689021  0.720195  0  2.521826  0
Cd  Cd1  1  0.10143297  0.34006799  0.97776451  1  0  0.919384  0  2.036355  0  0  0.750407  0  2.498623  0  0  0.793765  0  2.463821  0  0  0.689021  0.720192  0  2.521986  0
Cd  Cd2  1  0.60145925  0.15992480  0.47777555  1  0  0.919425  0  2.036424  0  0  0.750477  0  2.498615  0  0  0.793834  0  2.463815  0  0  0.689008  0.720261  0  2.521966  0
Cd  Cd3  1  0.89856208  0.65993146  0.02223075  1  0  0.919357  0  2.036359  0  0  0.750387  0  2.498607  0  0  0.793742  0  2.463809  0  0  0.689012  0.720172  0  2.521956  0
H  H4  1  0.69750409  0.71213372  0.38540217  1  0  0.068308  0  0.969969  0  0  0.074124  0  1.042891  0  0  0.075692  0  1.041995  0  0  0.103992  0.07293  0  1.043621  0
H  H5  1  0.80251823  0.21214427  0.11460616  1  0  0.068315  0  0.969884  0  0  0.074088  0  1.042861  0  0  0.075656  0  1.041963  0  0  0.103912  0.072891  0  1.043597  0
H  H6  1  0.30249107  0.28785424  0.61460554  1  0  0.068266  0  0.969785  0  0  0.074093  0  1.042721  0  0  0.075662  0  1.041825  0  0  0.103967  0.072897  0  1.043459  0
H  H7  1  0.19747684  0.78785190  0.88539276  1  0  0.068295  0  0.969829  0  0  0.074075  0  1.04281  0  0  0.075643  0  1.041911  0  0  0.103898  0.07288  0  1.043545  0
H  H8  1  0.69544355  0.53950273  0.28720577  1  0  0.097675  0  0.977424  0  0  0.103442  0  1.047194  0  0  0.106072  0  1.047419  0  0  0.096967  0.101542  0  1.047216  0
H  H9  1  0.80457213  0.03951862  0.21280552  1  0  0.097725  0  0.977162  0  0  0.103459  0  1.047018  0  0  0.106099  0  1.047248  0  0  0.096947  0.101553  0  1.047042  0
H  H10  1  0.30454638  0.46049016  0.71279706  1  0  0.097734  0  0.977236  0  0  0.103537  0  1.046988  0  0  0.106174  0  1.047218  0  0  0.097011  0.101628  0  1.047017  0
H  H11  1  0.19542636  0.96047508  0.78718933  1  0  0.097639  0  0.977187  0  0  0.103449  0  1.046981  0  0  0.10609  0  1.047214  0  0  0.096919  0.101542  0  1.047008  0
H  H12  1  0.37313905  0.40377991  0.28285410  1  0  0.100827  0  0.934925  0  0  0.114686  0  0.99006  0  0  0.116838  0  0.988732  0  0  0.102434  0.113086  0  0.991091  0
H  H13  1  0.12686087  0.90379256  0.21715064  1  0  0.100778  0  0.934997  0  0  0.114668  0  0.990091  0  0  0.116821  0  0.988762  0  0  0.102422  0.113069  0  0.991121  0
H  H14  1  0.62682307  0.59622283  0.71712858  1  0  0.100844  0  0.935134  0  0  0.114671  0  0.990303  0  0  0.116821  0  0.98898  0  0  0.102457  0.113073  0  0.991327  0
H  H15  1  0.87315147  0.09620771  0.78284843  1  0  0.10084  0  0.935002  0  0  0.11471  0  0.990136  0  0  0.116865  0  0.988801  0  0  0.102425  0.113106  0  0.991164  0
H  H16  1  0.06831890  0.44734003  0.37844017  1  0  0.092555  0  0.986429  0  0  0.098166  0  1.057941  0  0  0.100938  0  1.057429  0  0  0.095379  0.096181  0  1.058452  0
H  H17  1  0.43167660  0.94734883  0.12155941  1  0  0.092609  0  0.986355  0  0  0.098151  0  1.057953  0  0  0.100921  0  1.05744  0  0  0.095366  0.096171  0  1.058449  0
H  H18  1  0.93165017  0.55266189  0.62154681  1  0  0.092552  0  0.986358  0  0  0.09815  0  1.057862  0  0  0.100923  0  1.057346  0  0  0.095438  0.096166  0  1.058372  0
H  H19  1  0.56833401  0.05265801  0.87843949  1  0  0.092563  0  0.986322  0  0  0.09813  0  1.057887  0  0  0.100904  0  1.057371  0  0  0.095354  0.096145  0  1.058397  0
H  H20  1  0.09849387  0.62409328  0.47494161  1  0  0.062484  0  0.96328  0  0  0.070259  0  1.033408  0  0  0.072081  0  1.032124  0  0  0.104233  0.068905  0  1.034333  0
H  H21  1  0.40150768  0.12409634  0.02505567  1  0  0.062484  0  0.963352  0  0  0.07028  0  1.033452  0  0  0.072105  0  1.032157  0  0  0.104247  0.068944  0  1.034361  0
H  H22  1  0.90149778  0.37589797  0.52506065  1  0  0.062485  0  0.963214  0  0  0.070184  0  1.033424  0  0  0.072049  0  1.032102  0  0  0.104215  0.068818  0  1.034361  0
H  H23  1  0.59849430  0.87590887  0.97494316  1  0  0.062444  0  0.963323  0  0  0.070224  0  1.033453  0  0  0.072052  0  1.032152  0  0  0.104237  0.068888  0  1.034366  0
C  C24  1  0.85204449  0.91863587  0.40735555  1  0  0.323216  0  3.943489  0  0  0.299301  0  4.247516  0  0  0.320538  0  4.262381  0  0  0.16031  0.284792  0  4.237227  0
C  C25  1  0.64795745  0.41864500  0.09264759  1  0  0.323348  0  3.943165  0  0  0.29944  0  4.24719  0  0  0.320681  0  4.262053  0  0  0.160322  0.284939  0  4.236899  0
C  C26  1  0.14798350  0.08137180  0.59265375  1  0  0.323353  0  3.943194  0  0  0.299443  0  4.247225  0  0  0.320685  0  4.262084  0  0  0.160322  0.284936  0  4.23694  0
C  C27  1  0.35203935  0.58136267  0.90735076  1  0  0.323343  0  3.942991  0  0  0.299435  0  4.247022  0  0  0.320675  0  4.261883  0  0  0.160374  0.284928  0  4.23673  0
C  C28  1  0.95943935  0.78149158  0.63323492  1  0  0.309792  0  3.988189  0  0  0.290475  0  4.287202  0  0  0.312049  0  4.301796  0  0  0.153031  0.275792  0  4.276978  0
C  C29  1  0.54053885  0.28147683  0.86676529  1  0  0.309745  0  3.987538  0  0  0.290437  0  4.286571  0  0  0.312013  0  4.301174  0  0  0.152967  0.27575  0  4.276346  0
C  C30  1  0.04057127  0.21851280  0.36676398  1  0  0.309667  0  3.988314  0  0  0.290352  0  4.287337  0  0  0.311929  0  4.301939  0  0  0.152941  0.275664  0  4.277116  0
C  C31  1  0.45944933  0.71851852  0.13323518  1  0  0.309732  0  3.988025  0  0  0.290413  0  4.287055  0  0  0.311987  0  4.301653  0  0  0.152973  0.275722  0  4.27684  0
C  C32  1  0.56247388  0.65075999  0.38308035  1  0  0.122106  0  3.712263  0  0  0.092855  0  3.958983  0  0  0.099467  0  3.978935  0  0  0.039595  0.088646  0  3.94532  0
C  C33  1  0.93754037  0.15077167  0.11692594  1  0  0.121984  0  3.712332  0  0  0.092792  0  3.959044  0  0  0.099402  0  3.979  0  0  0.039562  0.088582  0  3.945383  0
C  C34  1  0.43753340  0.34922961  0.61693067  1  0  0.122235  0  3.711662  0  0  0.092973  0  3.958433  0  0  0.099586  0  3.978382  0  0  0.0397  0.088763  0  3.944776  0
C  C35  1  0.06244948  0.84922943  0.88306884  1  0  0.121962  0  3.712211  0  0  0.092754  0  3.958977  0  0  0.099364  0  3.978931  0  0  0.039565  0.088541  0  3.945321  0
C  C36  1  0.56066065  0.55409288  0.32848887  1  0  -0.116507  0  3.733494  0  0  -0.126132  0  3.980055  0  0  -0.134037  0  4.003093  0  0  -0.086134  -0.121075  0  3.964596  0
C  C37  1  0.93935872  0.05410854  0.17151851  1  0  -0.116458  0  3.733386  0  0  -0.126069  0  3.979835  0  0  -0.13399  0  4.002891  0  0  -0.086032  -0.120997  0  3.964353  0
C  C38  1  0.43932929  0.44590165  0.67151396  1  0  -0.116514  0  3.733209  0  0  -0.126173  0  3.979755  0  0  -0.13409  0  4.002801  0  0  -0.086184  -0.121105  0  3.964286  0
C  C39  1  0.06064148  0.94588764  0.82847430  1  0  -0.116414  0  3.733324  0  0  -0.126075  0  3.979731  0  0  -0.134009  0  4.002808  0  0  -0.08605  -0.12101  0  3.964244  0
C  C40  1  0.38194831  0.47925100  0.32625280  1  0  0.013017  0  3.690518  0  0  -0.006829  0  3.936281  0  0  -0.003067  0  3.954812  0  0  -0.066005  -0.008998  0  3.923608  0
C  C41  1  0.11806338  0.97926145  0.17375224  1  0  0.013001  0  3.690707  0  0  -0.006845  0  3.936432  0  0  -0.003083  0  3.95497  0  0  -0.066039  -0.009022  0  3.92376  0
C  C42  1  0.61802775  0.52074599  0.67374434  1  0  0.012869  0  3.690749  0  0  -0.006981  0  3.936542  0  0  -0.00322  0  3.955074  0  0  -0.066057  -0.009149  0  3.923859  0
C  C43  1  0.88195067  0.02074047  0.82624333  1  0  0.013008  0  3.690422  0  0  -0.006844  0  3.936163  0  0  -0.003082  0  3.954695  0  0  -0.066002  -0.009003  0  3.923473  0
C  C44  1  0.21193469  0.50342278  0.37918937  1  0  -0.11713  0  3.73486  0  0  -0.126537  0  3.981356  0  0  -0.133731  0  4.003564  0  0  -0.087399  -0.121955  0  3.966457  0
C  C45  1  0.28806811  0.00343009  0.12081207  1  0  -0.117223  0  3.734998  0  0  -0.126598  0  3.981518  0  0  -0.133792  0  4.003727  0  0  -0.087408  -0.122013  0  3.966629  0
C  C46  1  0.78803615  0.49657503  0.62080290  1  0  -0.117163  0  3.734939  0  0  -0.12651  0  3.981392  0  0  -0.133705  0  4.003611  0  0  -0.087469  -0.121932  0  3.966492  0
C  C47  1  0.71194422  0.99657183  0.87918479  1  0  -0.117249  0  3.734875  0  0  -0.126614  0  3.98138  0  0  -0.13381  0  4.003589  0  0  -0.087441  -0.122036  0  3.966486  0
C  C48  1  0.22639251  0.60172597  0.43190417  1  0  0.12261  0  3.72082  0  0  0.094362  0  3.964957  0  0  0.100977  0  3.984876  0  0  0.039207  0.090168  0  3.951339  0
C  C49  1  0.27361384  0.10173259  0.06809702  1  0  0.122646  0  3.721003  0  0  0.094403  0  3.965136  0  0  0.101023  0  3.985052  0  0  0.039241  0.090197  0  3.951507  0
C  C50  1  0.77360434  0.39827020  0.56810004  1  0  0.122679  0  3.721131  0  0  0.094483  0  3.965226  0  0  0.101061  0  3.985128  0  0  0.039232  0.090302  0  3.951612  0
C  C51  1  0.72638814  0.89827343  0.93190181  1  0  0.12269  0  3.72107  0  0  0.094453  0  3.965213  0  0  0.101074  0  3.985129  0  0  0.039221  0.090238  0  3.951597  0
S  S52  1  0.58077710  0.95741512  0.37802902  1  0  -0.321787  0  2.296384  0  0  -0.279595  0  2.653492  0  0  -0.298705  0  2.647031  0  0  -0.111293  -0.266109  0  2.657563  0
S  S53  1  0.91922380  0.45741698  0.12197144  1  0  -0.321788  0  2.296383  0  0  -0.279603  0  2.653497  0  0  -0.298712  0  2.647032  0  0  -0.111286  -0.266124  0  2.65757  0
S  S54  1  0.41924223  0.04258515  0.62197801  1  0  -0.321736  0  2.29626  0  0  -0.279555  0  2.653377  0  0  -0.298665  0  2.646914  0  0  -0.111273  -0.266073  0  2.657442  0
S  S55  1  0.08076956  0.54258412  0.87802952  1  0  -0.32184  0  2.296277  0  0  -0.279637  0  2.653364  0  0  -0.298745  0  2.646896  0  0  -0.111328  -0.266148  0  2.657433  0
S  S56  1  0.22790163  0.74132163  0.66718742  1  0  -0.323719  0  2.197431  0  0  -0.290704  0  2.532098  0  0  -0.307904  0  2.526106  0  0  -0.125708  -0.278554  0  2.535885  0
S  S57  1  0.27207575  0.24131925  0.83280695  1  0  -0.3236  0  2.197464  0  0  -0.290598  0  2.532151  0  0  -0.307798  0  2.526163  0  0  -0.125685  -0.278451  0  2.535945  0
S  S58  1  0.77212632  0.25867125  0.33281822  1  0  -0.323534  0  2.19789  0  0  -0.290513  0  2.532546  0  0  -0.307713  0  2.526563  0  0  -0.125595  -0.278367  0  2.536337  0
S  S59  1  0.72791589  0.75867117  0.16719384  1  0  -0.323623  0  2.197552  0  0  -0.290596  0  2.532189  0  0  -0.307797  0  2.526198  0  0  -0.12565  -0.278446  0  2.535984  0
N  N60  1  0.04608255  0.88898445  0.42440994  1  0  -0.502598  0  2.859695  0  0  -0.447813  0  3.133982  0  0  -0.468641  0  3.142337  0  0  -0.379192  -0.433632  0  3.128193  0
N  N61  1  0.45390326  0.38899237  0.07559261  1  0  -0.502736  0  2.859338  0  0  -0.447961  0  3.133648  0  0  -0.468794  0  3.142003  0  0  -0.379221  -0.433765  0  3.127826  0
N  N62  1  0.95393510  0.11103800  0.57560205  1  0  -0.502763  0  2.85954  0  0  -0.44797  0  3.133796  0  0  -0.4688  0  3.142147  0  0  -0.379202  -0.433772  0  3.127977  0
N  N63  1  0.54608660  0.61101941  0.92440143  1  0  -0.502655  0  2.859291  0  0  -0.447889  0  3.133614  0  0  -0.468721  0  3.14197  0  0  -0.379228  -0.433699  0  3.127803  0
N  N64  1  0.76442476  0.80980235  0.61122781  1  0  -0.518952  0  2.89201  0  0  -0.459522  0  3.16176  0  0  -0.480994  0  3.170351  0  0  -0.393652  -0.444869  0  3.155756  0
N  N65  1  0.73558510  0.30978991  0.88877707  1  0  -0.519022  0  2.891394  0  0  -0.459591  0  3.161139  0  0  -0.481067  0  3.169735  0  0  -0.393629  -0.444933  0  3.155132  0
N  N66  1  0.23561695  0.19019793  0.38877253  1  0  -0.519103  0  2.891749  0  0  -0.45969  0  3.161518  0  0  -0.48117  0  3.170112  0  0  -0.393732  -0.445015  0  3.155472  0
N  N67  1  0.26441346  0.69021365  0.11122437  1  0  -0.518996  0  2.891796  0  0  -0.459566  0  3.161547  0  0  -0.48104  0  3.170139  0  0  -0.393663  -0.444902  0  3.155531  0
N  N68  1  0.39819904  0.67447428  0.43378981  1  0  -0.331285  0  3.291878  0  0  -0.250927  0  3.548114  0  0  -0.271317  0  3.569964  0  0  -0.334762  -0.237036  0  3.532855  0
N  N69  1  0.10181733  0.17447970  0.06621442  1  0  -0.331164  0  3.29193  0  0  -0.250862  0  3.548197  0  0  -0.271252  0  3.570045  0  0  -0.334703  -0.236984  0  3.53296  0
N  N70  1  0.60180302  0.32551861  0.56621781  1  0  -0.331354  0  3.291878  0  0  -0.250995  0  3.548099  0  0  -0.271389  0  3.569962  0  0  -0.334792  -0.237109  0  3.532844  0
N  N71  1  0.89817601  0.82552386  0.93378287  1  0  -0.331097  0  3.291865  0  0  -0.250802  0  3.54813  0  0  -0.271189  0  3.569976  0  0  -0.334631  -0.236913  0  3.532885  0
