# generated using pymatgen
data_CdH10C7Se2SN4
_symmetry_space_group_name_H-M   'P 1'
_cell_length_a   7.28099006
_cell_length_b   11.89446976
_cell_length_c   14.46605533
_cell_angle_alpha   89.99909877
_cell_angle_beta   90.00036454
_cell_angle_gamma   90.00147323
_symmetry_Int_Tables_number   1
_chemical_formula_structural   CdH10C7Se2SN4
_chemical_formula_sum   'Cd4 H40 C28 Se8 S4 N16'
_cell_volume   1252.81125640
_cell_formula_units_Z   4
loop_
 _symmetry_equiv_pos_site_id
 _symmetry_equiv_pos_as_xyz
  1  'x, y, z'
loop_
 _atom_site_type_symbol
 _atom_site_label
 _atom_site_symmetry_multiplicity
 _atom_site_fract_x
 _atom_site_fract_y
 _atom_site_fract_z
 _atom_site_occupancy
 _atom_site_hle17_bader_spin_density
 _atom_site_hle17_ddec_charge
 _atom_site_hle17_ddec_spin_density
 _atom_site_hle17_ddec_sum_bond_order
 _atom_site_hle17_magmom
 _atom_site_hse06_10hf_bader_spin_density
 _atom_site_hse06_10hf_ddec_charge
 _atom_site_hse06_10hf_ddec_spin_density
 _atom_site_hse06_10hf_ddec_sum_bond_order
 _atom_site_hse06_10hf_magmom
 _atom_site_hse06_bader_spin_density
 _atom_site_hse06_ddec_charge
 _atom_site_hse06_ddec_spin_density
 _atom_site_hse06_ddec_sum_bond_order
 _atom_site_hse06_magmom
 _atom_site_pbe_bader_spin_density
 _atom_site_pbe_cm5_charge
 _atom_site_pbe_ddec_charge
 _atom_site_pbe_ddec_spin_density
 _atom_site_pbe_ddec_sum_bond_order
 _atom_site_pbe_magmom
Cd  Cd0  1  0.17743676  0.80004446  0.28112842  1  0  0.789534  0  2.078012  0  0  0.63095  0  2.556289  0  0  0.673621  0  2.520688  0  0  0.569055  0.601675  0  2.580022  0
Cd  Cd1  1  0.82256245  0.30001801  0.71886639  1  0  0.789472  0  2.078033  0  0  0.630884  0  2.556304  0  0  0.673557  0  2.520701  0  0  0.56903  0.601603  0  2.580047  0
Cd  Cd2  1  0.82256648  0.80001868  0.78113929  1  0  0.789533  0  2.077867  0  0  0.630947  0  2.556122  0  0  0.673621  0  2.520519  0  0  0.569036  0.601672  0  2.579858  0
Cd  Cd3  1  0.17741351  0.30005219  0.21886451  1  0  0.789539  0  2.077946  0  0  0.630943  0  2.556225  0  0  0.673615  0  2.520627  0  0  0.569043  0.601674  0  2.579943  0
H  H4  1  0.69595748  0.90514106  0.45797084  1  0  0.087176  0  0.96274  0  0  0.105736  0  1.034263  0  0  0.106371  0  1.034374  0  0  0.091529  0.10518  0  1.034274  0
H  H5  1  0.30404340  0.40513842  0.54202331  1  0  0.087126  0  0.962813  0  0  0.105724  0  1.034269  0  0  0.106357  0  1.034387  0  0  0.091516  0.105169  0  1.03428  0
H  H6  1  0.30403181  0.90514160  0.95797314  1  0  0.0873  0  0.962871  0  0  0.105835  0  1.034346  0  0  0.10647  0  1.03446  0  0  0.091587  0.105276  0  1.034359  0
H  H7  1  0.69594984  0.40514041  0.04202101  1  0  0.08724  0  0.962847  0  0  0.105794  0  1.034341  0  0  0.106429  0  1.034454  0  0  0.091534  0.105237  0  1.034352  0
H  H8  1  0.65341393  0.94557829  0.34079966  1  0  0.100585  0  0.969547  0  0  0.116463  0  1.038272  0  0  0.116947  0  1.038798  0  0  0.092631  0.115996  0  1.038038  0
H  H9  1  0.34658041  0.44557576  0.65919466  1  0  0.100595  0  0.969514  0  0  0.116489  0  1.038197  0  0  0.116972  0  1.038727  0  0  0.092647  0.116031  0  1.037952  0
H  H10  1  0.34657970  0.94558117  0.84080210  1  0  0.100554  0  0.969547  0  0  0.11642  0  1.038269  0  0  0.116903  0  1.038799  0  0  0.0926  0.115955  0  1.038027  0
H  H11  1  0.65341876  0.44557791  0.15919429  1  0  0.100618  0  0.969533  0  0  0.116501  0  1.038214  0  0  0.116985  0  1.038742  0  0  0.092637  0.116021  0  1.037991  0
H  H12  1  0.53996698  0.82596001  0.38795893  1  0  0.091099  0  0.990062  0  0  0.108064  0  1.062313  0  0  0.109065  0  1.061845  0  0  0.093116  0.107272  0  1.062692  0
H  H13  1  0.46002371  0.32595849  0.61204454  1  0  0.091051  0  0.990072  0  0  0.107996  0  1.062364  0  0  0.108998  0  1.061895  0  0  0.093066  0.107203  0  1.062745  0
H  H14  1  0.46001948  0.82596132  0.88795758  1  0  0.091073  0  0.990039  0  0  0.108033  0  1.062268  0  0  0.109034  0  1.061798  0  0  0.093091  0.107239  0  1.062652  0
H  H15  1  0.53996297  0.32595886  0.11204036  1  0  0.091152  0  0.99008  0  0  0.10811  0  1.062309  0  0  0.109111  0  1.061842  0  0  0.093136  0.107319  0  1.062681  0
H  H16  1  0.90784404  0.07104471  0.48980418  1  0  0.093904  0  0.945655  0  0  0.113973  0  1.011698  0  0  0.11441  0  1.011913  0  0  0.092979  0.113502  0  1.011754  0
H  H17  1  0.09216341  0.57104946  0.51019359  1  0  0.093885  0  0.945626  0  0  0.113969  0  1.011661  0  0  0.114414  0  1.011857  0  0  0.092962  0.113495  0  1.01172  0
H  H18  1  0.09215869  0.07105116  0.98980788  1  0  0.093924  0  0.945611  0  0  0.113999  0  1.011663  0  0  0.11445  0  1.011843  0  0  0.092981  0.113525  0  1.011721  0
H  H19  1  0.90784052  0.57105058  0.01019059  1  0  0.093904  0  0.945616  0  0  0.113953  0  1.011671  0  0  0.114396  0  1.01187  0  0  0.092973  0.113478  0  1.01173  0
H  H20  1  0.98859738  0.06385434  0.60654592  1  0  0.093313  0  0.969907  0  0  0.110907  0  1.039228  0  0  0.110505  0  1.040858  0  0  0.093725  0.11108  0  1.038167  0
H  H21  1  0.01140976  0.56386173  0.39345125  1  0  0.09333  0  0.969928  0  0  0.110912  0  1.039254  0  0  0.110509  0  1.040884  0  0  0.093772  0.111086  0  1.038192  0
H  H22  1  0.01140706  0.06386068  0.10654973  1  0  0.093296  0  0.969949  0  0  0.110882  0  1.039284  0  0  0.110479  0  1.040913  0  0  0.093747  0.111053  0  1.038219  0
H  H23  1  0.98858910  0.56386211  0.89344883  1  0  0.093292  0  0.970033  0  0  0.110844  0  1.039381  0  0  0.11044  0  1.041013  0  0  0.093757  0.111015  0  1.03832  0
H  H24  1  0.95257215  0.93723533  0.54300252  1  0  0.092977  0  0.990025  0  0  0.106561  0  1.067423  0  0  0.108269  0  1.066145  0  0  0.093894  0.105227  0  1.068456  0
H  H25  1  0.04742596  0.43724121  0.45699882  1  0  0.093007  0  0.990155  0  0  0.106553  0  1.067556  0  0  0.108256  0  1.066285  0  0  0.093921  0.105218  0  1.06859  0
H  H26  1  0.04742285  0.93724140  0.04300436  1  0  0.093043  0  0.990077  0  0  0.10658  0  1.067491  0  0  0.108281  0  1.066223  0  0  0.093917  0.105247  0  1.068523  0
H  H27  1  0.95256839  0.43724271  0.95699559  1  0  0.093031  0  0.990129  0  0  0.106541  0  1.067569  0  0  0.108245  0  1.066298  0  0  0.093905  0.105206  0  1.068603  0
H  H28  1  0.51227795  0.14633378  0.39678185  1  0  0.080611  0  0.938237  0  0  0.092806  0  1.006693  0  0  0.093837  0  1.006271  0  0  0.096008  0.091936  0  1.00721  0
H  H29  1  0.48773403  0.64632952  0.60321979  1  0  0.080657  0  0.938259  0  0  0.09288  0  1.006665  0  0  0.093911  0  1.006244  0  0  0.096041  0.092  0  1.007191  0
H  H30  1  0.48772814  0.14633217  0.89677851  1  0  0.080666  0  0.938228  0  0  0.092842  0  1.006673  0  0  0.093872  0  1.006255  0  0  0.096019  0.091966  0  1.007197  0
H  H31  1  0.51227286  0.64633282  0.10321967  1  0  0.08067  0  0.938232  0  0  0.092838  0  1.006689  0  0  0.093868  0  1.006269  0  0  0.096023  0.091965  0  1.007212  0
H  H32  1  0.58073412  0.10392614  0.50962433  1  0  0.06945  0  0.950801  0  0  0.081856  0  1.020002  0  0  0.082254  0  1.020247  0  0  0.095456  0.081416  0  1.020045  0
H  H33  1  0.41927883  0.60392801  0.49037924  1  0  0.069492  0  0.95084  0  0  0.081878  0  1.02005  0  0  0.082274  0  1.020299  0  0  0.095501  0.081436  0  1.020095  0
H  H34  1  0.41927077  0.10393050  0.00962183  1  0  0.069394  0  0.950875  0  0  0.081789  0  1.020063  0  0  0.082184  0  1.020314  0  0  0.095466  0.081349  0  1.020106  0
H  H35  1  0.58073256  0.60393374  0.99037897  1  0  0.069382  0  0.950905  0  0  0.081785  0  1.020082  0  0  0.082181  0  1.02033  0  0  0.095472  0.081346  0  1.020127  0
H  H36  1  0.29448644  0.17501017  0.56542369  1  0  0.076447  0  0.93636  0  0  0.090391  0  1.001111  0  0  0.091097  0  1.00129  0  0  0.103834  0.089823  0  1.001072  0
H  H37  1  0.70552812  0.67501845  0.43457826  1  0  0.076504  0  0.936344  0  0  0.090413  0  1.001105  0  0  0.091126  0  1.001289  0  0  0.103869  0.089849  0  1.00106  0
H  H38  1  0.70552490  0.17501735  0.06542212  1  0  0.076427  0  0.936392  0  0  0.090349  0  1.001179  0  0  0.091047  0  1.001355  0  0  0.10383  0.089781  0  1.001131  0
H  H39  1  0.29448554  0.67501884  0.93457500  1  0  0.076385  0  0.936363  0  0  0.090272  0  1.001176  0  0  0.090976  0  1.001357  0  0  0.10381  0.08971  0  1.00113  0
H  H40  1  0.20711194  0.19085071  0.45079372  1  0  0.063191  0  0.937188  0  0  0.071678  0  1.013965  0  0  0.072605  0  1.013446  0  0  0.095325  0.070911  0  1.014456  0
H  H41  1  0.79290329  0.69085229  0.54920803  1  0  0.063239  0  0.937176  0  0  0.07168  0  1.013973  0  0  0.072611  0  1.013466  0  0  0.095328  0.070901  0  1.014479  0
H  H42  1  0.79289670  0.19085474  0.95079136  1  0  0.063232  0  0.93712  0  0  0.071696  0  1.013931  0  0  0.072615  0  1.013413  0  0  0.09534  0.070914  0  1.014439  0
H  H43  1  0.20711028  0.69085583  0.04920279  1  0  0.063182  0  0.937156  0  0  0.071668  0  1.013937  0  0  0.072597  0  1.013414  0  0  0.095328  0.070899  0  1.014437  0
C  C44  1  0.27704964  0.94286951  0.46563753  1  0  0.340246  0  3.810078  0  0  0.283701  0  4.109598  0  0  0.311031  0  4.116858  0  0  0.239674  0.265465  0  4.103991  0
C  C45  1  0.72294734  0.44287025  0.53436581  1  0  0.339943  0  3.810175  0  0  0.283369  0  4.109674  0  0  0.310694  0  4.116937  0  0  0.23958  0.265131  0  4.104073  0
C  C46  1  0.72294271  0.94287244  0.96563495  1  0  0.340162  0  3.809713  0  0  0.283646  0  4.10918  0  0  0.31097  0  4.116444  0  0  0.239661  0.265409  0  4.103574  0
C  C47  1  0.27704877  0.44287573  0.03435871  1  0  0.339999  0  3.810013  0  0  0.283506  0  4.109541  0  0  0.310831  0  4.116805  0  0  0.239609  0.265275  0  4.103925  0
C  C48  1  0.59106218  0.91046088  0.40333722  1  0  -0.173339  0  3.701678  0  0  -0.277661  0  3.953179  0  0  -0.273925  0  3.962878  0  0  -0.147198  -0.279872  0  3.946529  0
C  C49  1  0.40893344  0.41045885  0.59666308  1  0  -0.173277  0  3.701464  0  0  -0.277591  0  3.952969  0  0  -0.273855  0  3.962666  0  0  -0.147141  -0.279816  0  3.946322  0
C  C50  1  0.40892665  0.91046138  0.90333917  1  0  -0.173426  0  3.701583  0  0  -0.277656  0  3.95309  0  0  -0.273921  0  3.962788  0  0  -0.147183  -0.279868  0  3.946448  0
C  C51  1  0.59106072  0.41046086  0.09665837  1  0  -0.173547  0  3.701823  0  0  -0.277818  0  3.953285  0  0  -0.274085  0  3.962984  0  0  -0.147229  -0.280024  0  3.946648  0
C  C52  1  0.99738065  0.02483693  0.53800366  1  0  -0.157239  0  3.668761  0  0  -0.258105  0  3.917382  0  0  -0.254058  0  3.926908  0  0  -0.140146  -0.260539  0  3.910938  0
C  C53  1  0.00262760  0.52484287  0.46199471  1  0  -0.157264  0  3.668778  0  0  -0.258171  0  3.917487  0  0  -0.254117  0  3.927012  0  0  -0.140241  -0.260609  0  3.911053  0
C  C54  1  0.00262129  0.02484313  0.03800744  1  0  -0.157352  0  3.668903  0  0  -0.258215  0  3.917566  0  0  -0.254163  0  3.927103  0  0  -0.140235  -0.260647  0  3.911112  0
C  C55  1  0.99737186  0.52484507  0.96199093  1  0  -0.157272  0  3.668662  0  0  -0.258008  0  3.917368  0  0  -0.253955  0  3.926893  0  0  -0.140202  -0.260436  0  3.910921  0
C  C56  1  0.47030776  0.09800032  0.45793491  1  0  -0.012049  0  3.581449  0  0  -0.07179  0  3.83469  0  0  -0.067681  0  3.845352  0  0  -0.055649  -0.074397  0  3.827484  0
C  C57  1  0.52970357  0.59800041  0.54206736  1  0  -0.012157  0  3.581596  0  0  -0.071903  0  3.834848  0  0  -0.067786  0  3.84552  0  0  -0.055708  -0.074497  0  3.827629  0
C  C58  1  0.52969708  0.09800105  0.95793447  1  0  -0.012089  0  3.581731  0  0  -0.071737  0  3.834925  0  0  -0.067639  0  3.845585  0  0  -0.05566  -0.074344  0  3.82771  0
C  C59  1  0.47030326  0.59800137  0.04206572  1  0  -0.012057  0  3.581727  0  0  -0.071717  0  3.834901  0  0  -0.067609  0  3.845567  0  0  -0.055638  -0.07432  0  3.827696  0
C  C60  1  0.28355395  0.13439186  0.49747522  1  0  -0.003633  0  3.57295  0  0  -0.05869  0  3.818746  0  0  -0.054922  0  3.830052  0  0  -0.049461  -0.061147  0  3.811094  0
C  C61  1  0.71646028  0.63439312  0.50252589  1  0  -0.003822  0  3.573135  0  0  -0.058823  0  3.818831  0  0  -0.055089  0  3.830176  0  0  -0.049504  -0.061272  0  3.81119  0
C  C62  1  0.71645291  0.13439468  0.99747538  1  0  -0.003605  0  3.573023  0  0  -0.058692  0  3.818843  0  0  -0.054888  0  3.8301  0  0  -0.04944  -0.061133  0  3.811194  0
C  C63  1  0.28354758  0.63439619  0.00252158  1  0  -0.003596  0  3.572997  0  0  -0.058603  0  3.818812  0  0  -0.054835  0  3.830125  0  0  -0.049424  -0.061066  0  3.811168  0
C  C64  1  0.94832654  0.56298046  0.21673077  1  0  0.230942  0  3.796409  0  0  0.219556  0  4.096113  0  0  0.240519  0  4.108722  0  0  0.109217  0.205269  0  4.087341  0
C  C65  1  0.05167920  0.06296251  0.78325950  1  0  0.231156  0  3.795764  0  0  0.219779  0  4.095445  0  0  0.240741  0  4.108051  0  0  0.109237  0.205491  0  4.086682  0
C  C66  1  0.05166868  0.56296105  0.71673572  1  0  0.23114  0  3.795737  0  0  0.219758  0  4.095417  0  0  0.240719  0  4.108019  0  0  0.109187  0.205475  0  4.086645  0
C  C67  1  0.94832607  0.06297855  0.28326561  1  0  0.230921  0  3.796601  0  0  0.219535  0  4.096298  0  0  0.240496  0  4.108905  0  0  0.109181  0.205246  0  4.08753  0
C  C68  1  0.38320129  0.03659374  0.19944659  1  0  0.244694  0  3.770473  0  0  0.231895  0  4.072642  0  0  0.252928  0  4.085752  0  0  0.113601  0.217541  0  4.0636  0
C  C69  1  0.61679510  0.53652636  0.80058066  1  0  0.244252  0  3.770788  0  0  0.231443  0  4.073042  0  0  0.252472  0  4.086156  0  0  0.113276  0.217097  0  4.063997  0
C  C70  1  0.61678945  0.03653110  0.69943261  1  0  0.244397  0  3.770093  0  0  0.231592  0  4.072339  0  0  0.252619  0  4.085457  0  0  0.113416  0.217247  0  4.063296  0
C  C71  1  0.38322067  0.53657219  0.30056423  1  0  0.24454  0  3.770762  0  0  0.231743  0  4.07295  0  0  0.252777  0  4.086064  0  0  0.113489  0.217395  0  4.063906  0
Se  Se72  1  0.86546169  0.70618754  0.21613798  1  0  -0.237771  0  2.035166  0  0  -0.208767  0  2.397593  0  0  -0.229064  0  2.386918  0  0  -0.059612  -0.194595  0  2.404638  0
Se  Se73  1  0.13453908  0.20617425  0.78385943  1  0  -0.237746  0  2.034938  0  0  -0.208792  0  2.397445  0  0  -0.22907  0  2.386737  0  0  -0.059564  -0.19462  0  2.404494  0
Se  Se74  1  0.13453541  0.70617701  0.71613836  1  0  -0.237773  0  2.034716  0  0  -0.208793  0  2.397172  0  0  -0.229083  0  2.386486  0  0  -0.059583  -0.194624  0  2.40422  0
Se  Se75  1  0.86545162  0.20618647  0.28386527  1  0  -0.237761  0  2.035065  0  0  -0.20876  0  2.397511  0  0  -0.229052  0  2.38683  0  0  -0.059624  -0.194584  0  2.40455  0
Se  Se76  1  0.43158200  0.89305212  0.16626485  1  0  -0.218348  0  2.008574  0  0  -0.183213  0  2.367301  0  0  -0.203309  0  2.3573  0  0  -0.046975  -0.169225  0  2.373915  0
Se  Se77  1  0.56841838  0.39299846  0.83374259  1  0  -0.217977  0  2.009012  0  0  -0.182838  0  2.367806  0  0  -0.202927  0  2.357796  0  0  -0.046734  -0.168857  0  2.374426  0
Se  Se78  1  0.56840721  0.89300133  0.66626800  1  0  -0.218036  0  2.00884  0  0  -0.182925  0  2.367685  0  0  -0.203003  0  2.357656  0  0  -0.046762  -0.168945  0  2.374306  0
Se  Se79  1  0.43158629  0.39303580  0.33373460  1  0  -0.218214  0  2.008799  0  0  -0.183098  0  2.367592  0  0  -0.203197  0  2.357597  0  0  -0.046893  -0.169114  0  2.374199  0
S  S80  1  0.19866868  0.80762880  0.45900551  1  0  -0.423614  0  2.101106  0  0  -0.389952  0  2.463205  0  0  -0.406866  0  2.454308  0  0  -0.186452  -0.378173  0  2.469001  0
S  S81  1  0.80131849  0.30762980  0.54098782  1  0  -0.423591  0  2.101214  0  0  -0.389919  0  2.463275  0  0  -0.406825  0  2.454375  0  0  -0.18645  -0.378128  0  2.46905  0
S  S82  1  0.80131516  0.80763044  0.95901700  1  0  -0.423574  0  2.101092  0  0  -0.389907  0  2.463103  0  0  -0.406816  0  2.454201  0  0  -0.186405  -0.378131  0  2.468898  0
S  S83  1  0.19866240  0.30763237  0.04098670  1  0  -0.423628  0  2.101075  0  0  -0.389926  0  2.46307  0  0  -0.406839  0  2.454173  0  0  -0.186441  -0.378151  0  2.468861  0
N  N84  1  0.43963387  0.97996145  0.43299147  1  0  -0.150803  0  3.475432  0  0  -0.052001  0  3.711414  0  0  -0.072217  0  3.735895  0  0  -0.281418  -0.038438  0  3.694445  0
N  N85  1  0.56037428  0.47996069  0.56700793  1  0  -0.150584  0  3.475335  0  0  -0.051845  0  3.711411  0  0  -0.072059  0  3.735891  0  0  -0.281412  -0.038286  0  3.694451  0
N  N86  1  0.56036512  0.97996266  0.93299528  1  0  -0.150771  0  3.475506  0  0  -0.052068  0  3.711563  0  0  -0.072282  0  3.736044  0  0  -0.281501  -0.038507  0  3.694597  0
N  N87  1  0.43963066  0.47996200  0.06700619  1  0  -0.150706  0  3.475638  0  0  -0.051977  0  3.711652  0  0  -0.072191  0  3.736135  0  0  -0.281433  -0.038418  0  3.694683  0
N  N88  1  0.18494017  0.02753041  0.50622243  1  0  -0.120623  0  3.442724  0  0  -0.025198  0  3.679086  0  0  -0.044604  0  3.702124  0  0  -0.27237  -0.012184  0  3.663118  0
N  N89  1  0.81506682  0.52753256  0.49377729  1  0  -0.120451  0  3.442468  0  0  -0.024841  0  3.678547  0  0  -0.044235  0  3.701592  0  0  -0.272259  -0.011819  0  3.662562  0
N  N90  1  0.81506285  0.02753511  0.00622535  1  0  -0.120566  0  3.442566  0  0  -0.025033  0  3.678787  0  0  -0.044447  0  3.701818  0  0  -0.272326  -0.012012  0  3.662805  0
N  N91  1  0.18494277  0.52753542  0.99377437  1  0  -0.120393  0  3.442378  0  0  -0.025029  0  3.678761  0  0  -0.044431  0  3.701794  0  0  -0.272327  -0.012015  0  3.662791  0
N  N92  1  0.99733437  0.46861430  0.21683238  1  0  -0.470786  0  2.885673  0  0  -0.409205  0  3.14523  0  0  -0.428347  0  3.154272  0  0  -0.368611  -0.39627  0  3.138977  0
N  N93  1  0.00267192  0.96859476  0.78315265  1  0  -0.47102  0  2.885191  0  0  -0.409416  0  3.144675  0  0  -0.42856  0  3.153717  0  0  -0.368663  -0.396479  0  3.138431  0
N  N94  1  0.00266237  0.46859580  0.71683994  1  0  -0.470975  0  2.885382  0  0  -0.40939  0  3.144919  0  0  -0.428532  0  3.153958  0  0  -0.368585  -0.396454  0  3.138667  0
N  N95  1  0.99733431  0.96861830  0.28316099  1  0  -0.470755  0  2.885799  0  0  -0.409163  0  3.145306  0  0  -0.428303  0  3.154347  0  0  -0.368555  -0.396225  0  3.139056  0
N  N96  1  0.35660125  0.13072615  0.22117267  1  0  -0.485924  0  2.883253  0  0  -0.429925  0  3.153368  0  0  -0.448444  0  3.161487  0  0  -0.37212  -0.41743  0  3.147823  0
N  N97  1  0.64339771  0.63065960  0.77886374  1  0  -0.485877  0  2.882904  0  0  -0.42987  0  3.153011  0  0  -0.448402  0  3.161151  0  0  -0.372114  -0.417361  0  3.147443  0
N  N98  1  0.64339371  0.13066813  0.72115047  1  0  -0.48592  0  2.88243  0  0  -0.429905  0  3.152545  0  0  -0.448439  0  3.160693  0  0  -0.372169  -0.417398  0  3.146982  0
N  N99  1  0.35662311  0.63070837  0.27884031  1  0  -0.485964  0  2.883184  0  0  -0.429973  0  3.153298  0  0  -0.448489  0  3.161409  0  0  -0.372146  -0.417465  0  3.147733  0
