# generated using pymatgen
data_ZnH11C14SNO8
_symmetry_space_group_name_H-M   'P 1'
_cell_length_a   9.63792042
_cell_length_b   13.79476184
_cell_length_c   13.46581088
_cell_angle_alpha   119.12896944
_cell_angle_beta   89.99907160
_cell_angle_gamma   89.99944818
_symmetry_Int_Tables_number   1
_chemical_formula_structural   ZnH11C14SNO8
_chemical_formula_sum   'Zn4 H44 C56 S4 N4 O32'
_cell_volume   1563.88925636
_cell_formula_units_Z   4
loop_
 _symmetry_equiv_pos_site_id
 _symmetry_equiv_pos_as_xyz
  1  'x, y, z'
loop_
 _atom_site_type_symbol
 _atom_site_label
 _atom_site_symmetry_multiplicity
 _atom_site_fract_x
 _atom_site_fract_y
 _atom_site_fract_z
 _atom_site_occupancy
 _atom_site_pbe_bader_charge
 _atom_site_pbe_bader_spin_density
 _atom_site_pbe_cm5_charge
 _atom_site_pbe_ddec_charge
 _atom_site_pbe_ddec_spin_density
 _atom_site_pbe_ddec_sum_bond_order
 _atom_site_pbe_magmom
Zn  Zn0  1  0.92335144  0.53585676  0.14235504  1  1.288832  0  0.692379  0.881896  0  2.273773  0
Zn  Zn1  1  0.42336300  0.46414472  0.35764538  1  1.288881  0  0.692368  0.881835  0  2.273741  0
Zn  Zn2  1  0.07665179  0.46414570  0.85764312  1  1.288772  0  0.692407  0.881932  0  2.273762  0
Zn  Zn3  1  0.57663608  0.53585954  0.64235581  1  1.289023  0  0.692386  0.881873  0  2.273784  0
H  H4  1  0.55318036  0.89413562  0.91323605  1  0.685022  0  0.320825  0.398473  0  0.917409  0
H  H5  1  0.05315443  0.10585079  0.58676518  1  0.685159  0  0.320932  0.398455  0  0.917379  0
H  H6  1  0.44682701  0.10585213  0.08674587  1  0.685065  0  0.320913  0.398508  0  0.917447  0
H  H7  1  0.94679588  0.89415352  0.41324943  1  0.684791  0  0.320893  0.398589  0  0.917358  0
H  H8  1  0.15620072  0.15916377  0.98954063  1  0.116124  0  0.109056  0.121457  0  1.023461  0
H  H9  1  0.65619823  0.84084388  0.51046359  1  0.115857  0  0.109062  0.121517  0  1.023399  0
H  H10  1  0.84380458  0.84084727  0.01046581  1  0.115886  0  0.10907  0.121539  0  1.023432  0
H  H11  1  0.34378943  0.15916302  0.48955365  1  0.115968  0  0.109076  0.121484  0  1.023376  0
H  H12  1  0.74314099  0.18187150  0.12616063  1  0.112226  0  0.109148  0.124119  0  1.016879  0
H  H13  1  0.24315546  0.81812600  0.37382461  1  0.112627  0  0.109135  0.124169  0  1.016764  0
H  H14  1  0.25685913  0.81811864  0.87382087  1  0.112348  0  0.109198  0.124128  0  1.016817  0
H  H15  1  0.75684673  0.18188153  0.62617729  1  0.112578  0  0.109152  0.124167  0  1.016847  0
H  H16  1  0.67442928  0.76231490  0.11029388  1  0.128102  0  0.119832  0.132157  0  0.999423  0
H  H17  1  0.17443502  0.23768246  0.38971148  1  0.127978  0  0.119824  0.13219  0  0.999339  0
H  H18  1  0.32557913  0.23767329  0.88968228  1  0.127827  0  0.119782  0.132213  0  0.999326  0
H  H19  1  0.82556094  0.76232527  0.61030613  1  0.128084  0  0.119819  0.132265  0  0.999198  0
H  H20  1  0.73718867  0.37905461  0.16650252  1  0.149659  0  0.118346  0.097573  0  1.030593  0
H  H21  1  0.23720375  0.62094508  0.33349046  1  0.149733  0  0.118292  0.097441  0  1.030586  0
H  H22  1  0.26280937  0.62093665  0.83348394  1  0.14958  0  0.118364  0.097588  0  1.030464  0
H  H23  1  0.76279637  0.37906129  0.66649307  1  0.149813  0  0.118217  0.097391  0  1.030579  0
H  H24  1  0.13319798  0.35660991  0.03749404  1  0.151037  0  0.122215  0.102945  0  1.002542  0
H  H25  1  0.63320455  0.64340116  0.46251497  1  0.150992  0  0.122232  0.102907  0  1.002736  0
H  H26  1  0.86681251  0.64340893  0.96252109  1  0.151003  0  0.122231  0.102905  0  1.002706  0
H  H27  1  0.36678726  0.35659838  0.53747518  1  0.150703  0  0.122269  0.102953  0  1.002673  0
H  H28  1  0.85889302  0.01284846  0.05978345  1  0.100923  0  0.106086  0.113878  0  1.017685  0
H  H29  1  0.35887245  0.98714590  0.44022946  1  0.100754  0  0.106082  0.113952  0  1.01764  0
H  H30  1  0.14113096  0.98713583  0.94021998  1  0.101171  0  0.106076  0.113924  0  1.017661  0
H  H31  1  0.64109654  0.01287113  0.55980792  1  0.100877  0  0.106062  0.113922  0  1.017732  0
H  H32  1  0.35827006  0.55093413  0.12719660  1  0.116406  0  0.11331  0.11849  0  1.010893  0
H  H33  1  0.85827107  0.44905522  0.37280070  1  0.116525  0  0.113246  0.118412  0  1.01088  0
H  H34  1  0.64173939  0.44906867  0.87280692  1  0.116554  0  0.113311  0.118579  0  1.010835  0
H  H35  1  0.14173527  0.55094617  0.62719326  1  0.116656  0  0.113269  0.118405  0  1.010913  0
H  H36  1  0.24091892  0.85319403  0.13009562  1  0.140323  0  0.116342  0.129314  0  0.998079  0
H  H37  1  0.74092324  0.14679677  0.36989782  1  0.140273  0  0.116353  0.129339  0  0.998017  0
H  H38  1  0.75908638  0.14680468  0.86990681  1  0.140225  0  0.116356  0.12934  0  0.998017  0
H  H39  1  0.25907169  0.85321091  0.63010638  1  0.139753  0  0.116401  0.129336  0  0.998077  0
H  H40  1  0.98925943  0.56784817  0.34068872  1  0.65772  0  0.289719  0.38824  0  0.958997  0
H  H41  1  0.48924796  0.43215150  0.15931083  1  0.657604  0  0.289764  0.388358  0  0.958851  0
H  H42  1  0.01074587  0.43215527  0.65931210  1  0.657671  0  0.289715  0.388249  0  0.958997  0
H  H43  1  0.51073763  0.56784253  0.84068133  1  0.657644  0  0.289698  0.388176  0  0.959107  0
H  H44  1  0.93822354  0.68616136  0.35703735  1  0.627734  0  0.302637  0.397868  0  0.920472  0
H  H45  1  0.43822035  0.31383804  0.14295898  1  0.627728  0  0.302637  0.39786  0  0.920484  0
H  H46  1  0.06178280  0.31383979  0.64295278  1  0.627804  0  0.302622  0.397868  0  0.920481  0
H  H47  1  0.56178184  0.68615843  0.85704617  1  0.627811  0  0.302633  0.397856  0  0.920516  0
C  C48  1  0.13646588  0.67759924  0.14877692  1  1.582445  0  0.199509  0.55763  0  4.246883  0
C  C49  1  0.63646918  0.32240008  0.35122532  1  1.582532  0  0.199523  0.557785  0  4.246636  0
C  C50  1  0.86353838  0.32240688  0.85124072  1  1.582294  0  0.19958  0.557586  0  4.246213  0
C  C51  1  0.36352471  0.67759293  0.64876341  1  1.582301  0  0.199521  0.557466  0  4.246287  0
C  C52  1  0.06135170  0.20426823  0.02954873  1  -0.004126  0  -0.073619  -0.153658  0  3.869581  0
C  C53  1  0.56134348  0.79574114  0.47046784  1  -0.003605  0  -0.073551  -0.153633  0  3.86958  0
C  C54  1  0.93865672  0.79574247  0.97046500  1  -0.003975  0  -0.073527  -0.153639  0  3.869771  0
C  C55  1  0.43864314  0.20426551  0.52954557  1  -0.003939  0  -0.0736  -0.153513  0  3.869311  0
C  C56  1  0.95016282  0.15243758  0.05364190  1  0.035974  0  0.01335  0.154952  0  4.002842  0
C  C57  1  0.45016796  0.84756601  0.44635987  1  0.035782  0  0.013419  0.155012  0  4.00286  0
C  C58  1  0.04983937  0.84756493  0.94635702  1  0.036068  0  0.013362  0.15494  0  4.002916  0
C  C59  1  0.54982282  0.15244576  0.55365805  1  0.035667  0  0.013356  0.154911  0  4.002871  0
C  C60  1  0.46087766  0.81279450  0.11149430  1  -0.199069  0  -0.018241  -0.099675  0  3.998366  0
C  C61  1  0.96087994  0.18719753  0.38850515  1  -0.216552  0  -0.018302  -0.099952  0  3.998495  0
C  C62  1  0.53913283  0.18718852  0.88848922  1  -0.198739  0  -0.018168  -0.099815  0  3.998816  0
C  C63  1  0.03911602  0.81280864  0.61150060  1  -0.216435  0  -0.018307  -0.100048  0  3.998624  0
C  C64  1  0.83186033  0.21710988  0.10463696  1  -0.079521  0  -0.081841  -0.177984  0  3.93363  0
C  C65  1  0.33186858  0.78289022  0.39535875  1  -0.079352  0  -0.081889  -0.178165  0  3.93327  0
C  C66  1  0.16814290  0.78288951  0.89536354  1  -0.079205  0  -0.081899  -0.177946  0  3.933319  0
C  C67  1  0.66813153  0.21711230  0.60464017  1  -0.079213  0  -0.081903  -0.178202  0  3.933421  0
C  C68  1  0.52860803  0.65046828  0.12240577  1  -0.005036  0  -0.013191  -0.02948  0  3.963866  0
C  C69  1  0.02861660  0.34951963  0.37758230  1  -0.005056  0  -0.013167  -0.029604  0  3.964286  0
C  C70  1  0.47140454  0.34952541  0.87759368  1  -0.004931  0  -0.013152  -0.029547  0  3.963998  0
C  C71  1  0.97138455  0.65047782  0.62240023  1  -0.005537  0  -0.013102  -0.029565  0  3.964283  0
C  C72  1  0.64203332  0.58011856  0.12979101  1  1.586941  0  0.216716  0.584277  0  4.203146  0
C  C73  1  0.14204626  0.41987473  0.37020624  1  1.586537  0  0.216699  0.584171  0  4.202971  0
C  C74  1  0.35797302  0.41987367  0.87019812  1  1.5872  0  0.216594  0.584291  0  4.202909  0
C  C75  1  0.85796112  0.58012808  0.62979727  1  1.586509  0  0.216741  0.584368  0  4.202762  0
C  C76  1  0.56528653  0.74411095  0.11402798  1  -0.004393  0  -0.066932  -0.087286  0  3.922137  0
C  C77  1  0.06528898  0.25587512  0.38596476  1  0.013207  0  -0.066893  -0.087079  0  3.921961  0
C  C78  1  0.43472085  0.25587105  0.88595212  1  -0.003945  0  -0.066946  -0.08727  0  3.922137  0
C  C79  1  0.93471217  0.74412779  0.61404028  1  0.013421  0  -0.066896  -0.087217  0  3.922224  0
C  C80  1  0.82764053  0.32668025  0.12836796  1  0.457436  0  0.043116  0.090489  0  3.953604  0
C  C81  1  0.32765814  0.67331397  0.37162296  1  0.456918  0  0.043154  0.090629  0  3.953113  0
C  C82  1  0.17235440  0.67331466  0.87162534  1  0.45714  0  0.043072  0.090347  0  3.953265  0
C  C83  1  0.67233471  0.32668845  0.62837443  1  0.456938  0  0.04322  0.090705  0  3.953  0
C  C84  1  0.04984710  0.31431968  0.05594628  1  0.424513  0  0.05153  0.106531  0  3.911222  0
C  C85  1  0.54985038  0.68568538  0.44406331  1  0.424303  0  0.05142  0.106492  0  3.911335  0
C  C86  1  0.95015924  0.68568653  0.94406024  1  0.424604  0  0.051473  0.106511  0  3.911506  0
C  C87  1  0.45013832  0.31432405  0.55594316  1  0.424638  0  0.051439  0.106416  0  3.911187  0
C  C88  1  0.94977172  0.03740709  0.02871753  1  -0.088294  0  -0.074196  -0.106387  0  3.926984  0
C  C89  1  0.44975702  0.96259861  0.47129188  1  -0.001849  0  -0.074244  -0.106499  0  3.926961  0
C  C90  1  0.05023877  0.96259288  0.97127951  1  -0.002259  0  -0.074218  -0.10648  0  3.927015  0
C  C91  1  0.55022338  0.03741404  0.52872718  1  -0.088171  0  -0.074239  -0.106461  0  3.927102  0
C  C92  1  0.38852816  0.62600385  0.12516762  1  -0.015502  0  -0.06346  -0.083849  0  3.903812  0
C  C93  1  0.88853640  0.37398556  0.37482486  1  -0.015395  0  -0.063503  -0.083705  0  3.903835  0
C  C94  1  0.61148233  0.37399204  0.87482834  1  -0.015451  0  -0.063424  -0.083867  0  3.903575  0
C  C95  1  0.11146682  0.62601510  0.62517026  1  -0.0154  0  -0.063533  -0.08376  0  3.903721  0
C  C96  1  0.32073849  0.79474730  0.12414797  1  -0.010804  0  -0.060758  -0.079  0  3.89898  0
C  C97  1  0.82073562  0.20524844  0.37585263  1  -0.010815  0  -0.060678  -0.078753  0  3.898741  0
C  C98  1  0.67926785  0.20524688  0.87584648  1  -0.011149  0  -0.060788  -0.078962  0  3.898951  0
C  C99  1  0.17926138  0.79476109  0.62415537  1  -0.010371  0  -0.060731  -0.078621  0  3.898907  0
C  C100  1  0.28494404  0.69909357  0.12960894  1  0.020771  0  -0.008719  -0.016951  0  3.934182  0
C  C101  1  0.78494305  0.30089927  0.37038858  1  0.020596  0  -0.008766  -0.017208  0  3.934244  0
C  C102  1  0.71507268  0.30090309  0.87039927  1  0.02112  0  -0.008632  -0.016852  0  3.934028  0
C  C103  1  0.21506018  0.69910792  0.62960796  1  0.020529  0  -0.008752  -0.017185  0  3.934347  0
S  S104  1  0.51644316  0.91868031  0.08326374  1  3.023768  0  0.557318  1.174299  0  5.91018  0
S  S105  1  0.01643078  0.08131704  0.41674357  1  3.024002  0  0.557221  1.174017  0  5.910725  0
S  S106  1  0.48356941  0.08131889  0.91672105  1  3.023594  0  0.557341  1.174685  0  5.911152  0
S  S107  1  0.98353925  0.91868571  0.58327183  1  3.023063  0  0.557536  1.174832  0  5.910192  0
N  N108  1  0.93436161  0.37510423  0.10439895  1  -1.25841  0  -0.336334  -0.253202  0  3.58056  0
N  N109  1  0.43437210  0.62489328  0.39560477  1  -1.258334  0  -0.336224  -0.253064  0  3.58027  0
N  N110  1  0.06563746  0.62489087  0.89559741  1  -1.258551  0  -0.33637  -0.253172  0  3.580409  0
N  N111  1  0.56562698  0.37510821  0.60439072  1  -1.258505  0  -0.336221  -0.253125  0  3.580375  0
O  O112  1  0.40565804  0.99927863  0.10781177  1  -1.295672  0  -0.300939  -0.536407  0  2.177968  0
O  O113  1  0.90565146  0.00071456  0.39216805  1  -1.295879  0  -0.300826  -0.536318  0  2.178393  0
O  O114  1  0.59434208  0.00071619  0.89216735  1  -1.295867  0  -0.300923  -0.536533  0  2.178279  0
O  O115  1  0.09432271  0.99928172  0.60782139  1  -1.295577  0  -0.300882  -0.536465  0  2.178207  0
O  O116  1  0.53076884  0.84494613  0.94791372  1  -1.271688  0  -0.352081  -0.564712  0  2.279154  0
O  O117  1  0.03071187  0.15504605  0.55209705  1  -1.271929  0  -0.352251  -0.56464  0  2.279113  0
O  O118  1  0.46924372  0.15503377  0.05205875  1  -1.271606  0  -0.352351  -0.564984  0  2.279548  0
O  O119  1  0.96921872  0.84496290  0.44792706  1  -1.271373  0  -0.352274  -0.565091  0  2.27914  0
O  O120  1  0.65154304  0.95913366  0.13167123  1  -1.289639  0  -0.298368  -0.526866  0  2.1655  0
O  O121  1  0.15155620  0.04087575  0.36836657  1  -1.289699  0  -0.298266  -0.526678  0  2.165375  0
O  O122  1  0.34847886  0.04085828  0.86831330  1  -1.289968  0  -0.298296  -0.526858  0  2.165504  0
O  O123  1  0.84843768  0.95913929  0.63167736  1  -1.28943  0  -0.298475  -0.526979  0  2.165349  0
O  O124  1  0.05829426  0.75657287  0.20763703  1  -1.165524  0  -0.320968  -0.527872  0  2.11231  0
O  O125  1  0.55829276  0.24342305  0.29235721  1  -1.165574  0  -0.321001  -0.527992  0  2.112033  0
O  O126  1  0.94172453  0.24340659  0.79236648  1  -1.165517  0  -0.321121  -0.528076  0  2.111374  0
O  O127  1  0.44172915  0.75658755  0.70764234  1  -1.165304  0  -0.321096  -0.527977  0  2.111087  0
O  O128  1  0.10453496  0.57242175  0.10238188  1  -1.166583  0  -0.335439  -0.590039  0  2.366502  0
O  O129  1  0.60454608  0.42757730  0.39762137  1  -1.166701  0  -0.335433  -0.590027  0  2.366449  0
O  O130  1  0.89547968  0.42757399  0.89763708  1  -1.166698  0  -0.335477  -0.589954  0  2.366699  0
O  O131  1  0.39545404  0.57242858  0.60237979  1  -1.166761  0  -0.335426  -0.589888  0  2.36681  0
O  O132  1  0.61530490  0.50003661  0.14673841  1  -1.195981  0  -0.307308  -0.558577  0  2.266545  0
O  O133  1  0.11531501  0.49995919  0.35325434  1  -1.196171  0  -0.307315  -0.558493  0  2.266216  0
O  O134  1  0.38469417  0.49995557  0.85324995  1  -1.196119  0  -0.307247  -0.5585  0  2.266369  0
O  O135  1  0.88469133  0.50004853  0.64675063  1  -1.196136  0  -0.307304  -0.558559  0  2.266196  0
O  O136  1  0.91690252  0.60659764  0.31820826  1  -1.249666  0  -0.572989  -0.746671  0  2.112909  0
O  O137  1  0.41689731  0.39340005  0.18179427  1  -1.249595  0  -0.57301  -0.746764  0  2.112863  0
O  O138  1  0.08310278  0.39340244  0.68179032  1  -1.249707  0  -0.572961  -0.746713  0  2.112866  0
O  O139  1  0.58309554  0.60659515  0.81820362  1  -1.249704  0  -0.572961  -0.746624  0  2.113005  0
O  O140  1  0.76505771  0.60946771  0.11872597  1  -1.149134  0  -0.316026  -0.535919  0  2.37613  0
O  O141  1  0.26506562  0.39052242  0.38127505  1  -1.148307  0  -0.315948  -0.535829  0  2.376103  0
O  O142  1  0.23494863  0.39053066  0.88128375  1  -1.149107  0  -0.316013  -0.536029  0  2.37615  0
O  O143  1  0.73493865  0.60946206  0.61870615  1  -1.148136  0  -0.316064  -0.535965  0  2.376149  0
