# generated using pymatgen
data_La2H8C11N4O13
_symmetry_space_group_name_H-M   'P 1'
_cell_length_a   8.62361844
_cell_length_b   15.23521885
_cell_length_c   18.01827773
_cell_angle_alpha   90.00010362
_cell_angle_beta   89.99999848
_cell_angle_gamma   90.00008951
_symmetry_Int_Tables_number   1
_chemical_formula_structural   La2H8C11N4O13
_chemical_formula_sum   'La8 H32 C44 N16 O52'
_cell_volume   2367.29023213
_cell_formula_units_Z   4
loop_
 _symmetry_equiv_pos_site_id
 _symmetry_equiv_pos_as_xyz
  1  'x, y, z'
loop_
 _atom_site_type_symbol
 _atom_site_label
 _atom_site_symmetry_multiplicity
 _atom_site_fract_x
 _atom_site_fract_y
 _atom_site_fract_z
 _atom_site_occupancy
 _atom_site_pbe_bader_charge
 _atom_site_pbe_bader_spin_density
 _atom_site_pbe_cm5_charge
 _atom_site_pbe_ddec_charge
 _atom_site_pbe_ddec_spin_density
 _atom_site_pbe_ddec_sum_bond_order
 _atom_site_pbe_magmom
La  La0  1  0.66003947  0.72413799  0.39225003  1  2.23199  0  1.408015  1.824168  0  2.428551  0
La  La1  1  0.83995744  0.22413892  0.60775026  1  2.232008  0  1.407991  1.824098  0  2.428607  0
La  La2  1  0.33995741  0.27586127  0.89224975  1  2.232021  0  1.408014  1.824195  0  2.428514  0
La  La3  1  0.16004294  0.77586170  0.10775285  1  2.231973  0  1.408027  1.824183  0  2.428535  0
La  La4  1  0.33995858  0.27586096  0.60774864  1  2.232  0  1.407986  1.824108  0  2.428632  0
La  La5  1  0.16004293  0.77585938  0.39224952  1  2.231991  0  1.407993  1.824091  0  2.428646  0
La  La6  1  0.66004064  0.72413834  0.10775003  1  2.231991  0  1.408018  1.824171  0  2.428563  0
La  La7  1  0.83995627  0.22414119  0.89224804  1  2.23194  0  1.407967  1.824117  0  2.428591  0
H  H8  1  0.47808721  0.98865091  0.59900029  1  0.159995  0  0.119091  0.157051  0  1.017119  0
H  H9  1  0.00853715  0.93918959  0.54691925  1  0.502954  0  0.358695  0.286991  0  0.894016  0
H  H10  1  0.86517014  0.60543410  0.32506261  1  0.655139  0  0.306147  0.388043  0  0.945664  0
H  H11  1  0.71760091  0.54190624  0.33439752  1  0.611196  0  0.324534  0.402299  0  0.890236  0
H  H12  1  0.02190678  0.48865111  0.40099652  1  0.159911  0  0.119039  0.156982  0  1.017178  0
H  H13  1  0.49145903  0.43919032  0.45307915  1  0.502992  0  0.358737  0.287101  0  0.893905  0
H  H14  1  0.63483108  0.10543434  0.67493806  1  0.655136  0  0.306149  0.388035  0  0.945678  0
H  H15  1  0.78240130  0.04190790  0.66560138  1  0.611207  0  0.324555  0.4023  0  0.890244  0
H  H16  1  0.52190970  0.01135166  0.09900059  1  0.159964  0  0.119097  0.157046  0  1.017133  0
H  H17  1  0.99145861  0.06081090  0.04691962  1  0.502991  0  0.358719  0.287059  0  0.893938  0
H  H18  1  0.13483139  0.39456501  0.82506306  1  0.655142  0  0.306176  0.388135  0  0.945564  0
H  H19  1  0.28240062  0.45809223  0.83439752  1  0.611234  0  0.324547  0.402308  0  0.890222  0
H  H20  1  0.97810054  0.51135341  0.90099827  1  0.159868  0  0.119064  0.156967  0  1.017176  0
H  H21  1  0.50854481  0.56080972  0.95307876  1  0.502992  0  0.35873  0.287114  0  0.893907  0
H  H22  1  0.36517162  0.89456643  0.17493860  1  0.655068  0  0.30617  0.388102  0  0.945568  0
H  H23  1  0.21760024  0.95809219  0.16560258  1  0.611246  0  0.324544  0.402314  0  0.890209  0
H  H24  1  0.52191317  0.01134871  0.40099671  1  0.159968  0  0.11907  0.157049  0  1.017114  0
H  H25  1  0.99146207  0.06080937  0.45308164  1  0.502966  0  0.358694  0.287022  0  0.89398  0
H  H26  1  0.13483256  0.39456354  0.67493662  1  0.655142  0  0.306151  0.388093  0  0.945611  0
H  H27  1  0.28240179  0.45809009  0.66560170  1  0.611211  0  0.324556  0.402313  0  0.890228  0
H  H28  1  0.97809475  0.51134653  0.59899881  1  0.159901  0  0.119057  0.157009  0  1.017164  0
H  H29  1  0.50854019  0.56080798  0.54692340  1  0.503004  0  0.358711  0.287004  0  0.894001  0
H  H30  1  0.36516929  0.89456330  0.32506227  1  0.655128  0  0.306141  0.388073  0  0.945644  0
H  H31  1  0.21760139  0.95809105  0.33439895  1  0.611236  0  0.324579  0.402341  0  0.890171  0
H  H32  1  0.47808836  0.98864795  0.90100085  1  0.159967  0  0.119105  0.157035  0  1.017174  0
H  H33  1  0.00853829  0.93918937  0.95308182  1  0.502967  0  0.35869  0.287053  0  0.893971  0
H  H34  1  0.86516899  0.60543460  0.17493727  1  0.655144  0  0.30615  0.388083  0  0.945627  0
H  H35  1  0.71759859  0.54190869  0.16560226  1  0.611239  0  0.324558  0.402307  0  0.89026  0
H  H36  1  0.02190563  0.48864817  0.09900429  1  0.159911  0  0.119031  0.156979  0  1.017186  0
H  H37  1  0.49145556  0.43919054  0.04691991  1  0.503038  0  0.358728  0.287078  0  0.893923  0
H  H38  1  0.63483108  0.10543384  0.82506118  1  0.655083  0  0.306135  0.388011  0  0.945698  0
H  H39  1  0.78240013  0.04190808  0.83439887  1  0.611208  0  0.32456  0.402302  0  0.890249  0
C  C40  1  0.46882405  0.82340014  0.50282671  1  1.55734  0  0.212156  0.569833  0  4.215734  0
C  C41  1  0.35310125  0.88246984  0.53713303  1  0.450981  0  0.09858  0.050926  0  3.998353  0
C  C42  1  0.37099059  0.95937197  0.57943292  1  0.005097  0  -0.078414  -0.192939  0  3.880209  0
C  C43  1  0.22114055  0.99180138  0.58794152  1  0.397572  0  0.097649  0.033933  0  3.953854  0
C  C44  1  0.15973117  0.07507940  0.61885221  1  1.633579  0  0.235017  0.610463  0  4.23459  0
C  C45  1  0.03116948  0.32340581  0.49717374  1  1.556733  0  0.212106  0.569764  0  4.215801  0
C  C46  1  0.14689245  0.38247291  0.46286640  1  0.450595  0  0.098534  0.050954  0  3.998325  0
C  C47  1  0.12900448  0.45937166  0.42056552  1  0.005326  0  -0.078419  -0.192968  0  3.880277  0
C  C48  1  0.27885577  0.49180249  0.41205585  1  0.397876  0  0.097691  0.03397  0  3.953805  0
C  C49  1  0.34026399  0.57508058  0.38114453  1  1.633169  0  0.235151  0.610851  0  4.234274  0
C  C50  1  0.53117403  0.17660157  0.00282782  1  1.557332  0  0.212227  0.569837  0  4.215703  0
C  C51  1  0.64689567  0.11753195  0.03713349  1  0.450902  0  0.098535  0.050984  0  3.99814  0
C  C52  1  0.62900632  0.04062990  0.07943270  1  0.005099  0  -0.078424  -0.19296  0  3.880095  0
C  C53  1  0.77885520  0.00819920  0.08794237  1  0.39786  0  0.097636  0.033907  0  3.953778  0
C  C54  1  0.84026109  0.92492124  0.11885335  1  1.633093  0  0.235073  0.610633  0  4.234287  0
C  C55  1  0.96882972  0.67659892  0.99717573  1  1.556842  0  0.212225  0.569777  0  4.215697  0
C  C56  1  0.85310675  0.61753044  0.96286775  1  0.451018  0  0.09852  0.050994  0  3.998191  0
C  C57  1  0.87100284  0.54063095  0.92056786  1  0.005318  0  -0.07844  -0.192922  0  3.880109  0
C  C58  1  0.72115155  0.50819878  0.91205759  1  0.398009  0  0.097718  0.034102  0  3.953626  0
C  C59  1  0.65974334  0.42491997  0.88114558  1  1.632974  0  0.235116  0.610752  0  4.23406  0
C  C60  1  0.53117401  0.17659882  0.49717029  1  1.556802  0  0.212153  0.569912  0  4.215972  0
C  C61  1  0.64689681  0.11752846  0.46286564  1  0.450994  0  0.098573  0.050976  0  3.998182  0
C  C62  1  0.62900978  0.04062633  0.42056464  1  0.005039  0  -0.07842  -0.193009  0  3.880236  0
C  C63  1  0.77885867  0.00819758  0.41205825  1  0.397551  0  0.09764  0.033954  0  3.953903  0
C  C64  1  0.84026920  0.92491955  0.38114757  1  1.63351  0  0.235039  0.610489  0  4.234563  0
C  C65  1  0.96882857  0.67659249  0.50282438  1  1.556764  0  0.212096  0.569778  0  4.215632  0
C  C66  1  0.85310561  0.61752473  0.53713061  1  0.450973  0  0.098553  0.051024  0  3.998114  0
C  C67  1  0.87099590  0.54062533  0.57943259  1  0.005505  0  -0.078395  -0.192991  0  3.880138  0
C  C68  1  0.72114692  0.50819581  0.58794448  1  0.397821  0  0.097667  0.033963  0  3.953708  0
C  C69  1  0.65973871  0.42491838  0.61885581  1  1.633092  0  0.235097  0.610729  0  4.234312  0
C  C70  1  0.46882519  0.82339738  0.99717585  1  1.55757  0  0.21225  0.569903  0  4.215664  0
C  C71  1  0.35310355  0.88246963  0.96286795  1  0.45138  0  0.098544  0.050969  0  3.998105  0
C  C72  1  0.37099290  0.95937102  0.92056763  1  0.005092  0  -0.078467  -0.192968  0  3.880228  0
C  C73  1  0.22114402  0.99180041  0.91206129  1  0.39771  0  0.097701  0.034011  0  3.953874  0
C  C74  1  0.15973464  0.07507837  0.88114809  1  1.632969  0  0.235131  0.610665  0  4.234304  0
C  C75  1  0.03116602  0.32340660  0.00282460  1  1.556721  0  0.212162  0.569872  0  4.215601  0
C  C76  1  0.14688899  0.38247246  0.03713370  1  0.450596  0  0.098525  0.050997  0  3.998118  0
C  C77  1  0.12900565  0.45937195  0.07943525  1  0.005332  0  -0.078431  -0.193018  0  3.880313  0
C  C78  1  0.27885462  0.49180149  0.08794552  1  0.397815  0  0.097714  0.033956  0  3.953871  0
C  C79  1  0.34026052  0.57507964  0.11885531  1  1.633108  0  0.235105  0.610849  0  4.234111  0
C  C80  1  0.49193956  0.76212934  0.25000006  1  2.174022  0  0.271689  0.857013  0  4.252131  0
C  C81  1  0.00806656  0.26213225  0.75000141  1  2.173639  0  0.271692  0.856893  0  4.252194  0
C  C82  1  0.50806197  0.23787027  0.74999861  1  2.174023  0  0.271665  0.856801  0  4.25229  0
C  C83  1  0.99193962  0.73786801  0.24999893  1  2.174063  0  0.27169  0.856778  0  4.252337  0
N  N84  1  0.12569330  0.93440993  0.55174435  1  -0.796987  0  -0.253302  -0.076757  0  3.736693  0
N  N85  1  0.20208457  0.86828157  0.52036949  1  -0.652307  0  -0.258637  -0.225043  0  3.308253  0
N  N86  1  0.37430170  0.43441252  0.44825350  1  -0.797159  0  -0.253342  -0.076917  0  3.736677  0
N  N87  1  0.29790560  0.36828416  0.47963103  1  -0.652122  0  -0.258626  -0.225043  0  3.308006  0
N  N88  1  0.87430130  0.06559057  0.05174473  1  -0.797128  0  -0.2533  -0.076826  0  3.736688  0
N  N89  1  0.79791234  0.13171952  0.02036941  1  -0.652305  0  -0.258629  -0.22506  0  3.30818  0
N  N90  1  0.62570214  0.56558752  0.94825310  1  -0.796775  0  -0.253339  -0.076992  0  3.736612  0
N  N91  1  0.70209475  0.63171922  0.97963129  1  -0.653029  0  -0.258652  -0.225093  0  3.308053  0
N  N92  1  0.87430476  0.06558771  0.44825599  1  -0.796666  0  -0.253215  -0.076696  0  3.736593  0
N  N93  1  0.79791580  0.13171672  0.47963140  1  -0.652567  0  -0.258697  -0.225132  0  3.308183  0
N  N94  1  0.62569751  0.56558841  0.55174684  1  -0.796804  0  -0.253271  -0.076731  0  3.736642  0
N  N95  1  0.70208781  0.63171348  0.52036875  1  -0.652906  0  -0.258669  -0.225119  0  3.308176  0
N  N96  1  0.12569560  0.93441232  0.94825616  1  -0.797061  0  -0.253225  -0.076773  0  3.736759  0
N  N97  1  0.20208456  0.86828075  0.97963425  1  -0.652772  0  -0.258741  -0.225207  0  3.308283  0
N  N98  1  0.37429940  0.43441144  0.05174723  1  -0.79716  0  -0.253298  -0.076812  0  3.736751  0
N  N99  1  0.29790678  0.36828367  0.02036849  1  -0.652088  0  -0.258619  -0.225057  0  3.307972  0
O  O100  1  0.61192293  0.83541710  0.50884283  1  -1.142338  0  -0.324575  -0.540549  0  2.123336  0
O  O101  1  0.41188151  0.76014532  0.46215629  1  -1.195912  0  -0.435972  -0.665361  0  2.332033  0
O  O102  1  0.01343877  0.08650024  0.61427909  1  -1.217152  0  -0.368471  -0.639986  0  2.244849  0
O  O103  1  0.25746864  0.12911480  0.64461720  1  -1.194464  0  -0.381405  -0.584906  0  2.245159  0
O  O104  1  0.43816055  0.78938334  0.31288345  1  -1.230614  0  -0.391805  -0.704298  0  2.304358  0
O  O105  1  0.80131059  0.57124163  0.36086178  1  -1.252775  0  -0.593665  -0.764516  0  2.01455  0
O  O106  1  0.88806966  0.33542242  0.49115652  1  -1.141906  0  -0.324573  -0.540539  0  2.123271  0
O  O107  1  0.08811185  0.26015047  0.53784572  1  -1.195751  0  -0.435863  -0.665259  0  2.33196  0
O  O108  1  0.48655526  0.58650287  0.38571989  1  -1.217169  0  -0.368517  -0.64016  0  2.244791  0
O  O109  1  0.24252319  0.62911321  0.35537962  1  -1.194107  0  -0.381456  -0.585037  0  2.24511  0
O  O110  1  0.06183985  0.28938682  0.68711806  1  -1.230244  0  -0.391828  -0.704289  0  2.304478  0
O  O111  1  0.69868822  0.07124250  0.63913883  1  -1.252744  0  -0.593679  -0.764509  0  2.014566  0
O  O112  1  0.38807514  0.16458725  0.00884392  1  -1.142321  0  -0.324591  -0.540552  0  2.123375  0
O  O113  1  0.58811537  0.23985737  0.96215540  1  -1.19593  0  -0.435999  -0.665398  0  2.33198  0
O  O114  1  0.98655350  0.91350040  0.11428187  1  -1.217084  0  -0.36847  -0.640053  0  2.244742  0
O  O115  1  0.74251899  0.87088721  0.14461715  1  -1.193988  0  -0.381433  -0.584979  0  2.245035  0
O  O116  1  0.56184098  0.21061575  0.81288196  1  -1.230578  0  -0.391803  -0.704257  0  2.304449  0
O  O117  1  0.19869210  0.42875625  0.86086118  1  -1.252815  0  -0.593703  -0.764621  0  2.014502  0
O  O118  1  0.11192954  0.66458296  0.99115961  1  -1.141889  0  -0.324618  -0.540525  0  2.12335  0
O  O119  1  0.91188623  0.73985591  0.03784602  1  -1.195921  0  -0.435956  -0.665341  0  2.331969  0
O  O120  1  0.51345206  0.41349769  0.88572204  1  -1.21687  0  -0.368503  -0.640138  0  2.244697  0
O  O121  1  0.75748530  0.37088860  0.85537837  1  -1.195712  0  -0.381406  -0.585032  0  2.245015  0
O  O122  1  0.93816285  0.71061594  0.18711720  1  -1.230613  0  -0.391819  -0.704233  0  2.304475  0
O  O123  1  0.30131332  0.92875819  0.13913942  1  -1.252738  0  -0.593709  -0.764609  0  2.014431  0
O  O124  1  0.38807513  0.16458382  0.49115029  1  -1.141864  0  -0.324543  -0.540667  0  2.123445  0
O  O125  1  0.58811423  0.23985233  0.53784293  1  -1.195818  0  -0.435919  -0.6653  0  2.332086  0
O  O126  1  0.98656160  0.91349806  0.38572402  1  -1.217128  0  -0.368473  -0.639994  0  2.244851  0
O  O127  1  0.74253173  0.87088350  0.35538091  1  -1.196017  0  -0.381431  -0.584959  0  2.24518  0
O  O128  1  0.56183635  0.21061495  0.68711744  1  -1.230625  0  -0.391818  -0.704221  0  2.304446  0
O  O129  1  0.19869095  0.42875601  0.63913800  1  -1.252795  0  -0.593688  -0.764566  0  2.014559  0
O  O130  1  0.11192840  0.66457720  0.50884326  1  -1.141938  0  -0.324541  -0.540557  0  2.123247  0
O  O131  1  0.91188505  0.73984783  0.46215184  1  -1.195752  0  -0.435889  -0.665313  0  2.331929  0
O  O132  1  0.51344627  0.41349675  0.61427934  1  -1.217103  0  -0.36849  -0.640111  0  2.244805  0
O  O133  1  0.75748067  0.37088509  0.64462016  1  -1.194122  0  -0.381459  -0.585023  0  2.245044  0
O  O134  1  0.93816401  0.71061148  0.31288172  1  -1.230581  0  -0.391849  -0.704249  0  2.304499  0
O  O135  1  0.30131331  0.92875646  0.36086206  1  -1.252779  0  -0.593715  -0.764616  0  2.014481  0
O  O136  1  0.61192291  0.83541630  0.99115586  1  -1.142503  0  -0.324567  -0.540553  0  2.123343  0
O  O137  1  0.41188269  0.76014355  0.03784438  1  -1.19598  0  -0.436012  -0.665415  0  2.332099  0
O  O138  1  0.01344108  0.08650119  0.88572345  1  -1.217043  0  -0.368526  -0.640128  0  2.244784  0
O  O139  1  0.25747559  0.12911437  0.85538207  1  -1.195566  0  -0.381444  -0.584983  0  2.245063  0
O  O140  1  0.43815939  0.78938387  0.18711893  1  -1.230567  0  -0.391844  -0.704353  0  2.304483  0
O  O141  1  0.80130943  0.57124336  0.13913859  1  -1.252816  0  -0.59368  -0.764561  0  2.014572  0
O  O142  1  0.88806736  0.33542518  0.00884072  1  -1.141923  0  -0.324583  -0.540594  0  2.123257  0
O  O143  1  0.08811067  0.26014961  0.96215265  1  -1.195743  0  -0.435912  -0.665375  0  2.33195  0
O  O144  1  0.48655411  0.58650258  0.11427830  1  -1.217108  0  -0.368519  -0.640157  0  2.244733  0
O  O145  1  0.24251856  0.62911430  0.14462085  1  -1.195666  0  -0.381445  -0.585101  0  2.244968  0
O  O146  1  0.06184100  0.28938630  0.81288202  1  -1.23027  0  -0.391851  -0.704301  0  2.304508  0
O  O147  1  0.69868706  0.07124142  0.86086091  1  -1.252718  0  -0.593675  -0.764477  0  2.014578  0
O  O148  1  0.60869674  0.70799890  0.25000002  1  -1.219212  0  -0.418951  -0.715577  0  2.182735  0
O  O149  1  0.89130593  0.20799952  0.75000081  1  -1.219367  0  -0.418972  -0.715557  0  2.182749  0
O  O150  1  0.39130364  0.29200137  0.74999921  1  -1.21919  0  -0.418979  -0.715534  0  2.182735  0
O  O151  1  0.10869792  0.79200010  0.25000064  1  -1.219189  0  -0.418976  -0.715516  0  2.18274  0
