# generated using pymatgen
data_Zn4H24C42O19
_symmetry_space_group_name_H-M   'P 1'
_cell_length_a   17.32274247
_cell_length_b   17.32489900
_cell_length_c   17.34297698
_cell_angle_alpha   89.97527869
_cell_angle_beta   89.99884173
_cell_angle_gamma   90.02959678
_symmetry_Int_Tables_number   1
_chemical_formula_structural   Zn4H24C42O19
_chemical_formula_sum   'Zn4 H24 C42 O19'
_cell_volume   5204.88225640
_cell_formula_units_Z   1
loop_
 _symmetry_equiv_pos_site_id
 _symmetry_equiv_pos_as_xyz
  1  'x, y, z'
loop_
 _atom_site_type_symbol
 _atom_site_label
 _atom_site_symmetry_multiplicity
 _atom_site_fract_x
 _atom_site_fract_y
 _atom_site_fract_z
 _atom_site_occupancy
 _atom_site_pbe_bader_charge
 _atom_site_pbe_bader_spin_density
 _atom_site_pbe_cm5_charge
 _atom_site_pbe_ddec_charge
 _atom_site_pbe_ddec_spin_density
 _atom_site_pbe_ddec_sum_bond_order
 _atom_site_pbe_magmom
Zn  Zn0  1  0.56597677  0.43419931  0.43413039  1  1.316152  0  0.670615  0.963583  0  2.374314  0
Zn  Zn1  1  0.43507692  0.56509034  0.43428632  1  1.311851  0  0.669485  0.960246  0  2.38519  0
Zn  Zn2  1  0.43495895  0.43518871  0.56585461  1  1.314321  0  0.670439  0.961805  0  2.381733  0
Zn  Zn3  1  0.56511691  0.56537221  0.56491933  1  1.315746  0  0.669967  0.959689  0  2.391391  0
H  H4  1  0.80104598  0.58604210  0.58943472  1  0.105532  0  0.109241  0.127543  0  1.004262  0
H  H5  1  0.92002390  0.62653411  0.63287230  1  0.595652  0  0.343162  0.371222  0  0.863677  0
H  H6  1  0.19761363  0.42027710  0.59534834  1  0.096996  0  0.113721  0.137672  0  0.981254  0
H  H7  1  0.99335058  0.41968400  0.60481888  1  0.583251  0  0.322069  0.348339  0  0.911862  0
H  H8  1  0.19646890  0.58071990  0.40542017  1  0.09204  0  0.103856  0.112835  0  1.002559  0
H  H9  1  0.80611439  0.41365889  0.41141590  1  0.099689  0  0.107857  0.11821  0  0.995425  0
H  H10  1  0.58029575  0.80317772  0.59477856  1  0.106117  0  0.113295  0.13753  0  0.98276  0
H  H11  1  0.58301346  0.00748806  0.60127429  1  0.625781  0  0.321861  0.348631  0  0.912873  0
H  H12  1  0.58283340  0.19479884  0.40847979  1  0.094828  0  0.107678  0.118283  0  0.995518  0
H  H13  1  0.41773635  0.19875038  0.59339472  1  0.106674  0  0.109523  0.128003  0  1.002161  0
H  H14  1  0.37833953  0.07951909  0.63714113  1  0.606649  0  0.343729  0.37208  0  0.862381  0
H  H15  1  0.41899698  0.80338526  0.40565639  1  0.089842  0  0.103824  0.112496  0  1.003803  0
H  H16  1  0.59194936  0.58585750  0.80142075  1  0.085696  0  0.104125  0.113111  0  1.003164  0
H  H17  1  0.41787229  0.59157456  0.19803818  1  0.097752  0  0.108347  0.126132  0  1.004466  0
H  H18  1  0.37824708  0.63461370  0.07876836  1  0.604342  0  0.342711  0.370299  0  0.86493  0
H  H19  1  0.58609656  0.40947796  0.19475561  1  0.10793  0  0.107873  0.118288  0  0.995421  0
H  H20  1  0.40956554  0.41662419  0.80512923  1  0.104095  0  0.113951  0.138763  0  0.982341  0
H  H21  1  0.40752459  0.41450735  0.00951311  1  0.590539  0  0.320561  0.346529  0  0.915869  0
H  H22  1  0.05189437  0.58141735  0.40805776  1  0.075152  0  0.103864  0.106463  0  0.988586  0
H  H23  1  0.95080266  0.41546296  0.41460606  1  0.043153  0  0.107587  0.112441  0  0.983216  0
H  H24  1  0.58045689  0.05011878  0.41026100  1  0.055016  0  0.10742  0.112137  0  0.984713  0
H  H25  1  0.41792536  0.94796834  0.40779959  1  0.064346  0  0.103464  0.105469  0  0.989832  0
H  H26  1  0.59215743  0.58778889  0.94579924  1  0.056149  0  0.104139  0.106525  0  0.987669  0
H  H27  1  0.58520672  0.41196262  0.05018590  1  0.059092  0  0.107676  0.113147  0  0.984267  0
C  C28  1  0.83463527  0.54852914  0.55158217  1  -0.023374  0  -0.104003  -0.244373  0  3.99098  0
C  C29  1  0.91522834  0.54927511  0.55341418  1  0.452494  0  0.077577  0.254417  0  4.101773  0
C  C30  1  0.16584133  0.45594775  0.55454867  1  0.025197  0  -0.092666  -0.199757  0  3.924941  0
C  C31  1  0.08534172  0.45737589  0.55657193  1  0.403783  0  0.080821  0.264946  0  4.073316  0
C  C32  1  0.16472267  0.54614780  0.44715320  1  -0.093863  0  -0.098301  -0.121695  0  4.017697  0
C  C33  1  0.08446002  0.54641355  0.44897721  1  -6.8e-05  0  -0.091105  -0.115138  0  4.023834  0
C  C34  1  0.83715983  0.45138271  0.45086837  1  -0.036325  0  -0.094923  -0.117873  0  4.005408  0
C  C35  1  0.91747536  0.45261398  0.45292285  1  -0.020065  0  -0.087442  -0.119316  0  4.019468  0
C  C36  1  0.54444566  0.83472204  0.55397407  1  0.036716  0  -0.093458  -0.201843  0  3.928599  0
C  C37  1  0.54336327  0.91521951  0.55525465  1  0.466933  0  0.080899  0.266326  0  4.073324  0
C  C38  1  0.54662395  0.16349568  0.44915352  1  -0.036993  0  -0.095571  -0.118909  0  4.008055  0
C  C39  1  0.54507745  0.08318342  0.45043246  1  -0.017635  0  -0.087562  -0.119674  0  4.021251  0
C  C40  1  0.45362718  0.16543986  0.55377684  1  -0.023482  0  -0.10378  -0.243984  0  3.98908  0
C  C41  1  0.45262613  0.08483283  0.55488747  1  0.454637  0  0.078956  0.25603  0  4.098933  0
C  C42  1  0.45362752  0.83534445  0.44714144  1  -0.096758  0  -0.098025  -0.121337  0  4.019786  0
C  C43  1  0.45329437  0.91561350  0.44857601  1  0.07423  0  -0.090827  -0.113972  0  4.025518  0
C  C44  1  0.55248462  0.54965012  0.83423015  1  0.043478  0  -0.09816  -0.122874  0  4.016934  0
C  C45  1  0.55239052  0.55042471  0.91442210  1  -0.0647  0  -0.090299  -0.111534  0  4.022805  0
C  C46  1  0.45435209  0.55237475  0.16485357  1  0.018006  0  -0.104099  -0.245456  0  3.990963  0
C  C47  1  0.45401784  0.55375193  0.08435498  1  0.420828  0  0.079798  0.260216  0  4.093998  0
C  C48  1  0.54935207  0.44953725  0.16332599  1  -0.027274  0  -0.09552  -0.118306  0  4.006728  0
C  C49  1  0.54860686  0.45119883  0.08306606  1  -0.014368  0  -0.088232  -0.12347  0  4.023993  0
C  C50  1  0.44961189  0.45413984  0.83573484  1  0.057679  0  -0.094181  -0.204304  0  3.932211  0
C  C51  1  0.45001492  0.45528969  0.91617119  1  0.443088  0  0.081027  0.264868  0  4.075606  0
C  C52  1  0.70920250  0.49974352  0.49937402  1  1.500631  0  0.226709  0.604174  0  4.16319  0
C  C53  1  0.79555140  0.49974711  0.50046635  1  0.052742  0  -0.01961  -0.010614  0  4.00314  0
C  C54  1  0.95796714  0.50118869  0.50350880  1  -0.025662  0  -0.018394  -0.037828  0  4.008152  0
C  C55  1  0.29163221  0.49920928  0.49869121  1  1.572677  0  0.228075  0.609292  0  4.158079  0
C  C56  1  0.20548796  0.50044101  0.50007051  1  0.02954  0  -0.022098  -0.029353  0  4.016669  0
C  C57  1  0.04371728  0.50241184  0.50319235  1  0.053329  0  -0.0207  -0.035166  0  4.007083  0
C  C58  1  0.50048584  0.70870732  0.49927984  1  1.493812  0  0.228251  0.608514  0  4.156925  0
C  C59  1  0.49944820  0.79482859  0.50013656  1  0.009413  0  -0.022378  -0.029215  0  4.017807  0
C  C60  1  0.49758323  0.95662080  0.50230892  1  0.019647  0  -0.020101  -0.034976  0  4.005432  0
C  C61  1  0.50114342  0.29114222  0.50085001  1  1.595216  0  0.227454  0.605584  0  4.163306  0
C  C62  1  0.50058078  0.20480152  0.50115866  1  -0.064069  0  -0.019456  -0.011391  0  4.006254  0
C  C63  1  0.49858472  0.04237085  0.50273093  1  -0.026259  0  -0.018626  -0.036998  0  4.003973  0
C  C64  1  0.50036587  0.50027989  0.70878710  1  1.484297  0  0.227568  0.608015  0  4.160319  0
C  C65  1  0.50078844  0.50134369  0.79482515  1  0.008573  0  -0.021426  -0.026444  0  4.018249  0
C  C66  1  0.50158814  0.50363284  0.95641571  1  0.040835  0  -0.020826  -0.035773  0  4.00849  0
C  C67  1  0.50139389  0.49969104  0.29065022  1  1.508511  0  0.227689  0.606545  0  4.160403  0
C  C68  1  0.50186771  0.50042032  0.20438805  1  0.002434  0  -0.019293  -0.009906  0  4.004454  0
C  C69  1  0.50161421  0.50291417  0.04211722  1  -0.029479  0  -0.018161  -0.038084  0  4.005872  0
O  O70  1  0.50061359  0.49935029  0.49925060  1  -1.240935  0  -0.572273  -1.027722  0  2.538033  0
O  O71  1  0.67642544  0.45360470  0.45222517  1  -1.173552  0  -0.313697  -0.544527  0  2.334389  0
O  O72  1  0.95604589  0.59623297  0.60217899  1  -1.111373  0  -0.351647  -0.44301  0  2.261161  0
O  O73  1  0.32509706  0.54499751  0.45145784  1  -1.175823  0  -0.317615  -0.550061  0  2.340688  0
O  O74  1  0.04903584  0.41311554  0.61102003  1  -1.113279  0  -0.360856  -0.443143  0  2.244118  0
O  O75  1  0.32523448  0.45256356  0.54487119  1  -1.173803  0  -0.317656  -0.549839  0  2.341857  0
O  O76  1  0.67552010  0.54586245  0.54579129  1  -1.173529  0  -0.315567  -0.544193  0  2.340205  0
O  O77  1  0.45523939  0.67507685  0.45171614  1  -1.176944  0  -0.317333  -0.549788  0  2.340091  0
O  O78  1  0.58872646  0.95183639  0.60853356  1  -1.152741  0  -0.361854  -0.445118  0  2.244737  0
O  O79  1  0.45584704  0.32476842  0.54810848  1  -1.174192  0  -0.315301  -0.544136  0  2.336371  0
O  O80  1  0.54691128  0.32394082  0.45331140  1  -1.172508  0  -0.314846  -0.546016  0  2.336701  0
O  O81  1  0.40739989  0.04370936  0.60503238  1  -1.12261  0  -0.351786  -0.443848  0  2.260371  0
O  O82  1  0.54650466  0.67523645  0.54619490  1  -1.174742  0  -0.318327  -0.549033  0  2.3418  0
O  O83  1  0.45290978  0.45443322  0.67578873  1  -1.170516  0  -0.317635  -0.549717  0  2.337893  0
O  O84  1  0.54708021  0.45231014  0.32372752  1  -1.176532  0  -0.31453  -0.546036  0  2.335091  0
O  O85  1  0.40855215  0.60352544  0.04310152  1  -1.110688  0  -0.351125  -0.442115  0  2.25839  0
O  O86  1  0.45532287  0.54645318  0.32395151  1  -1.17777  0  -0.315726  -0.544797  0  2.335878  0
O  O87  1  0.54773469  0.54543164  0.67469851  1  -1.178052  0  -0.317582  -0.54984  0  2.346534  0
O  O88  1  0.39932097  0.40797405  0.95411140  1  -1.123141  0  -0.362285  -0.443894  0  2.245063  0
