# generated using pymatgen
data_LaH8C6O7
_symmetry_space_group_name_H-M   'P 1'
_cell_length_a   8.01375606
_cell_length_b   10.97493018
_cell_length_c   12.87281360
_cell_angle_alpha   71.22351103
_cell_angle_beta   71.86548668
_cell_angle_gamma   68.59526095
_symmetry_Int_Tables_number   1
_chemical_formula_structural   LaH8C6O7
_chemical_formula_sum   'La4 H32 C24 O28'
_cell_volume   973.56874908
_cell_formula_units_Z   4
loop_
 _symmetry_equiv_pos_site_id
 _symmetry_equiv_pos_as_xyz
  1  'x, y, z'
loop_
 _atom_site_type_symbol
 _atom_site_label
 _atom_site_symmetry_multiplicity
 _atom_site_fract_x
 _atom_site_fract_y
 _atom_site_fract_z
 _atom_site_occupancy
 _atom_site_hle17_bader_spin_density
 _atom_site_hle17_ddec_charge
 _atom_site_hle17_ddec_spin_density
 _atom_site_hle17_ddec_sum_bond_order
 _atom_site_hle17_magmom
 _atom_site_hse06_10hf_bader_spin_density
 _atom_site_hse06_10hf_ddec_charge
 _atom_site_hse06_10hf_ddec_spin_density
 _atom_site_hse06_10hf_ddec_sum_bond_order
 _atom_site_hse06_10hf_magmom
 _atom_site_hse06_bader_spin_density
 _atom_site_hse06_ddec_charge
 _atom_site_hse06_ddec_spin_density
 _atom_site_hse06_ddec_sum_bond_order
 _atom_site_hse06_magmom
 _atom_site_pbe_bader_spin_density
 _atom_site_pbe_cm5_charge
 _atom_site_pbe_ddec_charge
 _atom_site_pbe_ddec_spin_density
 _atom_site_pbe_ddec_sum_bond_order
 _atom_site_pbe_magmom
La  La0  1  0.05781516  0.68984458  0.77183605  1  0  2.110725  0  1.800732  0  0  1.981793  0  2.321743  0  0  2.085564  0  2.222515  0  0  1.425646  1.9041  0  2.390879  0
La  La1  1  0.48054326  0.18985176  0.27182983  1  0  2.111028  0  1.798921  0  0  1.982573  0  2.319324  0  0  2.086142  0  2.220494  0  0  1.42606  1.905087  0  2.388128  0
La  La2  1  0.94218533  0.31015402  0.22816402  1  0  2.110712  0  1.800714  0  0  1.981786  0  2.321726  0  0  2.085558  0  2.222492  0  0  1.425642  1.90409  0  2.390865  0
La  La3  1  0.51945561  0.81015087  0.72816946  1  0  2.111048  0  1.798902  0  0  1.982581  0  2.319302  0  0  2.086147  0  2.220478  0  0  1.426067  1.905093  0  2.38811  0
H  H4  1  0.90087977  0.17700323  0.51314273  1  0  0.110362  0  0.942181  0  0  0.122861  0  1.007097  0  0  0.125084  0  1.006817  0  0  0.112806  0.121313  0  1.007375  0
H  H5  1  0.40889972  0.67702927  0.01308429  1  0  0.110161  0  0.942584  0  0  0.122255  0  1.007886  0  0  0.124405  0  1.007598  0  0  0.11246  0.1207  0  1.008185  0
H  H6  1  0.09912015  0.82299940  0.48685682  1  0  0.110409  0  0.942081  0  0  0.122909  0  1.006998  0  0  0.125133  0  1.006715  0  0  0.112837  0.12136  0  1.007277  0
H  H7  1  0.59109772  0.32297235  0.98691572  1  0  0.110137  0  0.942623  0  0  0.122243  0  1.007903  0  0  0.124391  0  1.007617  0  0  0.112456  0.1207  0  1.00819  0
H  H8  1  0.83007635  0.20770669  0.64809830  1  0  0.104213  0  0.913614  0  0  0.12367  0  0.964784  0  0  0.125738  0  0.963943  0  0  0.106054  0.122199  0  0.965473  0
H  H9  1  0.31412910  0.70769700  0.14805644  1  0  0.103297  0  0.914668  0  0  0.122761  0  0.965474  0  0  0.124784  0  0.964633  0  0  0.105799  0.121221  0  0.966293  0
H  H10  1  0.16992373  0.79229292  0.35190158  1  0  0.104226  0  0.913616  0  0  0.123677  0  0.964787  0  0  0.125745  0  0.963945  0  0  0.106057  0.122208  0  0.965474  0
H  H11  1  0.68587017  0.29230463  0.85194305  1  0  0.103338  0  0.914631  0  0  0.1228  0  0.965437  0  0  0.124823  0  0.964593  0  0  0.105815  0.121261  0  0.966258  0
H  H12  1  0.49554148  0.23885264  0.64311732  1  0  0.113618  0  0.918101  0  0  0.128537  0  0.972361  0  0  0.131144  0  0.970603  0  0  0.108902  0.126613  0  0.97381  0
H  H13  1  0.62247075  0.73899917  0.14297871  1  0  0.112685  0  0.917628  0  0  0.127738  0  0.971761  0  0  0.13035  0  0.969982  0  0  0.108936  0.12584  0  0.9732  0
H  H14  1  0.50445889  0.76114696  0.35688359  1  0  0.113639  0  0.918068  0  0  0.128549  0  0.972334  0  0  0.131161  0  0.970578  0  0  0.108895  0.126631  0  0.973774  0
H  H15  1  0.37752892  0.26100144  0.85702097  1  0  0.112692  0  0.917627  0  0  0.127743  0  0.971755  0  0  0.130357  0  0.969978  0  0  0.108932  0.125845  0  0.973194  0
H  H16  1  0.59898612  0.36330137  0.54625212  1  0  0.122298  0  0.912264  0  0  0.138271  0  0.967011  0  0  0.140872  0  0.965371  0  0  0.113154  0.136369  0  0.968352  0
H  H17  1  0.49121358  0.86343114  0.04626592  1  0  0.121895  0  0.912609  0  0  0.137547  0  0.967828  0  0  0.140147  0  0.966157  0  0  0.112764  0.135705  0  0.969127  0
H  H18  1  0.40101437  0.63669723  0.45374796  1  0  0.122314  0  0.912235  0  0  0.138258  0  0.966997  0  0  0.140865  0  0.965361  0  0  0.113155  0.136358  0  0.968338  0
H  H19  1  0.50878688  0.13656947  0.95373299  1  0  0.12194  0  0.912543  0  0  0.137586  0  0.967765  0  0  0.14019  0  0.966094  0  0  0.112772  0.135744  0  0.969063  0
H  H20  1  0.94697660  0.86955238  0.02441315  1  0  0.121756  0  0.92852  0  0  0.136025  0  0.984406  0  0  0.139089  0  0.982626  0  0  0.110093  0.133829  0  0.985797  0
H  H21  1  0.15902687  0.36952112  0.52434225  1  0  0.121423  0  0.928313  0  0  0.136476  0  0.98346  0  0  0.139546  0  0.981676  0  0  0.110403  0.134178  0  0.984989  0
H  H22  1  0.05302246  0.13044521  0.97558764  1  0  0.121767  0  0.928573  0  0  0.136046  0  0.984441  0  0  0.139111  0  0.98266  0  0  0.110102  0.13385  0  0.985833  0
H  H23  1  0.84097879  0.63047446  0.47565840  1  0  0.121418  0  0.928317  0  0  0.136422  0  0.9835  0  0  0.139517  0  0.981687  0  0  0.110401  0.134123  0  0.985028  0
H  H24  1  0.90080712  0.00691238  0.91162738  1  0  0.110068  0  0.902902  0  0  0.127654  0  0.955887  0  0  0.129507  0  0.955414  0  0  0.111455  0.126266  0  0.956442  0
H  H25  1  0.18060921  0.50694863  0.41157494  1  0  0.110478  0  0.90322  0  0  0.128272  0  0.95626  0  0  0.130132  0  0.955777  0  0  0.112368  0.12692  0  0.956713  0
H  H26  1  0.09919548  0.99308622  0.08837321  1  0  0.110075  0  0.902919  0  0  0.127662  0  0.955905  0  0  0.129513  0  0.955434  0  0  0.11146  0.126274  0  0.956462  0
H  H27  1  0.81938802  0.49304896  0.58842638  1  0  0.110521  0  0.903229  0  0  0.128311  0  0.956252  0  0  0.130172  0  0.955774  0  0  0.112388  0.126959  0  0.956707  0
H  H28  1  0.81078065  0.49260295  0.85917801  1  0  0.429024  0  0.865102  0  0  0.398884  0  0.927485  0  0  0.410618  0  0.910468  0  0  0.300485  0.390346  0  0.939855  0
H  H29  1  0.83753648  0.99270301  0.35907914  1  0  0.430098  0  0.863497  0  0  0.39998  0  0.92602  0  0  0.411757  0  0.90893  0  0  0.300705  0.391451  0  0.938371  0
H  H30  1  0.18921903  0.50739766  0.14082168  1  0  0.429032  0  0.865089  0  0  0.39889  0  0.927475  0  0  0.410625  0  0.910458  0  0  0.300489  0.390353  0  0.939844  0
H  H31  1  0.16246283  0.00729660  0.64092152  1  0  0.430099  0  0.863498  0  0  0.39998  0  0.926021  0  0  0.411759  0  0.908928  0  0  0.3007  0.391452  0  0.938371  0
H  H32  1  0.99323394  0.41096549  0.91263152  1  0  0.443794  0  0.850356  0  0  0.413066  0  0.913075  0  0  0.424908  0  0.895831  0  0  0.303331  0.404604  0  0.925371  0
H  H33  1  0.68321152  0.91109134  0.41252039  1  0  0.442844  0  0.852117  0  0  0.412256  0  0.91454  0  0  0.424119  0  0.897285  0  0  0.303339  0.403749  0  0.926901  0
H  H34  1  0.00676391  0.58903512  0.08736869  1  0  0.443791  0  0.850357  0  0  0.413058  0  0.913084  0  0  0.424901  0  0.895839  0  0  0.303329  0.404597  0  0.92538  0
H  H35  1  0.31678816  0.08890928  0.58747929  1  0  0.442843  0  0.852117  0  0  0.412262  0  0.914528  0  0  0.424126  0  0.897274  0  0  0.303341  0.403756  0  0.926888  0
C  C36  1  0.81061624  0.02156980  0.64211795  1  0  0.740657  0  3.812793  0  0  0.698327  0  4.112464  0  0  0.733884  0  4.104639  0  0  0.23865  0.673755  0  4.11714  0
C  C37  1  0.52565714  0.52158031  0.14204711  1  0  0.740597  0  3.810766  0  0  0.697371  0  4.111446  0  0  0.732838  0  4.103666  0  0  0.238532  0.672849  0  4.11605  0
C  C38  1  0.18938434  0.97842981  0.35788012  1  0  0.740571  0  3.812835  0  0  0.698265  0  4.112475  0  0  0.733823  0  4.104651  0  0  0.238599  0.673694  0  4.117147  0
C  C39  1  0.47434136  0.47842131  0.85795315  1  0  0.7406  0  3.810773  0  0  0.69743  0  4.111366  0  0  0.732899  0  4.103582  0  0  0.238584  0.67291  0  4.115974  0
C  C40  1  0.79374489  0.17016320  0.59091958  1  0  -0.240452  0  3.657039  0  0  -0.283122  0  3.911551  0  0  -0.287908  0  3.918076  0  0  -0.154446  -0.279836  0  3.907224  0
C  C41  1  0.44512455  0.67020506  0.09084939  1  0  -0.239417  0  3.657563  0  0  -0.280894  0  3.910329  0  0  -0.28546  0  3.916625  0  0  -0.153878  -0.27764  0  3.90615  0
C  C42  1  0.20625712  0.82983742  0.40907778  1  0  -0.240515  0  3.657044  0  0  -0.283182  0  3.911519  0  0  -0.287962  0  3.918054  0  0  -0.154496  -0.279898  0  3.907196  0
C  C43  1  0.55487473  0.32979656  0.90915010  1  0  -0.239416  0  3.657462  0  0  -0.280907  0  3.910203  0  0  -0.285468  0  3.9165  0  0  -0.153885  -0.277668  0  3.906028  0
C  C44  1  0.60369851  0.25671402  0.56825745  1  0  -0.240863  0  3.65867  0  0  -0.282483  0  3.910956  0  0  -0.286381  0  3.915804  0  0  -0.155936  -0.279874  0  3.907881  0
C  C45  1  0.57115542  0.75688190  0.06816170  1  0  -0.239465  0  3.656611  0  0  -0.281274  0  3.908578  0  0  -0.285173  0  3.913299  0  0  -0.155836  -0.27875  0  3.90566  0
C  C46  1  0.39629856  0.74328659  0.43174353  1  0  -0.240888  0  3.658618  0  0  -0.282474  0  3.91086  0  0  -0.286402  0  3.915741  0  0  -0.155932  -0.279887  0  3.907814  0
C  C47  1  0.42884348  0.24311871  0.93183876  1  0  -0.239569  0  3.656512  0  0  -0.281369  0  3.90847  0  0  -0.285279  0  3.913208  0  0  -0.155884  -0.278844  0  3.905558  0
C  C48  1  0.56214897  0.23410189  0.47013574  1  0  0.74689  0  3.768364  0  0  0.703887  0  4.0637  0  0  0.739457  0  4.056714  0  0  0.236299  0.679384  0  4.067633  0
C  C49  1  0.73339589  0.73440210  0.96999170  1  0  0.742161  0  3.772413  0  0  0.698977  0  4.067854  0  0  0.73453  0  4.06094  0  0  0.232429  0.674459  0  4.071776  0
C  C50  1  0.43785099  0.76589872  0.52986498  1  0  0.746924  0  3.768288  0  0  0.703952  0  4.063557  0  0  0.739533  0  4.056569  0  0  0.236303  0.67945  0  4.067493  0
C  C51  1  0.26660233  0.26559952  0.03000754  1  0  0.742191  0  3.772516  0  0  0.699027  0  4.067913  0  0  0.734577  0  4.061012  0  0  0.232491  0.674508  0  4.071836  0
C  C52  1  0.18164091  0.89675925  0.89670791  1  0  0.7175  0  3.821229  0  0  0.675582  0  4.121038  0  0  0.709977  0  4.116065  0  0  0.212358  0.651908  0  4.123477  0
C  C53  1  0.02472945  0.39678439  0.39671185  1  0  0.722208  0  3.81876  0  0  0.680191  0  4.118741  0  0  0.71463  0  4.113681  0  0  0.214354  0.656533  0  4.121137  0
C  C54  1  0.81836141  0.10323935  0.10329164  1  0  0.717449  0  3.821213  0  0  0.675601  0  4.120933  0  0  0.709997  0  4.115958  0  0  0.212366  0.651927  0  4.123373  0
C  C55  1  0.97526989  0.60321320  0.60328998  1  0  0.722232  0  3.818821  0  0  0.680219  0  4.118782  0  0  0.714656  0  4.113728  0  0  0.214337  0.656561  0  4.121177  0
C  C56  1  0.99767981  0.95379414  0.96793152  1  0  -0.238069  0  3.695278  0  0  -0.278223  0  3.947313  0  0  -0.282852  0  3.953944  0  0  -0.157176  -0.275105  0  3.942869  0
C  C57  1  0.08056293  0.45380824  0.46790053  1  0  -0.239376  0  3.694547  0  0  -0.280245  0  3.947872  0  0  -0.284871  0  3.954483  0  0  -0.15915  -0.277009  0  3.943277  0
C  C58  1  0.00231991  0.04620445  0.03206933  1  0  -0.238099  0  3.695425  0  0  -0.278275  0  3.947435  0  0  -0.282903  0  3.954066  0  0  -0.157199  -0.275158  0  3.942993  0
C  C59  1  0.91943750  0.54618733  0.53210272  1  0  -0.239545  0  3.694665  0  0  -0.280353  0  3.947988  0  0  -0.284998  0  3.954585  0  0  -0.159226  -0.277117  0  3.943394  0
O  O60  1  0.96311322  0.94395991  0.66762545  1  0  -0.712799  0  1.978633  0  0  -0.660407  0  2.223726  0  0  -0.693602  0  2.214399  0  0  -0.350485  -0.636615  0  2.229387  0
O  O61  1  0.42521045  0.44398628  0.16751800  1  0  -0.712945  0  1.977954  0  0  -0.660805  0  2.223901  0  0  -0.693937  0  2.214627  0  0  -0.350479  -0.637059  0  2.229561  0
O  O62  1  0.03689196  0.05604071  0.33237267  1  0  -0.712724  0  1.978682  0  0  -0.660336  0  2.223729  0  0  -0.693529  0  2.214403  0  0  -0.350448  -0.636543  0  2.229389  0
O  O63  1  0.57478805  0.55601534  0.83248227  1  0  -0.712946  0  1.978002  0  0  -0.660845  0  2.223938  0  0  -0.693976  0  2.214661  0  0  -0.350489  -0.637097  0  2.229594  0
O  O64  1  0.67238222  0.98304501  0.65634921  1  0  -0.685089  0  2.001118  0  0  -0.63191  0  2.252829  0  0  -0.666377  0  2.243504  0  0  -0.387617  -0.607081  0  2.258299  0
O  O65  1  0.68814830  0.48306664  0.15633302  1  0  -0.684335  0  1.999579  0  0  -0.630665  0  2.251504  0  0  -0.665148  0  2.242239  0  0  -0.387224  -0.605731  0  2.256939  0
O  O66  1  0.32762483  0.01695360  0.34364955  1  0  -0.685073  0  2.001002  0  0  -0.631916  0  2.252724  0  0  -0.666386  0  2.243399  0  0  -0.387617  -0.607085  0  2.258192  0
O  O67  1  0.31184941  0.51693498  0.84366802  1  0  -0.684321  0  1.999574  0  0  -0.630675  0  2.251484  0  0  -0.665159  0  2.242218  0  0  -0.38724  -0.605741  0  2.256919  0
O  O68  1  0.66263218  0.26166188  0.37108644  1  0  -0.766479  0  2.058246  0  0  -0.714479  0  2.322826  0  0  -0.75449  0  2.316881  0  0  -0.414321  -0.685398  0  2.325522  0
O  O69  1  0.70451119  0.76187975  0.87093312  1  0  -0.764465  0  2.05899  0  0  -0.712574  0  2.323974  0  0  -0.75261  0  2.318119  0  0  -0.413272  -0.683481  0  2.32659  0
O  O70  1  0.33736769  0.73833772  0.62891628  1  0  -0.766494  0  2.058152  0  0  -0.714523  0  2.322755  0  0  -0.754534  0  2.316804  0  0  -0.414324  -0.685432  0  2.325433  0
O  O71  1  0.29548743  0.23812087  0.12906631  1  0  -0.764438  0  2.05901  0  0  -0.712594  0  2.32405  0  0  -0.752625  0  2.318186  0  0  -0.413289  -0.683501  0  2.326671  0
O  O72  1  0.42720563  0.19216695  0.48241466  1  0  -0.67541  0  2.017221  0  0  -0.622182  0  2.252808  0  0  -0.653349  0  2.243437  0  0  -0.33743  -0.600073  0  2.258614  0
O  O73  1  0.89794210  0.69249535  0.98232205  1  0  -0.673042  0  2.019337  0  0  -0.619146  0  2.254497  0  0  -0.650322  0  2.245114  0  0  -0.334699  -0.59696  0  2.260132  0
O  O74  1  0.57279328  0.80783366  0.51758580  1  0  -0.675399  0  2.017267  0  0  -0.622157  0  2.252803  0  0  -0.653327  0  2.243434  0  0  -0.337386  -0.600049  0  2.258609  0
O  O75  1  0.10205680  0.30750526  0.01767841  1  0  -0.67305  0  2.019383  0  0  -0.61917  0  2.254545  0  0  -0.650344  0  2.245163  0  0  -0.334725  -0.596982  0  2.260181  0
O  O76  1  0.19583025  0.80829371  0.84501039  1  0  -0.78357  0  2.075773  0  0  -0.737669  0  2.352177  0  0  -0.777565  0  2.345785  0  0  -0.444765  -0.708465  0  2.355034  0
O  O77  1  0.15060920  0.30827229  0.34502154  1  0  -0.785621  0  2.075259  0  0  -0.739774  0  2.35207  0  0  -0.779685  0  2.345657  0  0  -0.444602  -0.710545  0  2.354818  0
O  O78  1  0.80417139  0.19170590  0.15498794  1  0  -0.783541  0  2.075714  0  0  -0.737658  0  2.352067  0  0  -0.777556  0  2.345675  0  0  -0.444767  -0.708455  0  2.354926  0
O  O79  1  0.84938905  0.69172731  0.65497887  1  0  -0.785623  0  2.075251  0  0  -0.739772  0  2.352025  0  0  -0.779681  0  2.34561  0  0  -0.4446  -0.710543  0  2.354773  0
O  O80  1  0.31934528  0.93275935  0.88693157  1  0  -0.634239  0  1.919198  0  0  -0.592737  0  2.150571  0  0  -0.622437  0  2.143347  0  0  -0.347325  -0.571594  0  2.154778  0
O  O81  1  0.86075641  0.43280374  0.38700100  1  0  -0.635835  0  1.919236  0  0  -0.594724  0  2.151198  0  0  -0.624444  0  2.143936  0  0  -0.347945  -0.57354  0  2.155405  0
O  O82  1  0.68065440  0.06724126  0.11306811  1  0  -0.63422  0  1.919183  0  0  -0.592741  0  2.150519  0  0  -0.622444  0  2.143297  0  0  -0.347321  -0.5716  0  2.154725  0
O  O83  1  0.13923985  0.56719888  0.61299958  1  0  -0.635831  0  1.91933  0  0  -0.594716  0  2.151278  0  0  -0.624434  0  2.144014  0  0  -0.347935  -0.573532  0  2.155485  0
O  O84  1  0.94188726  0.48225984  0.85061253  1  0  -0.894055  0  1.838453  0  0  -0.845612  0  2.019883  0  0  -0.871092  0  1.985307  0  0  -0.630246  -0.827107  0  2.044153  0
O  O85  1  0.72541709  0.98230498  0.35044962  1  0  -0.894235  0  1.838798  0  0  -0.846006  0  2.019775  0  0  -0.871499  0  1.98503  0  0  -0.63053  -0.82749  0  2.04417  0
O  O86  1  0.05811320  0.51774078  0.14938637  1  0  -0.89406  0  1.838425  0  0  -0.845612  0  2.019862  0  0  -0.871092  0  1.985286  0  0  -0.630245  -0.827104  0  2.044122  0
O  O87  1  0.27458259  0.01769563  0.64955007  1  0  -0.894236  0  1.83879  0  0  -0.846005  0  2.019763  0  0  -0.871498  0  1.98502  0  0  -0.630528  -0.82749  0  2.044164  0
