# generated using pymatgen
data_Zn3H8C35Br4(ClO2)6
_symmetry_space_group_name_H-M   'P 1'
_cell_length_a   18.86999517
_cell_length_b   17.72438492
_cell_length_c   19.10664668
_cell_angle_alpha   108.62464617
_cell_angle_beta   111.00196826
_cell_angle_gamma   108.89711529
_symmetry_Int_Tables_number   1
_chemical_formula_structural   Zn3H8C35Br4(ClO2)6
_chemical_formula_sum   'Zn6 H16 C70 Br8 Cl12 O24'
_cell_volume   4910.72145982
_cell_formula_units_Z   2
loop_
 _symmetry_equiv_pos_site_id
 _symmetry_equiv_pos_as_xyz
  1  'x, y, z'
loop_
 _atom_site_type_symbol
 _atom_site_label
 _atom_site_symmetry_multiplicity
 _atom_site_fract_x
 _atom_site_fract_y
 _atom_site_fract_z
 _atom_site_occupancy
 _atom_site_pbe_bader_charge
 _atom_site_pbe_bader_spin_density
 _atom_site_pbe_cm5_charge
 _atom_site_pbe_ddec_charge
 _atom_site_pbe_ddec_spin_density
 _atom_site_pbe_ddec_sum_bond_order
 _atom_site_pbe_magmom
Zn  Zn0  1  0.56688755  0.06856974  0.00961241  1  1.320152  0  0.733531  0.983302  0  2.087027  0
Zn  Zn1  1  0.44261150  0.93106065  0.00373863  1  1.320642  0  0.733011  0.984457  0  2.090679  0
Zn  Zn2  1  0.55084694  0.50767660  0.54857944  1  1.31665  0  0.732268  0.980995  0  2.109718  0
Zn  Zn3  1  0.41688993  0.49578100  0.41758718  1  1.305479  0  0.722842  0.966149  0  2.061632  0
Zn  Zn4  1  0.00433306  0.92200922  0.44431164  1  1.314587  0  0.724943  0.975453  0  2.106688  0
Zn  Zn5  1  0.00865336  0.06307460  0.55877842  1  1.306298  0  0.723951  0.975314  0  2.092002  0
H  H6  1  0.04733310  0.97065468  0.84705387  1  0.109457  0  0.110176  0.138946  0  0.982694  0
H  H7  1  0.24169788  0.94029267  0.60992148  1  0.130158  0  0.107521  0.127432  0  1.002212  0
H  H8  1  0.36871874  0.10588334  0.15991537  1  0.101931  0  0.105903  0.124111  0  1.008479  0
H  H9  1  0.65897733  0.16493921  0.24424823  1  0.07992  0  0.095209  0.100966  0  1.049082  0
H  H10  1  0.80742169  0.29299642  0.35880192  1  0.070457  0  0.110504  0.111458  0  0.971657  0
H  H11  1  0.82610877  0.44329266  0.44958035  1  0.113838  0  0.107944  0.1191  0  0.987389  0
H  H12  1  0.33545963  0.68190234  0.72382984  1  0.121571  0  0.121794  0.144973  0  0.941373  0
H  H13  1  0.75691313  0.02646745  0.05492636  1  0.120689  0  0.107487  0.136347  0  1.008385  0
H  H14  1  0.97007122  0.98615730  0.26358716  1  0.122753  0  0.110774  0.137176  0  0.993813  0
H  H15  1  0.19798176  0.35330013  0.44660961  1  0.080727  0  0.112114  0.118886  0  0.9781  0
H  H16  1  0.40365740  0.25465501  0.43354592  1  0.10576  0  0.09352  0.100783  0  1.055788  0
H  H17  1  0.45037247  0.15355925  0.47517775  1  0.084843  0  0.108861  0.109616  0  0.974681  0
H  H18  1  0.39733934  0.09199155  0.55859062  1  0.070027  0  0.107127  0.118158  0  0.988915  0
H  H19  1  0.11314242  0.25404588  0.48851676  1  0.08532  0  0.111621  0.11945  0  0.977495  0
H  H20  1  0.64991594  0.61908566  0.39379854  1  0.130581  0  0.103074  0.125278  0  1.014158  0
H  H21  1  0.62741438  0.96887600  0.64476524  1  0.10999  0  0.102622  0.132954  0  1.004636  0
C  C22  1  0.40682952  0.03156327  0.90029501  1  1.58925  0  0.210456  0.60462  0  4.197999  0
C  C23  1  0.56785450  0.75892399  0.76949431  1  0.157621  0  0.017114  0.087122  0  3.76647  0
C  C24  1  0.53449165  0.73907447  0.82943922  1  0.004188  0  -0.006576  0.028909  0  3.61376  0
C  C25  1  0.48386270  0.79413157  0.81627662  1  0.017245  0  -0.005388  -0.049805  0  3.640837  0
C  C26  1  0.26440995  0.06760824  0.91459250  1  0.12356  0  0.004773  0.035236  0  4.005846  0
C  C27  1  0.18874590  0.05110242  0.91774652  1  -0.060658  0  -0.02188  0.065139  0  3.984054  0
C  C28  1  0.10570620  0.99021525  0.84240592  1  0.052726  0  -0.103084  -0.183213  0  4.006043  0
C  C29  1  0.09997826  0.95571440  0.76373592  1  -0.083882  0  -0.012069  0.080277  0  3.938328  0
C  C30  1  0.17562370  0.97958050  0.75645919  1  0.092103  0  -0.001253  0.027146  0  3.930976  0
C  C31  1  0.25878289  0.02466015  0.83380018  1  0.045775  0  0.005723  0.044227  0  3.907886  0
C  C32  1  0.33146769  0.02182853  0.82665890  1  0.024808  0  -0.015489  -0.103137  0  3.871692  0
C  C33  1  0.48165825  0.86128553  0.88510749  1  1.588131  0  0.21731  0.616882  0  4.145456  0
C  C34  1  0.32103532  0.98561712  0.74549213  1  -0.105347  0  -0.014384  0.095867  0  3.951744  0
C  C35  1  0.24419350  0.95849844  0.67111363  1  0.045806  0  -0.090968  -0.145041  0  3.987417  0
C  C36  1  0.17296023  0.95735143  0.67623667  1  -0.024135  0  -0.009781  -0.039387  0  3.916415  0
C  C37  1  0.66753012  0.22831444  0.28835478  1  -0.045822  0  -0.093097  -0.125956  0  3.989545  0
C  C38  1  0.75020650  0.29986618  0.35153204  1  0.00742  0  -0.086341  -0.059377  0  4.026654  0
C  C39  1  0.76091685  0.38395532  0.40421082  1  -0.035683  0  -0.094069  -0.13479  0  4.026513  0
C  C40  1  0.68912622  0.39334077  0.39713514  1  -0.082498  0  -0.012808  0.064078  0  3.907587  0
C  C41  1  0.60164493  0.31752739  0.34006821  1  0.027574  0  0.001859  0.027518  0  3.901951  0
C  C42  1  0.59268738  0.23557200  0.28012793  1  0.023652  0  0.003083  0.072363  0  3.927484  0
C  C43  1  0.50693129  0.16118080  0.21278886  1  -0.011379  0  -0.005854  -0.043165  0  3.918239  0
C  C44  1  0.64678209  0.01161997  0.10918368  1  1.56426  0  0.217957  0.614336  0  4.131979  0
C  C45  1  0.43383350  0.16251097  0.21095451  1  0.06194  0  -0.089496  -0.164195  0  3.997387  0
C  C46  1  0.44290922  0.23971822  0.27341188  1  0.031075  0  0.022096  0.136124  0  4.01177  0
C  C47  1  0.52412722  0.31721774  0.33666185  1  0.053373  0  -0.01302  -0.113462  0  3.873201  0
C  C48  1  0.80247318  0.01739303  0.10113308  1  0.040268  0  -0.096044  -0.189907  0  3.955171  0
C  C49  1  0.87550937  0.02214341  0.09764569  1  0.088234  0  0.009406  0.096165  0  4.056441  0
C  C50  1  0.93772272  0.01269024  0.15839362  1  0.063915  0  0.009498  0.097666  0  4.059795  0
C  C51  1  0.92318330  0.99563920  0.21894135  1  0.014262  0  -0.091567  -0.180257  0  3.933854  0
C  C52  1  0.84762007  0.98839640  0.22254687  1  0.021958  0  -0.001456  0.074026  0  3.969752  0
C  C53  1  0.78680653  0.00222113  0.16398913  1  0.007558  0  -0.000519  0.07811  0  3.962951  0
C  C54  1  0.71258622  0.99921991  0.17028393  1  0.079419  0  -0.016893  -0.115571  0  3.899211  0
C  C55  1  0.49484888  0.08794625  0.13582050  1  1.559947  0  0.221359  0.604356  0  4.149735  0
C  C56  1  0.69836734  0.97898941  0.23052086  1  -0.06467  0  -0.014761  0.046082  0  3.935389  0
C  C57  1  0.75571098  0.95967698  0.28424979  1  -0.046524  0  -0.018801  0.032092  0  3.960438  0
C  C58  1  0.83081632  0.96777132  0.28306354  1  0.045254  0  -0.00802  -0.087154  0  3.903731  0
C  C59  1  0.34272427  0.36797972  0.44514115  1  1.524983  0  0.217119  0.60093  0  4.147128  0
C  C60  1  0.48903249  0.60401032  0.61867523  1  1.576496  0  0.216084  0.627189  0  4.129494  0
C  C61  1  0.56568670  0.64074029  0.47220868  1  1.602888  0  0.222915  0.610911  0  4.145964  0
C  C62  1  0.52555004  0.39378041  0.40175222  1  1.575217  0  0.206661  0.597107  0  4.19559  0
C  C63  1  0.87671992  0.91517081  0.51857550  1  1.555029  0  0.198431  0.583054  0  4.193899  0
C  C64  1  0.10500807  0.95509651  0.60266551  1  1.575725  0  0.211181  0.591021  0  4.183031  0
C  C65  1  0.13160553  0.12826670  0.52191424  1  1.561896  0  0.2156  0.598818  0  4.181149  0
C  C66  1  0.40184851  0.70353225  0.73622561  1  -0.007359  0  -0.072892  -0.131106  0  3.630365  0
C  C67  1  0.89875234  0.96587147  0.35334753  1  1.576716  0  0.216322  0.610547  0  4.165389  0
C  C68  1  0.37479331  0.22142274  0.46280127  1  0.016299  0  -0.094706  -0.12914  0  3.982143  0
C  C69  1  0.40173362  0.16580220  0.48711325  1  -0.053988  0  -0.08698  -0.059518  0  4.030774  0
C  C70  1  0.37047243  0.12892756  0.53199599  1  0.017682  0  -0.094825  -0.152341  0  4.016575  0
C  C71  1  0.30734265  0.14245789  0.54535704  1  0.0506  0  0.014915  0.102887  0  4.020659  0
C  C72  1  0.26874407  0.18905430  0.51084824  1  0.020271  0  -0.001265  0.0003  0  3.924006  0
C  C73  1  0.31008298  0.23647302  0.47600057  1  -0.028405  0  0.004887  0.078321  0  3.931091  0
C  C74  1  0.28445505  0.29826271  0.45573910  1  -0.016531  0  -0.008036  -0.064868  0  3.9242  0
C  C75  1  0.21550841  0.30504903  0.46119579  1  0.005722  0  -0.078972  -0.090327  0  3.991166  0
C  C76  1  0.16973021  0.25155132  0.48747779  1  0.032981  0  -0.080529  -0.094875  0  3.9755  0
C  C77  1  0.45104162  0.64855340  0.74795442  1  0.166874  0  0.026708  0.127417  0  3.722451  0
C  C78  1  0.19486116  0.19431380  0.51155343  1  -0.04659  0  -0.00593  -0.044659  0  3.915226  0
C  C79  1  0.62614176  0.85020974  0.56676076  1  -0.006769  0  0.011163  0.112374  0  4.059487  0
C  C80  1  0.66523724  0.94135672  0.62556514  1  0.16647  0  -0.1072  -0.21696  0  4.03251  0
C  C81  1  0.75607439  0.99635041  0.66641000  1  0.06228  0  0.007849  0.10852  0  4.063785  0
C  C82  1  0.80540967  0.96369159  0.64052470  1  0.13833  0  0.007665  0.037549  0  3.960895  0
C  C83  1  0.76145146  0.87666124  0.56343912  1  0.036366  0  0.007346  0.053046  0  3.861171  0
C  C84  1  0.67280203  0.81406202  0.53581805  1  0.070074  0  -0.006132  -0.006142  0  3.928105  0
C  C85  1  0.63670002  0.71901642  0.47897627  1  -0.046023  0  0.004728  0.005321  0  3.884764  0
C  C86  1  0.67728821  0.69143219  0.43734987  1  0.055829  0  -0.099025  -0.184312  0  3.984534  0
C  C87  1  0.75442113  0.75548173  0.44950348  1  0.014072  0  0.025947  0.158486  0  3.995427  0
C  C88  1  0.48459053  0.66888504  0.68725373  1  0.018208  0  -0.005796  -0.113387  0  3.604649  0
C  C89  1  0.79956781  0.84807535  0.51336639  1  0.054744  0  -0.027991  -0.153217  0  3.874079  0
C  C90  1  0.43426295  0.72390779  0.67643449  1  0.156171  0  0.02191  0.121227  0  3.725966  0
C  C91  1  0.51887197  0.81434699  0.75729150  1  0.035911  0  -0.01262  0.022656  0  3.610925  0
Br  Br92  1  0.98939987  0.86090915  0.66547095  1  -0.023317  0  0.051054  -0.024452  0  1.545488  0
Br  Br93  1  0.71629757  0.51667488  0.46060575  1  -0.05105  0  0.040805  -0.050749  0  1.54944  0
Br  Br94  1  0.60753996  0.98436376  0.24947589  1  -0.008009  0  0.050369  -0.01588  0  1.574192  0
Br  Br95  1  0.72876742  0.91998318  0.35707317  1  -0.008838  0  0.050461  -0.01112  0  1.593106  0
Br  Br96  1  0.57519472  0.92809608  0.76302939  1  -0.016651  0  0.045319  -0.013177  0  1.603685  0
Br  Br97  1  0.60435182  0.75160546  0.93688768  1  -0.017484  0  0.032982  -0.026442  0  1.34757  0
Br  Br98  1  0.40730733  0.96490832  0.72790721  1  -0.029397  0  0.021001  -0.064706  0  1.607445  0
Br  Br99  1  0.19317612  0.10555979  0.02321419  1  -0.020713  0  0.03123  -0.054246  0  1.447933  0
Cl  Cl100  1  0.40859274  0.54290816  0.74150886  1  -0.181975  0  -0.014025  -0.071695  0  1.399792  0
Cl  Cl101  1  0.34644499  0.23143232  0.26676894  1  -0.19144  0  0.014868  -0.04076  0  1.580937  0
Cl  Cl102  1  0.89050825  0.03959107  0.01925507  1  -0.184727  0  -0.014239  -0.074183  0  1.491481  0
Cl  Cl103  1  0.03049996  0.02150217  0.15649074  1  -0.184293  0  -0.014223  -0.072423  0  1.475013  0
Cl  Cl104  1  0.28363090  0.11025213  0.61423435  1  -0.204861  0  0.010965  -0.054892  0  1.636034  0
Cl  Cl105  1  0.36584279  0.71601808  0.58221795  1  -0.186711  0  -0.021272  -0.076957  0  1.514452  0
Cl  Cl106  1  0.51783761  0.78278703  0.53037574  1  -0.18002  0  0.009498  -0.049035  0  1.675919  0
Cl  Cl107  1  0.80412670  0.10327935  0.75299684  1  -0.175402  0  -0.010308  -0.064655  0  1.479734  0
Cl  Cl108  1  0.91646594  0.02352729  0.71065037  1  -0.167948  0  0.00198  -0.04232  0  1.709235  0
Cl  Cl109  1  0.78398800  0.70714228  0.37896045  1  -0.160636  0  0.008938  -0.038119  0  1.551184  0
Cl  Cl110  1  0.67332035  0.79534353  0.79140820  1  -0.166277  0  -0.006809  -0.054522  0  1.506866  0
Cl  Cl111  1  0.36493652  0.14436386  0.00670669  1  -0.176106  0  0.027492  -0.01007  0  1.676127  0
O  O112  1  0.48583947  0.08969624  0.92932317  1  -1.127161  0  -0.311771  -0.526295  0  2.276389  0
O  O113  1  0.31133554  0.39429910  0.39151327  1  -1.123945  0  -0.317054  -0.528396  0  2.199639  0
O  O114  1  0.54661728  0.58033375  0.64597655  1  -1.116529  0  -0.313662  -0.521792  0  2.254954  0
O  O115  1  0.43861865  0.57981737  0.54136691  1  -1.156801  0  -0.30502  -0.560435  0  2.330474  0
O  O116  1  0.59576619  0.61893838  0.52885575  1  -1.156225  0  -0.306283  -0.564279  0  2.321619  0
O  O117  1  0.48668380  0.59837948  0.41000238  1  -1.133714  0  -0.308446  -0.511314  0  2.270699  0
O  O118  1  0.56869971  0.41510124  0.48134324  1  -1.121909  0  -0.314568  -0.526672  0  2.289687  0
O  O119  1  0.48107330  0.42888960  0.37431605  1  -1.166244  0  -0.310319  -0.570977  0  2.355938  0
O  O120  1  0.91390116  0.88434916  0.48298101  1  -1.179957  0  -0.316675  -0.588841  0  2.50426  0
O  O121  1  0.90082178  0.00118295  0.55603459  1  -1.121111  0  -0.317016  -0.532537  0  2.369357  0
O  O122  1  0.08023387  0.89884485  0.52543440  1  -1.133149  0  -0.315969  -0.521682  0  2.250106  0
O  O123  1  0.38307010  0.97266937  0.92330353  1  -1.161837  0  -0.312005  -0.569254  0  2.354142  0
O  O124  1  0.08459825  0.01690244  0.62383725  1  -1.15924  0  -0.311172  -0.566428  0  2.337835  0
O  O125  1  0.10183859  0.04373978  0.47343623  1  -1.16589  0  -0.313876  -0.574354  0  2.360105  0
O  O126  1  0.10643238  0.16110769  0.57272940  1  -1.129985  0  -0.316056  -0.525406  0  2.252485  0
O  O127  1  0.91757266  0.90135550  0.33427749  1  -1.123265  0  -0.310714  -0.520554  0  2.212575  0
O  O128  1  0.93389988  0.03161495  0.42799568  1  -1.162016  0  -0.304996  -0.557081  0  2.328408  0
O  O129  1  0.53448283  0.94489432  0.91574780  1  -1.170479  0  -0.308371  -0.568185  0  2.402405  0
O  O130  1  0.42707873  0.82890395  0.90707348  1  -1.121499  0  -0.310686  -0.513697  0  2.211131  0
O  O131  1  0.67329893  0.07782897  0.09368459  1  -1.13  0  -0.307744  -0.516276  0  2.211357  0
O  O132  1  0.56744080  0.95406193  0.07578408  1  -1.171168  0  -0.312142  -0.584227  0  2.446691  0
O  O133  1  0.54033421  0.11662885  0.10503985  1  -1.177497  0  -0.308444  -0.571454  0  2.383564  0
O  O134  1  0.43853390  0.00360090  0.10341519  1  -1.128982  0  -0.313928  -0.52611  0  2.220697  0
O  O135  1  0.42403017  0.40249464  0.49504238  1  -1.180262  0  -0.307509  -0.575414  0  2.4176  0
