# generated using pymatgen
data_MnH12(C8N5)2
_symmetry_space_group_name_H-M   'P 1'
_cell_length_a   6.81249155
_cell_length_b   9.80649159
_cell_length_c   12.48595185
_cell_angle_alpha   98.72749524
_cell_angle_beta   89.98518115
_cell_angle_gamma   110.32882560
_symmetry_Int_Tables_number   1
_chemical_formula_structural   MnH12(C8N5)2
_chemical_formula_sum   'Mn2 H24 C32 N20'
_cell_volume   771.89322857
_cell_formula_units_Z   2
loop_
 _symmetry_equiv_pos_site_id
 _symmetry_equiv_pos_as_xyz
  1  'x, y, z'
loop_
 _atom_site_type_symbol
 _atom_site_label
 _atom_site_symmetry_multiplicity
 _atom_site_fract_x
 _atom_site_fract_y
 _atom_site_fract_z
 _atom_site_occupancy
 _atom_site_hle17_ddec_charge
 _atom_site_hle17_ddec_spin_density
 _atom_site_hle17_ddec_sum_bond_order
 _atom_site_hle17_magmom
 _atom_site_hse06_10hf_ddec_charge
 _atom_site_hse06_10hf_ddec_spin_density
 _atom_site_hse06_10hf_ddec_sum_bond_order
 _atom_site_hse06_10hf_magmom
 _atom_site_hse06_ddec_charge
 _atom_site_hse06_ddec_spin_density
 _atom_site_hse06_ddec_sum_bond_order
 _atom_site_hse06_magmom
 _atom_site_pbe_cm5_charge
 _atom_site_pbe_ddec_charge
 _atom_site_pbe_ddec_spin_density
 _atom_site_pbe_ddec_sum_bond_order
 _atom_site_pbe_magmom
Mn  Mn0  1  0.93579287  0.00001248  0.75003906  1  1.010127  -4.760143  2.127152  -4.621  0.852109  -4.647555  2.6686  -4.454  0.912042  -4.726633  2.59495  -4.542  0.642795  0.801758  -4.555875  2.72651  -4.354
Mn  Mn1  1  0.06420621  0.99998802  0.24995916  1  1.010149  4.760125  2.127215  4.621  0.85219  4.647545  2.668592  4.454  0.912088  4.726618  2.595011  4.542  0.642798  0.801813  4.555855  2.726577  4.354
H  H2  1  0.62413025  0.73427234  0.83606378  1  0.056807  0.000493  0.964077  0.0  0.061315  0.000317  1.038374  0.0  0.063089  0.000416  1.036282  0.0  0.120434  0.059876  0.000222  1.040108  0.0
H  H3  1  0.88991495  0.26579746  0.66412823  1  0.056711  0.000489  0.963302  0.0  0.061134  0.000323  1.037639  0.0  0.062914  0.000418  1.035639  0.0  0.120276  0.059752  0.00022  1.039082  0.0
H  H4  1  0.37587342  0.26573146  0.16393645  1  0.056757  -0.000489  0.964055  0.0  0.061275  -0.000317  1.038367  0.0  0.063053  -0.000416  1.036262  0.0  0.120429  0.059841  -0.000222  1.040089  0.0
H  H5  1  0.11008432  0.73419753  0.33587013  1  0.056739  -0.000491  0.963298  0.0  0.061163  -0.000323  1.037632  0.0  0.062953  -0.000418  1.035604  0.0  0.120302  0.059785  -0.00022  1.039081  0.0
H  H6  1  0.37307833  0.24075793  0.68055346  1  0.109416  0.00048  0.975634  0.0  0.113689  0.000512  1.047  0.0  0.116494  0.000552  1.047027  0.0  0.10518  0.111609  0.000446  1.047181  0.0
H  H7  1  0.13284161  0.75924589  0.81958515  1  0.109111  0.000484  0.975777  0.0  0.113036  0.000527  1.047651  0.0  0.115901  0.000565  1.047627  0.0  0.104897  0.111011  0.000448  1.047539  0.0
H  H8  1  0.62692386  0.75924587  0.31944837  1  0.109419  -0.000484  0.975615  0.0  0.113698  -0.000512  1.046976  0.0  0.116504  -0.000552  1.047003  0.0  0.105182  0.111628  -0.000446  1.047157  0.0
H  H9  1  0.86715912  0.24074911  0.18041161  1  0.10907  -0.00049  0.975805  0.0  0.112993  -0.000527  1.047686  0.0  0.115859  -0.000566  1.047661  0.0  0.10487  0.110974  -0.000448  1.047574  0.0
H  H10  1  0.43881913  0.10167122  0.50856120  1  0.092739  -0.000215  0.954971  0.0  0.103426  -0.000336  1.015689  0.0  0.105562  -0.000324  1.015134  0.0  0.105198  0.101931  -0.000334  1.015915  0.0
H  H11  1  0.33763656  0.89835971  0.99153951  1  0.092756  -0.000217  0.954152  0.0  0.103542  -0.000352  1.014555  0.0  0.105674  -0.000336  1.014012  0.0  0.105215  0.101749  -0.000334  1.015426  0.0
H  H12  1  0.56118307  0.89833258  0.49143983  1  0.09272  0.000217  0.95493  0.0  0.103416  0.000336  1.015642  0.0  0.105549  0.000324  1.015093  0.0  0.105199  0.101925  0.000334  1.015866  0.0
H  H13  1  0.66236326  0.10163639  0.00845658  1  0.092739  0.000218  0.954151  0.0  0.10353  0.000353  1.014548  0.0  0.105658  0.000336  1.01401  0.0  0.105184  0.101734  0.000335  1.015421  0.0
H  H14  1  0.68110758  0.23259146  0.37847104  1  0.094527  -0.000247  0.968879  0.0  0.103194  -0.000223  1.032259  0.0  0.105407  -0.000252  1.032845  0.0  0.103657  0.10143  -0.000181  1.032122  0.0
H  H15  1  0.44868471  0.76738978  0.12166964  1  0.095212  -0.000251  0.968829  0.0  0.103883  -0.000222  1.032158  0.0  0.106082  -0.00025  1.03276  0.0  0.103918  0.102154  -0.000181  1.031909  0.0
H  H16  1  0.31889425  0.76741455  0.62152946  1  0.094526  0.000246  0.968892  0.0  0.103202  0.000223  1.032259  0.0  0.105418  0.000252  1.032838  0.0  0.103634  0.101435  0.000181  1.032117  0.0
H  H17  1  0.55131235  0.23260962  0.87832926  1  0.09521  0.000251  0.968841  0.0  0.103887  0.000222  1.032161  0.0  0.106083  0.00025  1.032769  0.0  0.10392  0.102154  0.000181  1.031905  0.0
H  H18  1  0.85769957  0.50204206  0.41600143  1  0.097694  3e-05  0.987722  0.0  0.10391  5e-06  1.056751  0.0  0.106727  4e-06  1.055881  0.0  0.101427  0.101848  9e-06  1.057519  0.0
H  H19  1  0.35557547  0.49794082  0.08419933  1  0.098311  4.1e-05  0.98771  0.0  0.104697  1.6e-05  1.056404  0.0  0.107543  1.1e-05  1.05545  0.0  0.102083  0.102676  9e-06  1.057192  0.0
H  H20  1  0.14230611  0.49796283  0.58400054  1  0.09771  -3.2e-05  0.987757  0.0  0.103921  -5e-06  1.056776  0.0  0.106737  -4e-06  1.055921  0.0  0.101426  0.101857  -9e-06  1.057536  0.0
H  H21  1  0.64441902  0.50205636  0.91580170  1  0.098284  -4.7e-05  0.987672  0.0  0.10468  -1.6e-05  1.056364  0.0  0.107529  -1.1e-05  1.055403  0.0  0.102052  0.102658  -9e-06  1.057148  0.0
H  H22  1  0.93204877  0.74329660  0.54931938  1  0.08018  -0.000194  0.936938  0.0  0.088923  -0.000533  1.003658  0.0  0.090475  -0.000412  1.0022  0.0  0.122728  0.087764  -0.00067  1.004721  0.0
H  H23  1  0.18833951  0.25660166  0.95088230  1  0.080475  -0.000188  0.937102  0.0  0.088941  -0.000533  1.004222  0.0  0.090476  -0.000412  1.00274  0.0  0.122356  0.087687  -0.000669  1.005322  0.0
H  H24  1  0.06795728  0.25670609  0.45068152  1  0.080196  0.000189  0.936924  0.0  0.08891  0.000533  1.003679  0.0  0.090463  0.000412  1.002217  0.0  0.122741  0.087753  0.000669  1.00474  0.0
H  H25  1  0.81165736  0.74339443  0.04911860  1  0.080489  0.000187  0.937128  0.0  0.08894  0.000532  1.004249  0.0  0.09048  0.000412  1.002753  0.0  0.122349  0.087688  0.000668  1.005344  0.0
C  C26  1  0.64935916  0.67133398  0.76085056  1  0.283174  -0.001017  3.715124  -0.001  0.235647  -0.00228  3.99155  -0.002  0.249862  -0.00198  4.003787  -0.002  0.174324  0.226161  -0.002484  3.983106  -0.002
C  C27  1  0.97811206  0.32871053  0.73933211  1  0.285263  -0.001027  3.713557  -0.001  0.237841  -0.002181  3.989966  -0.002  0.252004  -0.001922  4.002088  -0.002  0.175182  0.228688  -0.002482  3.981168  -0.002
C  C28  1  0.35064267  0.32867202  0.23915074  1  0.283193  0.001031  3.71493  0.001  0.235646  0.002281  3.99141  0.002  0.249864  0.001976  4.003643  0.002  0.174283  0.226166  0.002484  3.982964  0.002
C  C29  1  0.02188481  0.67128556  0.26066639  1  0.28529  0.001026  3.713463  0.001  0.23788  0.002181  3.989862  0.002  0.252045  0.00192  4.001985  0.002  0.175201  0.228726  0.002482  3.98108  0.002
C  C30  1  0.58204352  0.45170520  0.64753485  1  0.2266  -0.00072  3.791193  -0.001  0.225665  -0.001364  4.029202  -0.001  0.234774  -0.001255  4.048033  -0.001  0.119237  0.219745  -0.001375  4.016489  -0.001
C  C31  1  0.13066219  0.54830048  0.85264410  1  0.227499  -0.000611  3.788968  -0.001  0.225102  -0.001095  4.02879  -0.001  0.234199  -0.001052  4.047593  -0.001  0.118805  0.219306  -0.001377  4.015895  -0.001
C  C32  1  0.41795812  0.54829749  0.35246765  1  0.22667  0.000735  3.790956  0.001  0.225632  0.001363  4.029135  0.001  0.234743  0.001255  4.047968  0.001  0.119277  0.219714  0.001375  4.016435  0.001
C  C33  1  0.86933671  0.45169672  0.14735373  1  0.227547  0.000613  3.788747  0.001  0.225041  0.001095  4.028763  0.001  0.234136  0.001049  4.047566  0.001  0.118816  0.219246  0.001377  4.015871  0.001
C  C34  1  0.48007394  0.29720907  0.62337607  1  -0.148634  0.001059  3.676726  0.001  -0.167151  0.00096  3.926629  0.001  -0.174232  0.001151  3.948  0.001  -0.087059  -0.162708  0.00088  3.912411  0.001
C  C35  1  0.18332693  0.70281164  0.87678651  1  -0.148997  0.001286  3.675535  0.001  -0.167108  0.001179  3.926106  0.001  -0.174248  0.00136  3.947437  0.001  -0.086403  -0.162276  0.000883  3.911508  0.001
C  C36  1  0.51992679  0.70279473  0.37662496  1  -0.148615  -0.001082  3.676666  -0.001  -0.167118  -0.000959  3.926643  -0.001  -0.174196  -0.001152  3.948004  -0.001  -0.087041  -0.162688  -0.00088  3.912443  -0.001
C  C37  1  0.81667234  0.29718336  0.12321025  1  -0.148883  -0.001269  3.675393  -0.001  -0.166953  -0.00118  3.925978  -0.001  -0.17409  -0.001358  3.947309  -0.001  -0.086327  -0.162132  -0.000882  3.91139  -0.001
C  C38  1  0.51810402  0.22061603  0.52809048  1  -0.023256  -0.001073  3.722285  -0.001  -0.04108  -0.00134  3.974558  -0.001  -0.039862  -0.0013  3.995818  -0.001  -0.075106  -0.041661  -0.001477  3.960096  -0.001
C  C39  1  0.29791527  0.77940516  0.97205516  1  -0.020995  -0.001398  3.719473  -0.001  -0.038334  -0.001723  3.971216  -0.001  -0.037118  -0.001643  3.992511  -0.001  -0.074698  -0.039455  -0.001479  3.957615  -0.001
C  C40  1  0.48189579  0.77938887  0.47190989  1  -0.023285  0.001099  3.722349  0.001  -0.041109  0.001339  3.974626  0.001  -0.039898  0.001301  3.995907  0.001  -0.075141  -0.041681  0.001477  3.960151  0.001
C  C41  1  0.70208014  0.22059093  0.02794334  1  -0.021017  0.001388  3.719588  0.001  -0.038348  0.001723  3.971325  0.001  -0.037133  0.001642  3.99262  0.001  -0.074659  -0.039464  0.001479  3.957716  0.001
C  C42  1  0.65538370  0.29490977  0.45353201  1  -0.071455  0.000663  3.736993  0.001  -0.085155  0.000437  3.989988  0.001  -0.090707  0.000596  4.013377  0.001  -0.088134  -0.081633  0.000258  3.974392  0.0
C  C43  1  0.36068289  0.70510220  0.04663311  1  -0.073838  0.000806  3.736314  0.001  -0.087779  0.000459  3.989583  0.001  -0.093378  0.000645  4.012918  0.001  -0.089017  -0.084209  0.000259  3.974404  0.0
C  C44  1  0.34461813  0.70509624  0.54646849  1  -0.071446  -0.000689  3.736965  -0.001  -0.085147  -0.00044  3.989946  -0.001  -0.090699  -0.000595  4.013336  -0.001  -0.088086  -0.081618  -0.000258  3.97433  0.0
C  C45  1  0.63931453  0.29489499  0.95336712  1  -0.073879  -0.000804  3.736428  -0.001  -0.087835  -0.00046  3.989709  -0.001  -0.093432  -0.000646  4.01304  -0.001  -0.089051  -0.084263  -0.000259  3.974517  0.0
C  C46  1  0.75417349  0.44568434  0.47443854  1  -0.084431  -0.001198  3.732493  -0.001  -0.105331  -0.001305  3.978368  -0.001  -0.105096  -0.001321  3.99997  -0.001  -0.081618  -0.10509  -0.001294  3.963609  -0.001
C  C47  1  0.30858947  0.55429495  0.02574179  1  -0.084006  -0.001459  3.731989  -0.001  -0.104882  -0.001528  3.977314  -0.001  -0.104579  -0.001528  3.998856  -0.001  -0.082037  -0.10492  -0.001303  3.962757  -0.001
C  C48  1  0.24582724  0.55431946  0.52556329  1  -0.084545  0.001233  3.732453  0.001  -0.105412  0.001307  3.97832  0.001  -0.105179  0.00132  3.999916  0.001  -0.081652  -0.105162  0.001294  3.963538  0.001
C  C49  1  0.69140758  0.44570444  0.97425951  1  -0.083965  0.001469  3.731942  0.001  -0.104836  0.001528  3.977278  0.001  -0.104531  0.001528  3.998816  0.001  -0.081985  -0.104872  0.001303  3.962706  0.001
C  C50  1  0.72094409  0.52636916  0.57232050  1  -0.043292  -4.6e-05  3.804054  0.0  -0.020356  -0.000123  4.025712  0.0  -0.028181  0.000203  4.049888  0.0  -0.003368  -0.01563  -0.000446  4.01016  0.0
C  C51  1  0.19474651  0.47360214  0.92786181  1  -0.044409  4.7e-05  3.806965  0.0  -0.020661  -8.9e-05  4.027863  0.0  -0.028566  0.000251  4.052093  0.0  -0.003736  -0.01595  -0.000446  4.01248  0.0
C  C52  1  0.27905664  0.47363464  0.42768133  1  -0.04321  3.2e-05  3.803875  0.0  -0.020262  0.000122  4.02557  0.0  -0.028096  -0.000202  4.049764  0.0  -0.003385  -0.015534  0.000446  4.01002  0.0
C  C53  1  0.80524981  0.52639285  0.07213735  1  -0.044455  -4.9e-05  3.806952  0.0  -0.020713  8.8e-05  4.027928  0.0  -0.028642  -0.000246  4.052215  0.0  -0.003803  -0.016003  0.000447  4.012546  0.0
C  C54  1  0.82150482  0.67995879  0.60244402  1  0.163807  -0.001848  3.637193  -0.002  0.120421  -0.004591  3.893054  -0.004  0.133786  -0.003824  3.906314  -0.003  0.085099  0.111413  -0.005269  3.883708  -0.004
C  C55  1  0.14145009  0.31998539  0.89774213  1  0.163093  -0.002006  3.639481  -0.002  0.120019  -0.004691  3.894687  -0.004  0.13342  -0.003922  3.907885  -0.003  0.085037  0.11105  -0.00528  3.885316  -0.004
C  C56  1  0.17849738  0.32004500  0.39755781  1  0.163761  0.001875  3.636957  0.002  0.120399  0.004593  3.892867  0.004  0.133768  0.003822  3.906122  0.003  0.085114  0.111397  0.005269  3.883518  0.004
C  C57  1  0.85854385  0.68001070  0.10225717  1  0.163163  0.002006  3.639459  0.002  0.120144  0.004692  3.894636  0.004  0.133552  0.003918  3.907823  0.003  0.085109  0.111181  0.005279  3.885263  0.004
N  N58  1  0.78852315  0.75240933  0.69538909  1  -0.377415  -0.026203  3.232761  -0.015  -0.303426  -0.029909  3.51047  -0.015  -0.327305  -0.02717  3.523758  -0.013  -0.314466  -0.285817  -0.032361  3.500954  -0.017
N  N59  1  0.03602086  0.24757212  0.80478636  1  -0.378517  -0.026123  3.232455  -0.015  -0.304338  -0.029892  3.509611  -0.015  -0.328226  -0.02714  3.522966  -0.013  -0.314659  -0.286898  -0.032366  3.499944  -0.017
N  N60  1  0.21147996  0.24759337  0.30461100  1  -0.377412  0.02618  3.232532  0.015  -0.303444  0.029908  3.510266  0.015  -0.327317  0.027172  3.523549  0.013  -0.314479  -0.285834  0.032362  3.500758  0.017
N  N61  1  0.96397602  0.75242397  0.19521294  1  -0.378611  0.026127  3.232453  0.015  -0.304458  0.029892  3.509621  0.015  -0.328344  0.027144  3.522971  0.013  -0.314679  -0.287018  0.032368  3.499969  0.017
N  N62  1  0.54775961  0.52832454  0.74214982  1  -0.364191  -8e-05  3.043781  0.0  -0.328644  -2e-05  3.312445  0.0  -0.342977  0.000408  3.326692  0.0  -0.309394  -0.319321  -0.000322  3.302988  0.0
N  N63  1  0.01968802  0.47173708  0.75801958  1  -0.365379  8.7e-05  3.041846  0.0  -0.329339  0.000207  3.310549  0.0  -0.343658  0.000587  3.324847  0.001  -0.309085  -0.319886  -0.00032  3.300935  0.0
N  N64  1  0.45224148  0.47167705  0.25785094  1  -0.364169  5.8e-05  3.04359  0.0  -0.328581  1.9e-05  3.312323  0.0  -0.342908  -0.000406  3.326554  0.0  -0.309355  -0.319257  0.000322  3.302872  0.0
N  N65  1  0.98030776  0.52825681  0.24197865  1  -0.365468  -8.8e-05  3.041725  0.0  -0.329401  -0.000208  3.310483  0.0  -0.34372  -0.000585  3.324781  -0.001  -0.309151  -0.319943  0.00032  3.300879  0.0
N  N66  1  0.89987186  0.95789804  0.91612973  1  -0.496027  0.038931  2.668762  0.053  -0.48617  0.029827  2.978203  0.046  -0.505243  0.036219  2.981071  0.053  -0.246806  -0.470744  0.025539  2.976143  0.042
N  N67  1  0.94208208  0.04209406  0.58392437  1  -0.495656  0.038904  2.66744  0.053  -0.485637  0.029732  2.976479  0.046  -0.504628  0.036101  2.979579  0.053  -0.247161  -0.470912  0.025503  2.974967  0.042
N  N68  1  0.10012611  0.04210024  0.08387224  1  -0.496066  -0.038927  2.668373  -0.053  -0.48624  -0.029824  2.977857  -0.046  -0.505317  -0.036216  2.980731  -0.053  -0.246842  -0.470813  -0.02553  2.975804  -0.042
N  N69  1  0.05792453  0.95790093  0.41607239  1  -0.495762  -0.038901  2.667329  -0.053  -0.485758  -0.029733  2.976387  -0.046  -0.504733  -0.036102  2.979456  -0.053  -0.247216  -0.471016  -0.025499  2.974852  -0.042
N  N70  1  0.99999651  0.99999830  0.99999796  1  0.402769  3e-06  4.221106  0.0  0.439009  6e-06  4.502151  0.0  0.456968  5e-06  4.533291  0.0  0.091091  0.425989  4e-06  4.478883  0.0
N  N71  1  0.00000125  0.99999825  0.50000009  1  0.403087  -1e-06  4.219642  0.0  0.439669  4e-06  4.499819  0.0  0.457319  3e-06  4.5314  0.0  0.091788  0.426604  2e-06  4.477741  0.0
N  N72  1  0.59842815  0.99994795  0.75000530  1  -0.466394  -0.054868  2.607639  -0.043  -0.451827  -0.064454  2.894099  -0.046  -0.471403  -0.058699  2.900819  -0.042  -0.218814  -0.434977  -0.072228  2.888551  -0.053
N  N73  1  0.40157148  0.00005365  0.24999386  1  -0.466414  0.054863  2.607603  0.043  -0.451836  0.064457  2.894057  0.046  -0.471412  0.058708  2.900782  0.042  -0.218822  -0.434971  0.07223  2.888513  0.053
N  N74  1  0.42564324  0.99998150  0.75001016  1  0.404099  -0.002715  4.272065  -0.005  0.446461  -0.011001  4.539499  -0.013  0.464757  -0.008182  4.570069  -0.011  0.090933  0.433113  -0.01385  4.516574  -0.016
N  N75  1  0.57435730  0.00001900  0.24998968  1  0.404134  0.002731  4.271953  0.005  0.446486  0.011  4.539411  0.013  0.464781  0.008186  4.569978  0.011  0.090961  0.433141  0.01385  4.516486  0.016
N  N76  1  0.25140556  0.00001461  0.75001713  1  -0.54355  -0.031142  2.697211  -0.015  -0.524982  -0.040216  3.002045  -0.018  -0.548826  -0.031503  3.004983  -0.01  -0.268635  -0.504878  -0.049611  2.999339  -0.026
N  N77  1  0.74859645  0.99998588  0.24998270  1  -0.543582  0.031133  2.697179  0.015  -0.525015  0.040215  3.002025  0.018  -0.548857  0.031498  3.004964  0.01  -0.268636  -0.504897  0.049608  2.999325  0.026
