# generated using pymatgen
data_Zr3H20(C18O11)2
_symmetry_space_group_name_H-M   'P 1'
_cell_length_a   16.97766181
_cell_length_b   17.15784907
_cell_length_c   16.89202825
_cell_angle_alpha   59.81127838
_cell_angle_beta   60.86954352
_cell_angle_gamma   59.31837376
_symmetry_Int_Tables_number   1
_chemical_formula_structural   Zr3H20(C18O11)2
_chemical_formula_sum   'Zr6 H40 C72 O44'
_cell_volume   3478.06528116
_cell_formula_units_Z   2
loop_
 _symmetry_equiv_pos_site_id
 _symmetry_equiv_pos_as_xyz
  1  'x, y, z'
loop_
 _atom_site_type_symbol
 _atom_site_label
 _atom_site_symmetry_multiplicity
 _atom_site_fract_x
 _atom_site_fract_y
 _atom_site_fract_z
 _atom_site_occupancy
 _atom_site_pbe_bader_charge
 _atom_site_pbe_bader_spin_density
 _atom_site_pbe_cm5_charge
 _atom_site_pbe_ddec_charge
 _atom_site_pbe_ddec_spin_density
 _atom_site_pbe_ddec_sum_bond_order
 _atom_site_pbe_magmom
Zr  Zr0  1  0.89610855  0.39614983  0.60387924  1  2.629569  0  1.597222  2.375222  0  2.66347  0
Zr  Zr1  1  0.10387757  0.60384804  0.39613159  1  2.631763  0  1.597169  2.37463  0  2.664193  0
Zr  Zr2  1  0.10372932  0.39626471  0.60372535  1  2.637518  0  1.654237  2.364106  0  2.864661  0
Zr  Zr3  1  0.89627382  0.60372303  0.39627794  1  2.633819  0  1.653965  2.364108  0  2.865038  0
Zr  Zr4  1  0.89591781  0.60408900  0.60409500  1  2.64021  0  1.623995  2.372873  0  2.75213  0
Zr  Zr5  1  0.10408470  0.39590782  0.39589316  1  2.633208  0  1.624469  2.373967  0  2.750595  0
H  H6  1  0.92048850  0.41729765  0.74577578  1  0.607145  0  0.331541  0.423567  0  0.855978  0
H  H7  1  0.91646379  0.74576257  0.41731232  1  0.618794  0  0.331272  0.423672  0  0.856336  0
H  H8  1  0.24579920  0.41639246  0.42047355  1  0.635641  0  0.331865  0.423567  0  0.856256  0
H  H9  1  0.91731018  0.42048055  0.41643621  1  0.602203  0  0.331853  0.424695  0  0.853321  0
H  H10  1  0.62309405  0.39748354  0.86960344  1  0.060106  0  0.100687  0.094786  0  1.040752  0
H  H11  1  0.65143200  0.64397292  0.84351942  1  0.103705  0  0.113194  0.13895  0  0.990603  0
H  H12  1  0.36960354  0.60985355  0.12304913  1  0.060795  0  0.100596  0.094855  0  1.041703  0
H  H13  1  0.34348326  0.36108893  0.15139655  1  0.074612  0  0.1133  0.139029  0  0.99049  0
H  H14  1  0.89745933  0.12309309  0.60984229  1  0.058719  0  0.1006  0.094756  0  1.040296  0
H  H15  1  0.14397806  0.15143009  0.36109170  1  0.116571  0  0.113099  0.138836  0  0.991231  0
H  H16  1  0.10983201  0.86962161  0.39747629  1  0.055051  0  0.100869  0.095069  0  1.039535  0
H  H17  1  0.86107124  0.84348839  0.64399893  1  0.098056  0  0.113386  0.139565  0  0.991086  0
H  H18  1  0.62760099  0.86678405  0.60974376  1  0.071173  0  0.104532  0.100067  0  1.033285  0
H  H19  1  0.65127521  0.84417351  0.35731840  1  0.104748  0  0.117061  0.144432  0  0.982615  0
H  H20  1  0.36686236  0.12757758  0.39579776  1  0.045983  0  0.104714  0.100198  0  1.033218  0
H  H21  1  0.34421077  0.15128098  0.64719973  1  0.120751  0  0.117112  0.14452  0  0.983379  0
H  H22  1  0.10975487  0.39590082  0.12756486  1  0.049862  0  0.104464  0.099373  0  1.03459  0
H  H23  1  0.85729126  0.64723161  0.15125963  1  0.099166  0  0.116942  0.144382  0  0.982646  0
H  H24  1  0.89586134  0.60970850  0.86679489  1  0.046941  0  0.104408  0.09974  0  1.033669  0
H  H25  1  0.14716547  0.35726719  0.84421880  1  0.089762  0  0.117117  0.144805  0  0.983062  0
H  H26  1  0.89521251  0.12634918  0.86723376  1  0.033236  0  0.101435  0.095393  0  1.039689  0
H  H27  1  0.14489238  0.15053077  0.84421263  1  0.130061  0  0.118212  0.146311  0  0.983458  0
H  H28  1  0.11119137  0.86714828  0.12638914  1  0.070763  0  0.101132  0.094781  0  1.039866  0
H  H29  1  0.86041317  0.84413908  0.15054209  1  0.120553  0  0.118271  0.146682  0  0.983614  0
H  H30  1  0.62636221  0.39525546  0.61126009  1  0.032263  0  0.101025  0.094169  0  1.039718  0
H  H31  1  0.65053454  0.64490435  0.36043519  1  0.078594  0  0.118227  0.14656  0  0.983125  0
H  H32  1  0.36724364  0.61118165  0.39522327  1  0.077192  0  0.101244  0.094759  0  1.039832  0
H  H33  1  0.34415259  0.36040701  0.64491295  1  0.12592  0  0.118264  0.146038  0  0.983263  0
H  H34  1  0.54687351  0.32186880  0.95164705  1  0.603383  0  0.327713  0.355078  0  0.90739  0
H  H35  1  0.45161257  0.67961682  0.04686064  1  0.598899  0  0.327491  0.357501  0  0.90298  0
H  H36  1  0.82189697  0.04689807  0.67956218  1  0.606612  0  0.327918  0.35595  0  0.906356  0
H  H37  1  0.17960259  0.95160852  0.32190781  1  0.597108  0  0.327887  0.356135  0  0.90688  0
H  H38  1  0.55172479  0.94656902  0.68250030  1  0.590493  0  0.330205  0.358499  0  0.90124  0
H  H39  1  0.44662279  0.05174184  0.31917418  1  0.596152  0  0.330188  0.359048  0  0.901266  0
H  H40  1  0.18250890  0.31917751  0.05171760  1  0.587047  0  0.330082  0.360662  0  0.897704  0
H  H41  1  0.81916421  0.68249020  0.94658162  1  0.604007  0  0.330477  0.359052  0  0.899766  0
H  H42  1  0.82016221  0.05097201  0.94750830  1  0.592968  0  0.326342  0.352188  0  0.910663  0
H  H43  1  0.18138328  0.94746701  0.05093521  1  0.593859  0  0.326541  0.352414  0  0.910509  0
H  H44  1  0.55090570  0.32019815  0.68143133  1  0.587018  0  0.326307  0.352634  0  0.910887  0
H  H45  1  0.44749216  0.68138820  0.32017766  1  0.602457  0  0.326864  0.352515  0  0.910282  0
C  C46  1  0.73185952  0.50934857  0.76185548  1  1.539666  0  0.235057  0.641568  0  4.077268  0
C  C47  1  0.99696935  0.76184518  0.50930774  1  1.56324  0  0.234367  0.639749  0  4.080502  0
C  C48  1  0.26183389  0.49695852  0.23185763  1  1.544272  0  0.234647  0.640771  0  4.077651  0
C  C49  1  0.00930376  0.23188102  0.49695461  1  1.550013  0  0.235531  0.641131  0  4.078205  0
C  C50  1  0.00796851  0.23255050  0.76143455  1  1.544603  0  0.236564  0.643263  0  4.087282  0
C  C51  1  0.73255934  0.50801303  0.49802074  1  1.552252  0  0.23656  0.643198  0  4.092929  0
C  C52  1  0.99803697  0.76140919  0.23254922  1  1.54241  0  0.236448  0.642277  0  4.091579  0
C  C53  1  0.26142673  0.49803541  0.50799166  1  1.554649  0  0.236892  0.6434  0  4.089273  0
C  C54  1  0.00944915  0.49523701  0.76220906  1  1.552746  0  0.235369  0.639992  0  4.101417  0
C  C55  1  0.26221906  0.23310645  0.50943733  1  1.539058  0  0.235348  0.640279  0  4.100341  0
C  C56  1  0.99524784  0.50944699  0.23308413  1  1.556831  0  0.235337  0.639023  0  4.101294  0
C  C57  1  0.73309190  0.76222240  0.49524799  1  1.543245  0  0.235623  0.640059  0  4.101619  0
C  C58  1  0.59566389  0.45457304  0.89788076  1  0.00234  0  -0.09821  -0.173328  0  4.002565  0
C  C59  1  0.61263678  0.59425535  0.88182248  1  0.062435  0  -0.102615  -0.224056  0  3.944266  0
C  C60  1  0.53318393  0.60541621  0.96191990  1  0.396833  0  0.085887  0.273239  0  4.067342  0
C  C61  1  0.48019540  0.54148660  0.01402153  1  0.021024  0  -0.015064  -0.020162  0  4.010142  0
C  C62  1  0.39788813  0.55187679  0.09566849  1  -0.037592  0  -0.098013  -0.174168  0  4.002951  0
C  C63  1  0.38181339  0.41128023  0.11265407  1  0.071604  0  -0.102522  -0.224497  0  3.943615  0
C  C64  1  0.46191954  0.39946489  0.03319062  1  0.458351  0  0.085836  0.274407  0  4.064616  0
C  C65  1  0.51403602  0.46426322  0.98019911  1  0.001338  0  -0.014875  -0.021151  0  4.010699  0
C  C66  1  0.64440261  0.51863910  0.84903276  1  -0.039981  0  -0.017372  -0.009074  0  3.994971  0
C  C67  1  0.34904477  0.48791279  0.14443097  1  -0.006654  0  -0.01702  -0.008093  0  3.99388  0
C  C68  1  0.95454604  0.09566924  0.55189364  1  -0.023409  0  -0.098457  -0.174319  0  4.000796  0
C  C69  1  0.09424162  0.11265500  0.41127579  1  0.033861  0  -0.103007  -0.225401  0  3.943895  0
C  C70  1  0.10543669  0.03318452  0.39947619  1  0.510641  0  0.085816  0.27329  0  4.06389  0
C  C71  1  0.04149192  0.98019465  0.46429905  1  -0.075684  0  -0.014912  -0.020171  0  4.008957  0
C  C72  1  0.05187666  0.89790275  0.45456789  1  -0.028122  0  -0.09884  -0.174484  0  4.000211  0
C  C73  1  0.91125982  0.88182188  0.59424043  1  0.040854  0  -0.102743  -0.225576  0  3.944405  0
C  C74  1  0.89946307  0.96190328  0.60542307  1  0.478391  0  0.085547  0.273217  0  4.064825  0
C  C75  1  0.96425659  0.01403188  0.54150013  1  0.049871  0  -0.01467  -0.020043  0  4.009691  0
C  C76  1  0.01859909  0.14443400  0.48791867  1  -0.075781  0  -0.016381  -0.00609  0  3.989241  0
C  C77  1  0.98791720  0.84904214  0.51859910  1  -0.011619  0  -0.016756  -0.007043  0  3.990045  0
C  C78  1  0.59796247  0.89696314  0.55152838  1  -0.033428  0  -0.096981  -0.17133  0  4.013502  0
C  C79  1  0.61259408  0.88278608  0.40803688  1  0.033766  0  -0.099653  -0.221289  0  3.940169  0
C  C80  1  0.53191008  0.96414640  0.39643766  1  0.490194  0  0.088017  0.275457  0  4.075406  0
C  C81  1  0.48016618  0.01525356  0.46299983  1  0.008842  0  -0.014713  -0.020705  0  4.021032  0
C  C82  1  0.39697698  0.09791775  0.45354377  1  0.014504  0  -0.096802  -0.172466  0  4.014491  0
C  C83  1  0.38274884  0.11256090  0.59660589  1  0.052649  0  -0.098771  -0.221139  0  3.940658  0
C  C84  1  0.46410729  0.03187832  0.60753929  1  0.490774  0  0.087594  0.275102  0  4.076367  0
C  C85  1  0.51527365  0.98017110  0.54156887  1  -0.045286  0  -0.014509  -0.021345  0  4.020069  0
C  C86  1  0.64527823  0.84942876  0.48589682  1  -0.001651  0  -0.01824  -0.01509  0  4.034744  0
C  C87  1  0.34937350  0.14522025  0.51942741  1  -0.084368  0  -0.019074  -0.014816  0  4.034063  0
C  C88  1  0.05152840  0.45357406  0.09792481  1  -0.055071  0  -0.096559  -0.171577  0  4.016824  0
C  C89  1  0.90803121  0.59659817  0.11258098  1  0.066217  0  -0.098896  -0.221434  0  3.938272  0
C  C90  1  0.89644959  0.60753718  0.03187261  1  0.460578  0  0.087975  0.275268  0  4.074588  0
C  C91  1  0.96299313  0.54157442  0.98016445  1  -0.006999  0  -0.014872  -0.020993  0  4.02048  0
C  C92  1  0.95357320  0.55154172  0.89695167  1  -0.061045  0  -0.096745  -0.172221  0  4.014185  0
C  C93  1  0.09661677  0.40806072  0.88273912  1  0.041647  0  -0.098908  -0.222184  0  3.939693  0
C  C94  1  0.10753145  0.39645607  0.96411017  1  0.425114  0  0.087636  0.275314  0  4.077267  0
C  C95  1  0.04157328  0.46299431  0.01525597  1  0.059967  0  -0.014426  -0.021543  0  4.023739  0
C  C96  1  0.98590678  0.51941640  0.14525023  1  0.01777  0  -0.018821  -0.0135  0  4.032852  0
C  C97  1  0.01944491  0.48594364  0.84937407  1  0.061365  0  -0.018631  -0.013449  0  4.03231  0
C  C98  1  0.95305722  0.09728507  0.89688794  1  -0.082134  0  -0.098431  -0.173722  0  4.013046  0
C  C99  1  0.09486320  0.11209175  0.88253004  1  0.092151  0  -0.0984  -0.220166  0  3.935822  0
C  C100  1  0.10650429  0.03186209  0.96363150  1  0.416514  0  0.087074  0.274859  0  4.068918  0
C  C101  1  0.04178062  0.97992526  0.01492825  1  -0.017275  0  -0.015404  -0.021935  0  4.019225  0
C  C102  1  0.05275680  0.89687071  0.09729715  1  -0.057182  0  -0.097943  -0.173619  0  4.012635  0
C  C103  1  0.91050002  0.88253254  0.11211874  1  0.032243  0  -0.09869  -0.221243  0  3.935422  0
C  C104  1  0.89799618  0.96362721  0.03188595  1  0.465548  0  0.086825  0.274619  0  4.069312  0
C  C105  1  0.96335392  0.01491919  0.97994134  1  0.00338  0  -0.014782  -0.021088  0  4.019118  0
C  C106  1  0.01789428  0.14482906  0.84894846  1  0.03832  0  -0.017429  -0.011302  0  4.013723  0
C  C107  1  0.98833205  0.84893023  0.14484723  1  0.008889  0  -0.017842  -0.011036  0  4.014309  0
C  C108  1  0.59731558  0.45304510  0.55277852  1  0.001176  0  -0.097778  -0.171184  0  4.012994  0
C  C109  1  0.61210333  0.59486460  0.41053372  1  0.05193  0  -0.09864  -0.220548  0  3.933474  0
C  C110  1  0.53186619  0.60651056  0.39802507  1  0.509047  0  0.087478  0.275079  0  4.067609  0
C  C111  1  0.47994866  0.54176363  0.46336707  1  -0.030653  0  -0.014903  -0.020377  0  4.01909  0
C  C112  1  0.39690351  0.55274208  0.45305263  1  -0.093659  0  -0.098575  -0.173635  0  4.013633  0
C  C113  1  0.38248822  0.41054938  0.59489906  1  0.078702  0  -0.098524  -0.219041  0  3.934249  0
C  C114  1  0.46361496  0.39800532  0.60652175  1  0.430595  0  0.086634  0.274424  0  4.071989  0
C  C115  1  0.51493583  0.46334857  0.54181101  1  0.043033  0  -0.015231  -0.023407  0  4.022168  0
C  C116  1  0.64481873  0.51790802  0.48836904  1  -0.018926  0  -0.017766  -0.012462  0  4.016295  0
C  C117  1  0.34894148  0.48833458  0.51789429  1  -0.025285  0  -0.017582  -0.012376  0  4.015992  0
O  O118  1  0.76315106  0.44079149  0.73146300  1  -1.177336  0  -0.344037  -0.618354  0  2.209828  0
O  O119  1  0.06468014  0.73143633  0.44076969  1  -1.192665  0  -0.343908  -0.617611  0  2.210817  0
O  O120  1  0.23139474  0.56465763  0.26310749  1  -1.178427  0  -0.34427  -0.618343  0  2.210106  0
O  O121  1  0.94077638  0.26312840  0.56466256  1  -1.181018  0  -0.344502  -0.618545  0  2.20995  0
O  O122  1  0.07180044  0.26973356  0.72487332  1  -1.18116  0  -0.356141  -0.609571  0  2.340425  0
O  O123  1  0.76969289  0.57189327  0.43358119  1  -1.181215  0  -0.355611  -0.609129  0  2.342946  0
O  O124  1  0.93357409  0.72485938  0.26973141  1  -1.180073  0  -0.355853  -0.608759  0  2.342354  0
O  O125  1  0.22489797  0.43355044  0.57179888  1  -1.179991  0  -0.356121  -0.609602  0  2.341434  0
O  O126  1  0.93971178  0.56422480  0.73089682  1  -1.179935  0  -0.350757  -0.616899  0  2.250848  0
O  O127  1  0.23083392  0.26519070  0.43973233  1  -1.179155  0  -0.350854  -0.617162  0  2.249966  0
O  O128  1  0.06426186  0.43972029  0.26513722  1  -1.180492  0  -0.350925  -0.616935  0  2.249988  0
O  O129  1  0.76516322  0.73084913  0.56425613  1  -1.180979  0  -0.350833  -0.616966  0  2.250784  0
O  O130  1  0.22544309  0.27147458  0.57344925  1  -1.18395  0  -0.367341  -0.617677  0  2.348944  0
O  O131  1  0.92964468  0.57342796  0.27148267  1  -1.192616  0  -0.367629  -0.617845  0  2.350212  0
O  O132  1  0.77147632  0.72541627  0.42965931  1  -1.182787  0  -0.367592  -0.617784  0  2.34933  0
O  O133  1  0.07344946  0.42962701  0.72543670  1  -1.192971  0  -0.367824  -0.618419  0  2.348786  0
O  O134  1  0.93786190  0.26545645  0.72982283  1  -1.186038  0  -0.359345  -0.632182  0  2.231085  0
O  O135  1  0.22979002  0.56684773  0.43790759  1  -1.189978  0  -0.359709  -0.63198  0  2.231573  0
O  O136  1  0.06683733  0.72980151  0.26544924  1  -1.183471  0  -0.359241  -0.631655  0  2.232326  0
O  O137  1  0.76543352  0.43794094  0.56685451  1  -1.188556  0  -0.359606  -0.632115  0  2.233323  0
O  O138  1  0.07295652  0.27008713  0.43230173  1  -1.183626  0  -0.36468  -0.625447  0  2.308407  0
O  O139  1  0.77002821  0.57303104  0.72460517  1  -1.183959  0  -0.364512  -0.625099  0  2.307485  0
O  O140  1  0.93236356  0.72458973  0.57298116  1  -1.180987  0  -0.36372  -0.624302  0  2.309244  0
O  O141  1  0.22462303  0.43230997  0.27004095  1  -1.182455  0  -0.364238  -0.624999  0  2.307224  0
O  O142  1  0.94122548  0.44115687  0.44169467  1  -1.232949  0  -0.694045  -1.069175  0  2.359893  0
O  O143  1  0.17594313  0.44168447  0.44110932  1  -1.265545  0  -0.693898  -1.067309  0  2.361343  0
O  O144  1  0.94171512  0.67590905  0.44124590  1  -1.24891  0  -0.693633  -1.067569  0  2.36237  0
O  O145  1  0.94111724  0.44124113  0.67592147  1  -1.237147  0  -0.693713  -1.067359  0  2.361653  0
O  O146  1  0.04311148  0.54398939  0.54240234  1  -1.196454  0  -0.790858  -1.147873  0  2.132144  0
O  O147  1  0.87046504  0.54242566  0.54402395  1  -1.19633  0  -0.790525  -1.147477  0  2.131857  0
O  O148  1  0.04402085  0.54307195  0.37050106  1  -1.196389  0  -0.790721  -1.147394  0  2.131476  0
O  O149  1  0.04237026  0.37056388  0.54307076  1  -1.195665  0  -0.790917  -1.147967  0  2.13195  0
O  O150  1  0.48920399  0.32331854  0.00747773  1  -1.118159  0  -0.355771  -0.43628  0  2.246367  0
O  O151  1  0.50748761  0.67995973  0.98923679  1  -1.115808  0  -0.355293  -0.437645  0  2.244172  0
O  O152  1  0.82329421  0.98921553  0.67999441  1  -1.127793  0  -0.355965  -0.436796  0  2.246526  0
O  O153  1  0.18001678  0.00745526  0.32332310  1  -1.116725  0  -0.355662  -0.436855  0  2.247569  0
O  O154  1  0.49361381  0.00376601  0.68284886  1  -1.101311  0  -0.350574  -0.430189  0  2.245783  0
O  O155  1  0.50376440  0.99357219  0.31978723  1  -1.106839  0  -0.350385  -0.430705  0  2.2459  0
O  O156  1  0.18287470  0.31976079  0.99358646  1  -1.114008  0  -0.350236  -0.431441  0  2.24346  0
O  O157  1  0.81977447  0.68290537  0.00372695  1  -1.130875  0  -0.350654  -0.430321  0  2.244517  0
O  O158  1  0.82118311  0.99286360  0.00413433  1  -1.106679  0  -0.351746  -0.429657  0  2.246318  0
O  O159  1  0.18182609  0.00411935  0.99287064  1  -1.107772  0  -0.351927  -0.42983  0  2.245646  0
O  O160  1  0.49283618  0.32118946  0.68185700  1  -1.106877  0  -0.351443  -0.429946  0  2.247369  0
O  O161  1  0.50412279  0.68182549  0.32120072  1  -1.122023  0  -0.352365  -0.43008  0  2.245234  0
