# generated using pymatgen
data_KH20PtC18SN2ClO6
_symmetry_space_group_name_H-M   'P 1'
_cell_length_a   8.35751045
_cell_length_b   10.17341574
_cell_length_c   13.19949004
_cell_angle_alpha   101.54311541
_cell_angle_beta   104.31458061
_cell_angle_gamma   101.67402222
_symmetry_Int_Tables_number   1
_chemical_formula_structural   KH20PtC18SN2ClO6
_chemical_formula_sum   'K2 H40 Pt2 C36 S2 N4 Cl2 O12'
_cell_volume   1027.27641091
_cell_formula_units_Z   2
loop_
 _symmetry_equiv_pos_site_id
 _symmetry_equiv_pos_as_xyz
  1  'x, y, z'
loop_
 _atom_site_type_symbol
 _atom_site_label
 _atom_site_symmetry_multiplicity
 _atom_site_fract_x
 _atom_site_fract_y
 _atom_site_fract_z
 _atom_site_occupancy
 _atom_site_hle17_bader_spin_density
 _atom_site_hle17_ddec_charge
 _atom_site_hle17_ddec_spin_density
 _atom_site_hle17_ddec_sum_bond_order
 _atom_site_hle17_magmom
 _atom_site_hse06_10hf_bader_spin_density
 _atom_site_hse06_10hf_ddec_charge
 _atom_site_hse06_10hf_ddec_spin_density
 _atom_site_hse06_10hf_ddec_sum_bond_order
 _atom_site_hse06_10hf_magmom
 _atom_site_hse06_bader_spin_density
 _atom_site_hse06_ddec_charge
 _atom_site_hse06_ddec_spin_density
 _atom_site_hse06_ddec_sum_bond_order
 _atom_site_hse06_magmom
 _atom_site_pbe_bader_spin_density
 _atom_site_pbe_cm5_charge
 _atom_site_pbe_ddec_charge
 _atom_site_pbe_ddec_spin_density
 _atom_site_pbe_ddec_sum_bond_order
 _atom_site_pbe_magmom
K  K0  1  0.22615437  0.94325919  0.00349418  1  0  0.926394  0  0.452084  0  0  0.88832  0  0.62344  0  0  0.900056  0  0.602781  0  0  0.725485  0.879163  0  0.638573  0
K  K1  1  0.77384889  0.05674092  0.99650534  1  0  0.926398  0  0.452082  0  0  0.888309  0  0.623457  0  0  0.900055  0  0.602786  0  0  0.725489  0.879158  0  0.638587  0
H  H2  1  0.53552305  0.55240076  0.15043976  1  0  0.140475  0  0.93566  0  0  0.1481  0  0.99656  0  0  0.151837  0  0.994063  0  0  0.123945  0.145606  0  0.998139  0
H  H3  1  0.46447808  0.44760039  0.84956110  1  0  0.140418  0  0.935631  0  0  0.148096  0  0.99654  0  0  0.151832  0  0.994041  0  0  0.123947  0.1456  0  0.998123  0
H  H4  1  0.76262388  0.16447919  0.32229024  1  0  0.081325  0  0.974583  0  0  0.088179  0  1.040364  0  0  0.091753  0  1.036922  0  0  0.107329  0.085756  0  1.04249  0
H  H5  1  0.23737567  0.83552091  0.67770946  1  0  0.081325  0  0.974575  0  0  0.088189  0  1.040347  0  0  0.091764  0  1.036904  0  0  0.107318  0.085766  0  1.042474  0
H  H6  1  0.02530718  0.24556604  0.27081062  1  0  0.107729  0  0.979584  0  0  0.115153  0  1.043415  0  0  0.118482  0  1.042332  0  0  0.108622  0.112741  0  1.04439  0
H  H7  1  0.97469080  0.75443303  0.72918792  1  0  0.107777  0  0.979532  0  0  0.115166  0  1.043409  0  0  0.118496  0  1.042325  0  0  0.108635  0.112755  0  1.044381  0
H  H8  1  0.03786967  0.43490409  0.17203865  1  0  0.107075  0  0.949061  0  0  0.114942  0  1.010138  0  0  0.117968  0  1.008052  0  0  0.111101  0.112661  0  1.011797  0
H  H9  1  0.96212954  0.56509498  0.82796008  1  0  0.107067  0  0.949074  0  0  0.114937  0  1.010145  0  0  0.117964  0  1.008056  0  0  0.111092  0.112655  0  1.011801  0
H  H10  1  0.78320809  0.53099066  0.13111012  1  0  0.122419  0  0.966307  0  0  0.128358  0  1.029779  0  0  0.132294  0  1.027834  0  0  0.111436  0.12551  0  1.031321  0
H  H11  1  0.21679181  0.46901049  0.86888980  1  0  0.122428  0  0.966308  0  0  0.128367  0  1.029779  0  0  0.132302  0  1.027835  0  0  0.111439  0.125521  0  1.03132  0
H  H12  1  0.42221335  0.70763765  0.23280042  1  0  0.120802  0  0.935173  0  0  0.135575  0  0.985599  0  0  0.13864  0  0.98508  0  0  0.11438  0.13203  0  0.989394  0
H  H13  1  0.57778778  0.29236350  0.76720044  1  0  0.120806  0  0.935208  0  0  0.135579  0  0.985626  0  0  0.138643  0  0.985108  0  0  0.114366  0.132027  0  0.989424  0
H  H14  1  0.29377849  0.79160387  0.37603383  1  0  0.098945  0  0.944594  0  0  0.109695  0  1.005485  0  0  0.113099  0  1.002003  0  0  0.106353  0.108234  0  1.006181  0
H  H15  1  0.70622141  0.20839728  0.62396685  1  0  0.098962  0  0.944572  0  0  0.109694  0  1.005475  0  0  0.113098  0  1.001994  0  0  0.106352  0.108228  0  1.006173  0
H  H16  1  0.20308711  0.63065479  0.48448459  1  0  0.10446  0  0.966385  0  0  0.11176  0  1.036495  0  0  0.115286  0  1.034082  0  0  0.103135  0.108914  0  1.038685  0
H  H17  1  0.79691087  0.36934427  0.51551547  1  0  0.104427  0  0.966407  0  0  0.11171  0  1.036544  0  0  0.115236  0  1.034131  0  0  0.103091  0.108865  0  1.038735  0
H  H18  1  0.13218135  0.47825281  0.56715386  1  0  0.080823  0  0.975364  0  0  0.091224  0  1.042347  0  0  0.092691  0  1.042983  0  0  0.092978  0.090128  0  1.041894  0
H  H19  1  0.86781889  0.52174938  0.43284779  1  0  0.080865  0  0.975277  0  0  0.091236  0  1.04229  0  0  0.092704  0  1.042923  0  0  0.092985  0.090151  0  1.041823  0
H  H20  1  0.05725233  0.28739496  0.65201448  1  0  0.083916  0  0.96516  0  0  0.099102  0  1.020728  0  0  0.10054  0  1.022176  0  0  0.095094  0.097865  0  1.020095  0
H  H21  1  0.94274915  0.71260723  0.34798735  1  0  0.083945  0  0.965128  0  0  0.099132  0  1.020691  0  0  0.100569  0  1.022139  0  0  0.095113  0.097898  0  1.020058  0
H  H22  1  0.13794297  0.06606463  0.59817986  1  0  0.07679  0  0.977746  0  0  0.087411  0  1.041475  0  0  0.089898  0  1.04014  0  0  0.093297  0.085403  0  1.042717  0
H  H23  1  0.86205727  0.93393756  0.40182178  1  0  0.076806  0  0.977734  0  0  0.087423  0  1.041462  0  0  0.089909  0  1.040129  0  0  0.093306  0.085415  0  1.0427  0
H  H24  1  0.28983897  0.03506557  0.46144529  1  0  0.088031  0  0.980339  0  0  0.094262  0  1.048989  0  0  0.096828  0  1.048305  0  0  0.08425  0.092968  0  1.048193  0
H  H25  1  0.71015970  0.96493557  0.53855519  1  0  0.088041  0  0.980268  0  0  0.094273  0  1.04893  0  0  0.096838  0  1.048243  0  0  0.084265  0.092986  0  1.048121  0
H  H26  1  0.15946873  0.09126139  0.19921121  1  0  0.324145  0  0.939798  0  0  0.286359  0  1.049978  0  0  0.299156  0  1.032525  0  0  0.269913  0.277155  0  1.062352  0
H  H27  1  0.84053016  0.90873664  0.80078959  1  0  0.324186  0  0.939756  0  0  0.286412  0  1.049912  0  0  0.299208  0  1.032458  0  0  0.269935  0.277209  0  1.062282  0
H  H28  1  0.10428825  0.87137233  0.23908877  1  0  0.069956  0  0.966055  0  0  0.082189  0  1.041453  0  0  0.083417  0  1.040427  0  0  0.087218  0.081565  0  1.041519  0
H  H29  1  0.89571311  0.12862570  0.76091165  1  0  0.069959  0  0.966096  0  0  0.082171  0  1.041514  0  0  0.083399  0  1.040486  0  0  0.0872  0.081543  0  1.041583  0
H  H30  1  0.88529825  0.85248670  0.16832876  1  0  0.079476  0  0.951966  0  0  0.09547  0  1.018602  0  0  0.096368  0  1.017782  0  0  0.09802  0.094868  0  1.019168  0
H  H31  1  0.11470153  0.14751028  0.83167126  1  0  0.079483  0  0.95197  0  0  0.095478  0  1.018602  0  0  0.096373  0  1.017785  0  0  0.098027  0.094875  0  1.019168  0
H  H32  1  0.98907681  0.98518975  0.29237144  1  0  0.059193  0  0.972658  0  0  0.078109  0  1.03759  0  0  0.078289  0  1.038408  0  0  0.08524  0.077928  0  1.037179  0
H  H33  1  0.01092264  0.01480619  0.70762836  1  0  0.059156  0  0.972638  0  0  0.078077  0  1.037566  0  0  0.078255  0  1.038387  0  0  0.085241  0.077897  0  1.037156  0
H  H34  1  0.43527488  0.16220156  0.91555289  1  0  0.417225  0  0.885408  0  0  0.390065  0  0.943501  0  0  0.399898  0  0.928978  0  0  0.286125  0.383086  0  0.953825  0
H  H35  1  0.56472681  0.83779751  0.08444698  1  0  0.417209  0  0.885431  0  0  0.39005  0  0.943522  0  0  0.399884  0  0.928999  0  0  0.286115  0.383075  0  0.953841  0
H  H36  1  0.45122017  0.04665772  0.82100180  1  0  0.388604  0  0.922941  0  0  0.360639  0  0.984852  0  0  0.370114  0  0.970954  0  0  0.264711  0.353505  0  0.995523  0
H  H37  1  0.54878028  0.95334134  0.17899713  1  0  0.388629  0  0.922913  0  0  0.360668  0  0.984816  0  0  0.370143  0  0.970917  0  0  0.264724  0.353533  0  0.995492  0
H  H38  1  0.19278901  0.62007012  0.05801582  1  0  0.419513  0  0.878122  0  0  0.393259  0  0.934832  0  0  0.402035  0  0.921956  0  0  0.287412  0.387138  0  0.943767  0
H  H39  1  0.80721267  0.37992894  0.94198253  1  0  0.419514  0  0.878115  0  0  0.39325  0  0.93484  0  0  0.402027  0  0.921964  0  0  0.287426  0.387129  0  0.943777  0
H  H40  1  0.02436244  0.66327584  0.03439571  1  0  0.410372  0  0.893956  0  0  0.383156  0  0.952125  0  0  0.392469  0  0.938466  0  0  0.284873  0.376601  0  0.96172  0
H  H41  1  0.97563924  0.33672323  0.96560265  1  0  0.410346  0  0.89401  0  0  0.38317  0  0.952115  0  0  0.392483  0  0.938457  0  0  0.284887  0.376618  0  0.961705  0
Pt  Pt42  1  0.43991636  0.24599138  0.33237178  1  0  0.266727  0  3.282477  0  0  0.235529  0  3.851701  0  0  0.241816  0  3.828598  0  0  0.591354  0.233368  0  3.865185  0
Pt  Pt43  1  0.56008286  0.75400769  0.66762770  1  0  0.266753  0  3.282544  0  0  0.235569  0  3.851744  0  0  0.241844  0  3.828665  0  0  0.591362  0.233402  0  3.865229  0
C  C44  1  0.49388181  0.46260580  0.18102278  1  0  -0.297208  0  3.647728  0  0  -0.311443  0  3.889333  0  0  -0.3168  0  3.896176  0  0  -0.076617  -0.307706  0  3.884562  0
C  C45  1  0.50611808  0.53739535  0.81897790  1  0  -0.296922  0  3.647344  0  0  -0.311391  0  3.889307  0  0  -0.316743  0  3.896149  0  0  -0.076623  -0.307657  0  3.884543  0
C  C46  1  0.77356389  0.24606569  0.28020883  1  0  0.104425  0  3.688941  0  0  0.074345  0  3.939267  0  0  0.081817  0  3.954036  0  0  0.034939  0.069052  0  3.930328  0
C  C47  1  0.22643567  0.75393441  0.71979087  1  0  0.104387  0  3.688921  0  0  0.074293  0  3.939251  0  0  0.081767  0  3.954013  0  0  0.034918  0.068995  0  3.930311  0
C  C48  1  0.91963907  0.29242583  0.25137402  1  0  -0.130716  0  3.753079  0  0  -0.141584  0  4.000424  0  0  -0.148319  0  4.021024  0  0  -0.088698  -0.137351  0  3.986856  0
C  C49  1  0.08036048  0.70757427  0.74862492  1  0  -0.130719  0  3.752996  0  0  -0.141556  0  4.000351  0  0  -0.148292  0  4.02095  0  0  -0.08868  -0.137321  0  3.986779  0
C  C50  1  0.92634703  0.39697885  0.19723437  1  0  0.002624  0  3.709179  0  0  -0.014784  0  3.957182  0  0  -0.009442  0  3.972747  0  0  -0.061257  -0.018208  0  3.946721  0
C  C51  1  0.07365252  0.60302125  0.80276533  1  0  0.00264  0  3.709165  0  0  -0.014777  0  3.95717  0  0  -0.009435  0  3.972735  0  0  -0.061261  -0.018196  0  3.946697  0
C  C52  1  0.78525848  0.45089471  0.17468366  1  0  -0.143617  0  3.680693  0  0  -0.16234  0  3.930321  0  0  -0.168995  0  3.948535  0  0  -0.075958  -0.158146  0  3.918282  0
C  C53  1  0.21474107  0.54910539  0.82531605  1  0  -0.143605  0  3.680741  0  0  -0.162324  0  3.930345  0  0  -0.16898  0  3.948561  0  0  -0.075949  -0.158133  0  3.918312  0
C  C54  1  0.64217628  0.40047225  0.20628056  1  0  0.245636  0  3.70483  0  0  0.239376  0  3.954993  0  0  0.248211  0  3.97372  0  0  0.117154  0.233558  0  3.942499  0
C  C55  1  0.35782363  0.59952890  0.79372087  1  0  0.245523  0  3.704809  0  0  0.239319  0  3.955004  0  0  0.248153  0  3.97373  0  0  0.117134  0.233488  0  3.942528  0
C  C56  1  0.42043272  0.51125266  0.27032990  1  0  0.249708  0  3.686394  0  0  0.238496  0  3.944018  0  0  0.24923  0  3.962138  0  0  0.114192  0.231148  0  3.931998  0
C  C57  1  0.57956684  0.48874744  0.72967056  1  0  0.249796  0  3.686171  0  0  0.238561  0  3.943919  0  0  0.249294  0  3.962041  0  0  0.114265  0.231226  0  3.931882  0
C  C58  1  0.38837089  0.64210505  0.28411435  1  0  -0.137432  0  3.670672  0  0  -0.159878  0  3.926065  0  0  -0.167136  0  3.945186  0  0  -0.077414  -0.155635  0  3.916403  0
C  C59  1  0.61162710  0.35789401  0.71588571  1  0  -0.13746  0  3.67076  0  0  -0.159869  0  3.92613  0  0  -0.167127  0  3.945255  0  0  -0.077394  -0.155626  0  3.916459  0
C  C60  1  0.31343746  0.68768159  0.36293401  1  0  0.020262  0  3.713543  0  0  -0.003601  0  3.974331  0  0  0.004063  0  3.986648  0  0  -0.065526  -0.008807  0  3.965438  0
C  C61  1  0.68656366  0.31231956  0.63706609  1  0  0.02022  0  3.713642  0  0  -0.003627  0  3.97441  0  0  0.004037  0  3.986732  0  0  -0.065551  -0.008822  0  3.965503  0
C  C62  1  0.26624634  0.59934245  0.42443897  1  0  -0.154571  0  3.731142  0  0  -0.181283  0  4.002567  0  0  -0.186809  0  4.017038  0  0  -0.088238  -0.177979  0  3.993402  0
C  C63  1  0.73375231  0.40065869  0.57556075  1  0  -0.154547  0  3.731243  0  0  -0.181243  0  4.002636  0  0  -0.186771  0  4.017109  0  0  -0.088197  -0.177945  0  3.993473  0
C  C64  1  0.29964305  0.46885384  0.40917535  1  0  0.205936  0  3.729973  0  0  0.193651  0  3.979265  0  0  0.205193  0  3.99602  0  0  0.104386  0.185933  0  3.967775  0
C  C65  1  0.70035527  0.53114627  0.59082492  1  0  0.206026  0  3.730035  0  0  0.193735  0  3.979324  0  0  0.205281  0  3.996074  0  0  0.104396  0.186011  0  3.967838  0
C  C66  1  0.29704023  0.23737755  0.43210300  1  0  -0.148293  0  3.751636  0  0  -0.155787  0  4.069061  0  0  -0.157388  0  4.08938  0  0  -0.148003  -0.155691  0  4.056108  0
C  C67  1  0.70295809  0.76262256  0.56789727  1  0  -0.148341  0  3.75172  0  0  -0.155838  0  4.06915  0  0  -0.15744  0  4.089471  0  0  -0.14804  -0.15575  0  4.056212  0
C  C68  1  0.25245919  0.36386309  0.46461428  1  0  -0.029473  0  3.828184  0  0  -0.013686  0  4.064562  0  0  -0.019307  0  4.091651  0  0  -0.041015  -0.010161  0  4.046282  0
C  C69  1  0.74754071  0.63613805  0.53538640  1  0  -0.029531  0  3.82819  0  0  -0.013736  0  4.064555  0  0  -0.019357  0  4.091645  0  0  -0.041022  -0.010201  0  4.046277  0
C  C70  1  0.16573164  0.38100946  0.54286106  1  0  -0.090625  0  3.741821  0  0  -0.112325  0  3.994069  0  0  -0.113215  0  4.017433  0  0  -0.099909  -0.111281  0  3.977945  0
C  C71  1  0.83426703  0.61899169  0.45714018  1  0  -0.090638  0  3.741787  0  0  -0.112318  0  3.994051  0  0  -0.113208  0  4.017416  0  0  -0.099931  -0.11129  0  3.977931  0
C  C72  1  0.12334815  0.27381670  0.59063526  1  0  -0.094329  0  3.785062  0  0  -0.105548  0  4.028909  0  0  -0.110307  0  4.054083  0  0  -0.105963  -0.10248  0  4.011927  0
C  C73  1  0.87665299  0.72618445  0.40936636  1  0  -0.09432  0  3.785043  0  0  -0.105535  0  4.028878  0  0  -0.110293  0  4.054052  0  0  -0.105938  -0.102471  0  4.011903  0
C  C74  1  0.16846903  0.14987492  0.56029205  1  0  -0.053749  0  3.767215  0  0  -0.067536  0  4.012362  0  0  -0.067876  0  4.034494  0  0  -0.096111  -0.066954  0  3.99757  0
C  C75  1  0.83153054  0.85012519  0.43970917  1  0  -0.053823  0  3.767127  0  0  -0.067603  0  4.012277  0  0  -0.067942  0  4.034408  0  0  -0.096147  -0.067014  0  3.997484  0
C  C76  1  0.25374272  0.13172162  0.48207994  1  0  -0.089342  0  3.804412  0  0  -0.101612  0  4.056931  0  0  -0.105786  0  4.081708  0  0  -0.114009  -0.0989  0  4.039841  0
C  C77  1  0.74625595  0.86827953  0.51792130  1  0  -0.089273  0  3.804298  0  0  -0.101557  0  4.056826  0  0  -0.105728  0  4.081598  0  0  -0.113985  -0.09885  0  4.039747  0
C  C78  1  0.00687210  0.92761707  0.21786796  1  0  -0.029069  0  3.687631  0  0  -0.118272  0  3.956883  0  0  -0.11252  0  3.961576  0  0  -0.162922  -0.122026  0  3.953426  0
C  C79  1  0.99312801  0.07238095  0.78213151  1  0  -0.028998  0  3.6876  0  0  -0.118182  0  3.956845  0  0  -0.11243  0  3.961539  0  0  -0.162892  -0.121931  0  3.953387  0
S  S80  1  0.32417156  0.34823992  0.05708848  1  0  1.312543  0  5.55933  0  0  1.213932  0  6.093652  0  0  1.259768  0  6.072904  0  0  0.517324  1.1825  0  6.106708  0
S  S81  1  0.67583012  0.65175915  0.94291063  1  0  1.312551  0  5.559576  0  0  1.214002  0  6.093906  0  0  1.259833  0  6.073159  0  0  0.517389  1.182572  0  6.106962  0
N  N82  1  0.63563685  0.29792270  0.25798793  1  0  -0.262991  0  3.349575  0  0  -0.201502  0  3.630685  0  0  -0.214261  0  3.644619  0  0  -0.332491  -0.193468  0  3.621175  0
N  N83  1  0.36436238  0.70207637  0.74201232  1  0  -0.262982  0  3.349521  0  0  -0.201492  0  3.630625  0  0  -0.214249  0  3.644559  0  0  -0.332488  -0.193447  0  3.621104  0
N  N84  1  0.38157814  0.42857527  0.33449754  1  0  -0.255567  0  3.384326  0  0  -0.192139  0  3.667256  0  0  -0.207958  0  3.683442  0  0  -0.33327  -0.180787  0  3.654871  0
N  N85  1  0.61842017  0.57142483  0.66550121  1  0  -0.255764  0  3.38435  0  0  -0.192302  0  3.667287  0  0  -0.208117  0  3.683468  0  0  -0.33334  -0.180953  0  3.654907  0
Cl  Cl86  1  0.48802004  0.02977842  0.33258197  1  0  -0.421481  0  1.221494  0  0  -0.372802  0  1.516422  0  0  -0.389437  0  1.499582  0  0  -0.223873  -0.360467  0  1.527812  0
Cl  Cl87  1  0.51197703  0.97022168  0.66741659  1  0  -0.4215  0  1.221508  0  0  -0.372823  0  1.516449  0  0  -0.389456  0  1.499611  0  0  -0.223884  -0.36048  0  1.527819  0
O  O88  1  0.25238882  0.21854898  0.08057562  1  0  -0.688396  0  1.99436  0  0  -0.645742  0  2.267825  0  0  -0.665677  0  2.253599  0  0  -0.394515  -0.631567  0  2.276953  0
O  O89  1  0.74761533  0.78145009  0.91942311  1  0  -0.68844  0  1.99448  0  0  -0.645777  0  2.267892  0  0  -0.665709  0  2.253663  0  0  -0.394551  -0.631601  0  2.277013  0
O  O90  1  0.19941029  0.43126994  0.03619993  1  0  -0.693549  0  2.025374  0  0  -0.622267  0  2.261589  0  0  -0.645004  0  2.24849  0  0  -0.324906  -0.606541  0  2.270234  0
O  O91  1  0.80059139  0.56872912  0.96379919  1  0  -0.693561  0  2.025462  0  0  -0.622251  0  2.261637  0  0  -0.644987  0  2.248544  0  0  -0.32489  -0.60652  0  2.270268  0
O  O92  1  0.41250052  0.33036646  0.97359147  1  0  -0.664847  0  1.957457  0  0  -0.604473  0  2.198925  0  0  -0.625807  0  2.185662  0  0  -0.326804  -0.58929  0  2.207431  0
O  O93  1  0.58750341  0.66963573  0.02640771  1  0  -0.664886  0  1.957585  0  0  -0.604499  0  2.199025  0  0  -0.625858  0  2.185813  0  0  -0.326838  -0.589307  0  2.207496  0
O  O94  1  0.05342816  0.01951605  0.15437461  1  0  -0.567944  0  2.165064  0  0  -0.510237  0  2.413541  0  0  -0.526798  0  2.401081  0  0  -0.507112  -0.498149  0  2.42204  0
O  O95  1  0.94657072  0.98048198  0.84562543  1  0  -0.568041  0  2.165067  0  0  -0.510341  0  2.413539  0  0  -0.526901  0  2.401074  0  0  -0.507157  -0.498258  0  2.422036  0
O  O96  1  0.44085550  0.06480338  0.89480952  1  0  -0.892334  0  1.799788  0  0  -0.848707  0  1.949431  0  0  -0.866313  0  1.921649  0  0  -0.701498  -0.836244  0  1.969396  0
O  O97  1  0.55914652  0.93519673  0.10519056  1  0  -0.892343  0  1.799772  0  0  -0.848721  0  1.949406  0  0  -0.866322  0  1.921624  0  0  -0.701494  -0.836256  0  1.969368  0
O  O98  1  0.14913994  0.70286788  0.06518475  1  0  -0.869981  0  1.751793  0  0  -0.829103  0  1.906032  0  0  -0.846051  0  1.879751  0  0  -0.674149  -0.816557  0  1.924201  0
O  O99  1  0.85086173  0.29713118  0.93481284  1  0  -0.869967  0  1.751842  0  0  -0.829108  0  1.906027  0  0  -0.846058  0  1.879747  0  0  -0.674173  -0.816562  0  1.924195  0
