# generated using pymatgen
data_CuH24C24S3(NO)4
_symmetry_space_group_name_H-M   'P 1'
_cell_length_a   11.71164779
_cell_length_b   11.71188378
_cell_length_c   12.63340879
_cell_angle_alpha   63.36407886
_cell_angle_beta   63.36522086
_cell_angle_gamma   70.32096680
_symmetry_Int_Tables_number   1
_chemical_formula_structural   CuH24C24S3(NO)4
_chemical_formula_sum   'Cu2 H48 C48 S6 N8 O8'
_cell_volume   1364.45668471
_cell_formula_units_Z   2
loop_
 _symmetry_equiv_pos_site_id
 _symmetry_equiv_pos_as_xyz
  1  'x, y, z'
loop_
 _atom_site_type_symbol
 _atom_site_label
 _atom_site_symmetry_multiplicity
 _atom_site_fract_x
 _atom_site_fract_y
 _atom_site_fract_z
 _atom_site_occupancy
 _atom_site_pbe_bader_charge
 _atom_site_pbe_bader_spin_density
 _atom_site_pbe_cm5_charge
 _atom_site_pbe_ddec_charge
 _atom_site_pbe_ddec_spin_density
 _atom_site_pbe_ddec_sum_bond_order
 _atom_site_pbe_magmom
Cu  Cu0  1  0.99999417  0.00000658  0.00000495  1  1.05257  0.557718  0.785023  0.678888  0.722519  2.275522  0.556
Cu  Cu1  1  0.00000524  0.99999908  0.50000077  1  1.052802  0.557743  0.785067  0.678898  0.72255  2.275559  0.556
H  H2  1  0.01700105  0.72384914  0.16967330  1  0.179134  0.002239  0.122412  0.111512  0.001089  1.025363  0.002
H  H3  1  0.72386059  0.01699588  0.66968601  1  0.179347  0.002238  0.122374  0.111465  0.001088  1.025414  0.002
H  H4  1  0.98301180  0.27614693  0.83032228  1  0.178972  0.002239  0.122364  0.111438  0.001089  1.02525  0.002
H  H5  1  0.27614401  0.98300771  0.33032016  1  0.179157  0.002238  0.122389  0.111513  0.001088  1.025332  0.002
H  H6  1  0.92910615  0.53096650  0.21894108  1  0.116847  0.001148  0.109532  0.126246  0.000588  1.00254  0.001
H  H7  1  0.53096836  0.92911037  0.71894257  1  0.116824  0.001147  0.109584  0.126406  0.000588  1.002427  0.001
H  H8  1  0.07090130  0.46903960  0.78106139  1  0.11694  0.001147  0.109493  0.126256  0.000588  1.002377  0.001
H  H9  1  0.46903727  0.07090206  0.28104704  1  0.116905  0.001148  0.109549  0.126275  0.000588  1.002379  0.001
H  H10  1  0.78061707  0.97098477  0.96197411  1  0.189561  0.002072  0.119949  0.106052  0.000943  1.059632  0.002
H  H11  1  0.97100696  0.78063611  0.46197835  1  0.189328  0.002073  0.119936  0.106059  0.000943  1.059507  0.002
H  H12  1  0.21938792  0.02899749  0.03801733  1  0.189343  0.00207  0.119921  0.105978  0.000942  1.059827  0.002
H  H13  1  0.02900518  0.21937214  0.53802380  1  0.189328  0.002073  0.119958  0.106041  0.000943  1.059632  0.002
H  H14  1  0.63600893  0.90384484  0.93138492  1  0.094042  0.000117  0.104177  0.160176  5.1e-05  0.97716  0.0
H  H15  1  0.90384627  0.63600299  0.43139229  1  0.093654  0.000117  0.104167  0.160205  5.1e-05  0.976988  0.0
H  H16  1  0.36404133  0.09613187  0.06859880  1  0.093878  0.000117  0.104224  0.160218  5.1e-05  0.977031  0.0
H  H17  1  0.09615178  0.36400472  0.56860295  1  0.093484  0.000118  0.104152  0.160175  5.1e-05  0.977084  0.0
H  H18  1  0.55906500  0.77472861  0.06261469  1  0.107776  0.000225  0.098605  0.15861  0.000106  0.990164  0.0
H  H19  1  0.77472544  0.55907720  0.56263291  1  0.107741  0.000225  0.098648  0.158678  0.000106  0.990199  0.0
H  H20  1  0.44096728  0.22525404  0.93735476  1  0.107283  0.000225  0.098647  0.158819  0.000106  0.989927  0.0
H  H21  1  0.22526429  0.44094490  0.43736470  1  0.107539  0.000225  0.098638  0.15869  0.000106  0.990107  0.0
H  H22  1  0.68278092  0.74456083  0.92602925  1  0.033168  0.000324  0.086205  0.119417  0.000157  1.019844  0.0
H  H23  1  0.74454748  0.68278655  0.42604880  1  0.033012  0.000323  0.086198  0.119427  0.000157  1.019908  0.0
H  H24  1  0.31727741  0.25542890  0.07395250  1  0.033238  0.000323  0.086206  0.119422  0.000157  1.019749  0.0
H  H25  1  0.25544562  0.31724343  0.57395229  1  0.032923  0.000323  0.086229  0.119409  0.000157  1.019885  0.0
H  H26  1  0.79303710  0.22073370  0.53710082  1  0.161456  0.002447  0.1226  0.107745  0.001139  1.057054  0.002
H  H27  1  0.22070926  0.79303411  0.03711553  1  0.160887  0.002449  0.122573  0.107604  0.001139  1.057293  0.002
H  H28  1  0.20698343  0.77926023  0.46289654  1  0.161373  0.002447  0.122523  0.107672  0.001139  1.057149  0.002
H  H29  1  0.77926701  0.20698798  0.96288579  1  0.161272  0.002446  0.122528  0.107683  0.001138  1.057055  0.002
H  H30  1  0.04660523  0.11342041  0.22898379  1  0.201549  0.002103  0.120658  0.109305  0.000979  1.043763  0.002
H  H31  1  0.11340173  0.04658983  0.72900368  1  0.201411  0.002103  0.120659  0.109339  0.000979  1.043788  0.002
H  H32  1  0.95340456  0.88655619  0.77101512  1  0.201393  0.002103  0.120613  0.10928  0.000979  1.043803  0.002
H  H33  1  0.88655722  0.95340218  0.27101631  1  0.20135  0.002103  0.120612  0.109258  0.000979  1.043859  0.002
H  H34  1  0.95325015  0.31598148  0.07953319  1  0.130614  0.001101  0.100786  0.10672  0.00054  1.060219  0.001
H  H35  1  0.31597165  0.95324884  0.57954720  1  0.130818  0.001102  0.100786  0.106673  0.00054  1.06038  0.001
H  H36  1  0.04675605  0.68400971  0.92046932  1  0.130504  0.001101  0.100744  0.106593  0.000539  1.060334  0.001
H  H37  1  0.68399257  0.04675471  0.42047092  1  0.130368  0.001102  0.100738  0.106635  0.00054  1.060444  0.001
H  H38  1  0.63910373  0.40597835  0.52702063  1  0.082331  0.000137  0.104433  0.15806  5.8e-05  0.975032  0.0
H  H39  1  0.40598629  0.63910487  0.02704180  1  0.082154  0.000137  0.10446  0.158109  5.8e-05  0.974744  0.0
H  H40  1  0.36089264  0.59401701  0.47298568  1  0.082001  0.000137  0.10445  0.158032  5.8e-05  0.975048  0.0
H  H41  1  0.59401840  0.36089880  0.97296113  1  0.082189  0.000137  0.104451  0.158113  5.8e-05  0.974807  0.0
H  H42  1  0.56403305  0.45038873  0.41441305  1  0.055752  0.000244  0.089385  0.125733  0.000112  1.042529  0.0
H  H43  1  0.45038332  0.56403891  0.91442582  1  0.05565  0.000244  0.089444  0.125856  0.000112  1.042527  0.0
H  H44  1  0.43595426  0.54963217  0.58560499  1  0.055758  0.000244  0.089381  0.125718  0.000112  1.042468  0.0
H  H45  1  0.54962502  0.43597490  0.08556693  1  0.055696  0.000244  0.089392  0.125697  0.000112  1.042523  0.0
H  H46  1  0.67435265  0.54259135  0.38445200  1  0.056954  0.000303  0.092941  0.134085  0.000149  1.014272  0.0
H  H47  1  0.54259772  0.67435932  0.88444850  1  0.056898  0.000303  0.092933  0.134109  0.000149  1.014168  0.0
H  H48  1  0.32565135  0.45739587  0.61556718  1  0.056932  0.000303  0.092923  0.133998  0.000149  1.014218  0.0
H  H49  1  0.45739308  0.32567167  0.11553093  1  0.057205  0.000303  0.092878  0.134026  0.000149  1.014253  0.0
C  C50  1  0.94456883  0.73201837  0.13338217  1  0.441668  -0.000286  0.037517  0.07776  -0.00061  3.950259  0.0
C  C51  1  0.73202414  0.94457850  0.63338385  1  0.440832  -0.000283  0.037557  0.077756  -0.000607  3.950322  0.0
C  C52  1  0.05543804  0.26797436  0.86662817  1  0.442131  -0.000284  0.037723  0.077987  -0.000606  3.950447  0.0
C  C53  1  0.26797938  0.05543204  0.36661604  1  0.441485  -0.000285  0.037495  0.077636  -0.000608  3.950335  0.0
C  C54  1  0.89338397  0.62658452  0.16140873  1  -0.048452  0.00642  -0.096755  -0.19294  0.00427  4.0176  0.005
C  C55  1  0.62658245  0.89340151  0.66142161  1  -0.048346  0.006417  -0.096832  -0.193123  0.004268  4.017117  0.005
C  C56  1  0.10661103  0.37339679  0.83860048  1  -0.048083  0.006415  -0.09674  -0.192962  0.004266  4.017497  0.005
C  C57  1  0.37341105  0.10661698  0.33858306  1  -0.048451  0.006417  -0.096704  -0.192795  0.004268  4.017319  0.005
C  C58  1  0.79930491  0.64503877  0.11269652  1  -0.214996  -0.003635  0.006896  0.0257  -0.003982  4.015008  -0.003
C  C59  1  0.64505722  0.79931991  0.61268549  1  -0.215713  -0.003636  0.006976  0.025763  -0.003983  4.01462  -0.003
C  C60  1  0.20070331  0.35494628  0.88731157  1  -0.215647  -0.003636  0.006857  0.025663  -0.003983  4.014608  -0.003
C  C61  1  0.35495290  0.20070439  0.38729530  1  -0.215369  -0.003635  0.006886  0.025606  -0.003982  4.015003  -0.003
C  C62  1  0.75419503  0.77190633  0.04115270  1  0.063593  0.006424  -0.005884  0.091735  0.004286  3.947432  0.005
C  C63  1  0.77191393  0.75419597  0.54116391  1  0.064177  0.00642  -0.005911  0.091674  0.004283  3.9477  0.005
C  C64  1  0.24581802  0.22807903  0.95885257  1  0.063563  0.006421  -0.005932  0.091513  0.004284  3.947052  0.005
C  C65  1  0.22808966  0.24581167  0.45883789  1  0.064036  0.006421  -0.00594  0.091686  0.004284  3.947305  0.005
C  C66  1  0.81163898  0.87150234  0.01806644  1  0.429541  -0.000426  0.044902  0.031715  -0.000756  3.873772  0.0
C  C67  1  0.87150113  0.81165693  0.51807494  1  0.430183  -0.000428  0.044935  0.031674  -0.000759  3.873538  0.0
C  C68  1  0.18836082  0.12848025  0.98193959  1  0.429809  -0.000426  0.044936  0.031917  -0.000758  3.873514  0.0
C  C69  1  0.12849654  0.18835437  0.48192855  1  0.429717  -0.000425  0.044948  0.03178  -0.000757  3.873498  0.0
C  C70  1  0.65216198  0.80046958  0.98785031  1  -0.105681  0.00096  -0.23774  -0.415978  0.000704  3.931784  0.001
C  C71  1  0.80045955  0.65217542  0.48786655  1  -0.105262  0.000959  -0.237717  -0.416037  0.000703  3.932101  0.001
C  C72  1  0.34787558  0.19951274  0.01213541  1  -0.105398  0.00096  -0.237825  -0.416189  0.000703  3.931463  0.001
C  C73  1  0.19953301  0.34784720  0.51213133  1  -0.104533  0.00096  -0.237769  -0.416059  0.000703  3.931823  0.001
C  C74  1  0.81062020  0.38235015  0.23163612  1  -0.132052  -0.003693  0.002416  0.0166  -0.004013  3.986624  -0.003
C  C75  1  0.38236433  0.81062778  0.73163818  1  -0.131459  -0.003694  0.002418  0.016193  -0.004015  3.986614  -0.003
C  C76  1  0.18937401  0.61762454  0.76837760  1  -0.131873  -0.003693  0.002239  0.01618  -0.004014  3.986734  -0.003
C  C77  1  0.61762481  0.18938889  0.26835466  1  -0.131483  -0.003692  0.002354  0.016352  -0.004014  3.986997  -0.003
C  C78  1  0.76269335  0.35718181  0.36258980  1  0.001204  0.006378  0.002724  0.106836  0.004267  3.948585  0.005
C  C79  1  0.35717167  0.76269187  0.86261480  1  0.001423  0.006379  0.002645  0.10706  0.004268  3.94853  0.005
C  C80  1  0.23731110  0.64280983  0.63740608  1  0.000577  0.006381  0.002725  0.106871  0.004269  3.948368  0.005
C  C81  1  0.64281074  0.23731091  0.13740201  1  0.00107  0.006376  0.002654  0.10681  0.004266  3.948833  0.005
C  C82  1  0.82236331  0.24411382  0.43567824  1  0.445695  -0.001221  0.048665  0.032944  -0.001488  3.862109  -0.001
C  C83  1  0.24409342  0.82236347  0.93569736  1  0.445599  -0.00122  0.048725  0.033088  -0.001488  3.862383  -0.001
C  C84  1  0.17763698  0.75588700  0.56431567  1  0.445673  -0.001221  0.048655  0.032911  -0.001487  3.862198  -0.001
C  C85  1  0.75587952  0.17764284  0.06431149  1  0.445634  -0.001222  0.048705  0.032932  -0.001489  3.861995  -0.001
C  C86  1  0.96725878  0.18622398  0.26104554  1  0.425171  -0.001271  0.043779  0.087531  -0.001701  3.903631  -0.001
C  C87  1  0.18619977  0.96726193  0.76105852  1  0.424947  -0.001271  0.043752  0.08761  -0.001701  3.903624  -0.001
C  C88  1  0.03274416  0.81375844  0.73895061  1  0.442702  -0.001311  0.043797  0.08751  -0.001703  3.903623  -0.001
C  C89  1  0.81375922  0.03273508  0.23895236  1  0.442621  -0.00131  0.043818  0.087489  -0.001701  3.903882  -0.001
C  C90  1  0.91463246  0.29699826  0.18072916  1  -0.024967  0.006073  -0.089003  -0.166559  0.004047  3.984807  0.005
C  C91  1  0.29697772  0.91463996  0.68074021  1  -0.02498  0.006074  -0.088859  -0.166317  0.004048  3.984484  0.005
C  C92  1  0.08537119  0.70298378  0.81927636  1  -0.041501  0.006111  -0.088883  -0.166257  0.004046  3.984592  0.005
C  C93  1  0.70298472  0.08536700  0.31926776  1  -0.041469  0.006111  -0.088838  -0.166279  0.004047  3.984506  0.005
C  C94  1  0.65393233  0.44348679  0.42599914  1  -0.049631  0.000885  -0.240817  -0.429387  0.000661  3.968259  0.001
C  C95  1  0.44348261  0.65394383  0.92600642  1  -0.049277  0.000885  -0.240855  -0.429662  0.000661  3.968394  0.001
C  C96  1  0.34606490  0.55650634  0.57401404  1  -0.048689  0.000885  -0.240823  -0.429262  0.000661  3.968287  0.001
C  C97  1  0.55651227  0.34607097  0.07398886  1  -0.049936  0.000885  -0.240783  -0.429371  0.000661  3.968045  0.001
S  S98  1  0.17049407  0.82950053  0.24999834  1  3.744013  -0.000411  0.511354  1.399554  -0.000421  6.482152  0.0
S  S99  1  0.82950636  0.17049547  0.74999820  1  3.744439  -0.000411  0.511469  1.39971  -0.000421  6.482528  0.0
S  S100  1  0.73695791  0.51809642  0.13036004  1  0.13786  -0.000913  0.052617  0.027579  -0.001383  2.759095  0.0
S  S101  1  0.51809276  0.73698086  0.63036487  1  0.13809  -0.000914  0.052561  0.027649  -0.001383  2.75956  0.0
S  S102  1  0.26308256  0.48188748  0.86962154  1  0.137809  -0.000913  0.05284  0.027906  -0.001383  2.759026  0.0
S  S103  1  0.48189339  0.26307667  0.36960276  1  0.137842  -0.000914  0.052667  0.027706  -0.001383  2.759399  0.0
N  N104  1  0.90640328  0.85206690  0.06015594  1  -1.234983  0.09826  -0.349966  -0.224302  0.06565  3.624065  0.086
N  N105  1  0.85208383  0.90641497  0.56016311  1  -1.234666  0.098223  -0.350053  -0.224193  0.065626  3.624085  0.086
N  N106  1  0.09358798  0.14791410  0.93985091  1  -1.234758  0.098215  -0.35016  -0.224499  0.065621  3.62427  0.086
N  N107  1  0.14792546  0.09359274  0.43983959  1  -1.234942  0.098226  -0.350048  -0.224307  0.065628  3.624199  0.086
N  N108  1  0.92010381  0.16088189  0.38649277  1  -1.224486  0.093379  -0.340625  -0.200434  0.062651  3.628271  0.082
N  N109  1  0.16086316  0.92009620  0.88650335  1  -1.224478  0.093389  -0.340708  -0.200611  0.062656  3.628708  0.082
N  N110  1  0.07989957  0.83911375  0.61350116  1  -1.224587  0.093365  -0.34056  -0.200303  0.062643  3.628607  0.082
N  N111  1  0.83911033  0.07989679  0.11350657  1  -1.224386  0.093354  -0.340562  -0.200226  0.062635  3.628477  0.082
O  O112  1  0.07352438  0.86557384  0.18700021  1  -1.350819  -0.000602  -0.392904  -0.732848  -0.000948  2.259092  0.0
O  O113  1  0.86559828  0.07352224  0.68698628  1  -1.350887  -0.000602  -0.392996  -0.733026  -0.000947  2.258809  0.0
O  O114  1  0.92645615  0.13443422  0.81300733  1  -1.350669  -0.000602  -0.392855  -0.732813  -0.000948  2.259357  0.0
O  O115  1  0.13442724  0.92647019  0.31300495  1  -1.350684  -0.000601  -0.392939  -0.73291  -0.000947  2.258758  0.0
O  O116  1  0.16147724  0.69764454  0.34781464  1  -1.366588  0.002189  -0.40567  -0.69881  0.001408  2.085248  0.002
O  O117  1  0.69763991  0.16146152  0.84780009  1  -1.36695  0.00219  -0.405759  -0.698892  0.001408  2.085315  0.002
O  O118  1  0.83850583  0.30234899  0.65219288  1  -1.366666  0.002188  -0.405678  -0.698806  0.001407  2.0855  0.002
O  O119  1  0.30234805  0.83851663  0.15219256  1  -1.366617  0.002188  -0.405651  -0.698744  0.001406  2.085411  0.002
