# generated using pymatgen
data_NaP2H11(C2O)6
_symmetry_space_group_name_H-M   'P 1'
_cell_length_a   5.65702964
_cell_length_b   7.83985535
_cell_length_c   14.21424028
_cell_angle_alpha   87.89850239
_cell_angle_beta   87.62178586
_cell_angle_gamma   82.94956192
_symmetry_Int_Tables_number   1
_chemical_formula_structural   NaP2H11(C2O)6
_chemical_formula_sum   'Na2 P4 H22 C24 O12'
_cell_volume   624.78301002
_cell_formula_units_Z   2
loop_
 _symmetry_equiv_pos_site_id
 _symmetry_equiv_pos_as_xyz
  1  'x, y, z'
loop_
 _atom_site_type_symbol
 _atom_site_label
 _atom_site_symmetry_multiplicity
 _atom_site_fract_x
 _atom_site_fract_y
 _atom_site_fract_z
 _atom_site_occupancy
 _atom_site_hle17_bader_spin_density
 _atom_site_hle17_ddec_charge
 _atom_site_hle17_ddec_spin_density
 _atom_site_hle17_ddec_sum_bond_order
 _atom_site_hle17_magmom
 _atom_site_hse06_10hf_bader_spin_density
 _atom_site_hse06_10hf_ddec_charge
 _atom_site_hse06_10hf_ddec_spin_density
 _atom_site_hse06_10hf_ddec_sum_bond_order
 _atom_site_hse06_10hf_magmom
 _atom_site_hse06_bader_spin_density
 _atom_site_hse06_ddec_charge
 _atom_site_hse06_ddec_spin_density
 _atom_site_hse06_ddec_sum_bond_order
 _atom_site_hse06_magmom
 _atom_site_pbe_bader_spin_density
 _atom_site_pbe_cm5_charge
 _atom_site_pbe_ddec_charge
 _atom_site_pbe_ddec_spin_density
 _atom_site_pbe_ddec_sum_bond_order
 _atom_site_pbe_magmom
Na  Na0  1  0.30031443  0.68721673  0.99303605  1  0  0.920747  0  0.373291  0  0  0.891225  0  0.508534  0  0  0.898315  0  0.490712  0  0  0.717276  0.885791  0  0.521463  0
Na  Na1  1  0.69968345  0.31277217  0.00696419  1  0  0.920748  0  0.373327  0  0  0.891225  0  0.508577  0  0  0.898329  0  0.490751  0  0  0.717281  0.885787  0  0.521511  0
P  P2  1  0.77561033  0.89230224  0.86712279  1  0  1.511264  0  4.701269  0  0  1.355072  0  5.194454  0  0  1.403929  0  5.154433  0  0  0.401658  1.321045  0  5.221832  0
P  P3  1  0.22438463  0.10769309  0.13287670  1  0  1.511219  0  4.701364  0  0  1.355065  0  5.19443  0  0  1.403921  0  5.154412  0  0  0.401655  1.321033  0  5.221807  0
P  P4  1  0.77615574  0.65338228  0.14313410  1  0  1.486951  0  4.804582  0  0  1.327979  0  5.305347  0  0  1.377921  0  5.264355  0  0  0.36036  1.293249  0  5.333183  0
P  P5  1  0.22385325  0.34661435  0.85686638  1  0  1.48703  0  4.804593  0  0  1.328051  0  5.30535  0  0  1.377991  0  5.264361  0  0  0.36043  1.293323  0  5.33318  0
H  H6  1  0.39194589  0.99856003  0.87687171  1  0  0.452426  0  0.849032  0  0  0.415006  0  0.921636  0  0  0.42721  0  0.904288  0  0  0.31493  0.406489  0  0.933709  0
H  H7  1  0.60805129  0.00143148  0.12312497  1  0  0.452488  0  0.848957  0  0  0.415084  0  0.921522  0  0  0.427287  0  0.904176  0  0  0.314981  0.406571  0  0.933589  0
H  H8  1  0.49640393  0.05905221  0.70882010  1  0  0.091066  0  0.975373  0  0  0.1006  0  1.040246  0  0  0.102934  0  1.040099  0  0  0.102259  0.098945  0  1.040308  0
H  H9  1  0.50359252  0.94097655  0.29118082  1  0  0.091136  0  0.97528  0  0  0.100582  0  1.040223  0  0  0.102917  0  1.040078  0  0  0.102287  0.09891  0  1.040332  0
H  H10  1  0.99089650  0.10195433  0.89200507  1  0  0.435904  0  0.879159  0  0  0.399321  0  0.951265  0  0  0.411588  0  0.933964  0  0  0.310717  0.390788  0  0.963257  0
H  H11  1  0.00910351  0.89803452  0.10800003  1  0  0.435981  0  0.879024  0  0  0.399363  0  0.951193  0  0  0.41163  0  0.933891  0  0  0.310724  0.390826  0  0.963193  0
H  H12  1  0.60469029  0.11398183  0.54442233  1  0  0.086389  0  0.986497  0  0  0.09647  0  1.051472  0  0  0.098849  0  1.051543  0  0  0.097142  0.094756  0  1.051562  0
H  H13  1  0.39531302  0.88602638  0.45557598  1  0  0.086359  0  0.986525  0  0  0.096437  0  1.051508  0  0  0.098825  0  1.051569  0  0  0.09715  0.094721  0  1.051601  0
H  H14  1  0.06863539  0.44849885  0.11510346  1  0  0.4375  0  0.870831  0  0  0.40627  0  0.935095  0  0  0.417738  0  0.918584  0  0  0.314716  0.398256  0  0.946608  0
H  H15  1  0.93136725  0.55149265  0.88489519  1  0  0.437549  0  0.870774  0  0  0.406318  0  0.935044  0  0  0.417787  0  0.918533  0  0  0.314744  0.398303  0  0.946558  0
H  H16  1  0.30217393  0.83279575  0.58530059  1  0  0.085527  0  0.990781  0  0  0.095639  0  1.055385  0  0  0.097807  0  1.055776  0  0  0.096742  0.094063  0  1.055247  0
H  H17  1  0.69781168  0.16719311  0.41470139  1  0  0.085691  0  0.99063  0  0  0.095759  0  1.055248  0  0  0.09793  0  1.055638  0  0  0.096784  0.09418  0  1.055106  0
H  H18  1  0.19234450  0.77939324  0.75002940  1  0  0.094192  0  0.965095  0  0  0.102606  0  1.031104  0  0  0.105304  0  1.030235  0  0  0.10605  0.100651  0  1.031813  0
H  H19  1  0.80763177  0.22058790  0.24997230  1  0  0.094188  0  0.965184  0  0  0.10264  0  1.031135  0  0  0.105337  0  1.030269  0  0  0.106048  0.10068  0  1.031845  0
H  H20  1  0.39245822  0.47805499  0.22257674  1  0  0.105281  0  0.964092  0  0  0.114528  0  1.025877  0  0  0.117888  0  1.023822  0  0  0.109984  0.112048  0  1.027509  0
H  H21  1  0.60754270  0.52195708  0.77742227  1  0  0.105291  0  0.964117  0  0  0.114526  0  1.0259  0  0  0.117886  0  1.023846  0  0  0.109983  0.112047  0  1.027534  0
H  H22  1  0.26295934  0.40418248  0.38383061  1  0  0.088525  0  0.976455  0  0  0.099894  0  1.038271  0  0  0.102119  0  1.038812  0  0  0.097943  0.098304  0  1.037983  0
H  H23  1  0.73704434  0.59582443  0.61616983  1  0  0.088516  0  0.976476  0  0  0.099914  0  1.038262  0  0  0.102139  0  1.038803  0  0  0.097988  0.098322  0  1.037975  0
H  H24  1  0.84373891  0.64580556  0.48900046  1  0  0.086335  0  0.981991  0  0  0.096595  0  1.046394  0  0  0.09905  0  1.046291  0  0  0.097062  0.094848  0  1.046508  0
H  H25  1  0.15625412  0.35421163  0.51099938  1  0  0.086339  0  0.981861  0  0  0.096593  0  1.046293  0  0  0.099046  0  1.046191  0  0  0.097082  0.094848  0  1.046411  0
H  H26  1  0.97218542  0.71497220  0.32759351  1  0  0.09421  0  0.952605  0  0  0.105484  0  1.013306  0  0  0.1075  0  1.01383  0  0  0.102421  0.103988  0  1.013065  0
H  H27  1  0.02783080  0.28502316  0.67240610  1  0  0.094238  0  0.952608  0  0  0.105523  0  1.013284  0  0  0.107539  0  1.013811  0  0  0.102439  0.104047  0  1.01302  0
C  C28  1  0.83750362  0.91656233  0.74234427  1  0  -0.280568  0  3.799002  0  0  -0.236267  0  4.035777  0  0  -0.247269  0  4.058427  0  0  -0.028967  -0.229018  0  4.020709  0
C  C29  1  0.16248957  0.08344329  0.25765507  1  0  -0.280427  0  3.798641  0  0  -0.236091  0  4.035356  0  0  -0.247084  0  4.05799  0  0  -0.028888  -0.228839  0  4.020282  0
C  C30  1  0.67394941  0.00928663  0.68226167  1  0  -0.028605  0  3.757898  0  0  -0.051024  0  3.999936  0  0  -0.05015  0  4.021779  0  0  -0.080305  -0.051434  0  3.985135  0
C  C31  1  0.32605825  0.99072801  0.31773851  1  0  -0.0287  0  3.757825  0  0  -0.051047  0  3.999861  0  0  -0.050177  0  4.021701  0  0  -0.080372  -0.051462  0  3.985046  0
C  C32  1  0.73691184  0.04015360  0.58798434  1  0  -0.11436  0  3.708166  0  0  -0.132494  0  3.956362  0  0  -0.136483  0  3.97705  0  0  -0.089673  -0.129803  0  3.942325  0
C  C33  1  0.26308190  0.95985972  0.41201625  1  0  -0.114335  0  3.708246  0  0  -0.132485  0  3.956425  0  0  -0.136476  0  3.977114  0  0  -0.089713  -0.129781  0  3.94239  0
C  C34  1  0.96517884  0.98096219  0.54987182  1  0  0.052779  0  3.757449  0  0  0.068071  0  3.985923  0  0  0.069779  0  4.007835  0  0  -0.003592  0.066974  0  3.970994  0
C  C35  1  0.03482103  0.01904601  0.45012800  1  0  0.052952  0  3.757508  0  0  0.068295  0  3.98589  0  0  0.069982  0  4.007824  0  0  -0.003467  0.067171  0  3.970986  0
C  C36  1  0.12476821  0.88443194  0.61066579  1  0  -0.1119  0  3.712562  0  0  -0.129805  0  3.959841  0  0  -0.133988  0  3.981216  0  0  -0.08865  -0.126959  0  3.945314  0
C  C37  1  0.87523768  0.11556211  0.38933483  1  0  -0.112112  0  3.712829  0  0  -0.129952  0  3.960065  0  0  -0.134134  0  3.98145  0  0  -0.088674  -0.127094  0  3.945536  0
C  C38  1  0.06306078  0.85287016  0.70492579  1  0  -0.0232  0  3.755021  0  0  -0.046951  0  4.000139  0  0  -0.045661  0  4.021163  0  0  -0.078  -0.047683  0  3.9859  0
C  C39  1  0.93691434  0.14712770  0.29507491  1  0  -0.023284  0  3.755047  0  0  -0.047097  0  4.000157  0  0  -0.045806  0  4.021172  0  0  -0.07808  -0.04783  0  3.985922  0
C  C40  1  0.69130516  0.60003869  0.26334112  1  0  -0.267604  0  3.791827  0  0  -0.224656  0  4.030232  0  0  -0.235251  0  4.052208  0  0  -0.027201  -0.21764  0  4.015516  0
C  C41  1  0.30870117  0.39996308  0.73665934  1  0  -0.267638  0  3.791659  0  0  -0.224653  0  4.030023  0  0  -0.235244  0  4.051995  0  0  -0.027139  -0.217635  0  4.015312  0
C  C42  1  0.49209070  0.51241635  0.28149622  1  0  -0.031414  0  3.755161  0  0  -0.053386  0  3.997684  0  0  -0.052406  0  4.01791  0  0  -0.075914  -0.053904  0  3.984  0
C  C43  1  0.50791463  0.48759183  0.71850556  1  0  -0.031386  0  3.755033  0  0  -0.053352  0  3.997558  0  0  -0.052373  0  4.017782  0  0  -0.075913  -0.05388  0  3.983885  0
C  C44  1  0.41861630  0.47275102  0.37346855  1  0  -0.112167  0  3.718313  0  0  -0.129068  0  3.964943  0  0  -0.133124  0  3.98604  0  0  -0.088934  -0.126331  0  3.950578  0
C  C45  1  0.58138816  0.52725077  0.62653055  1  0  -0.112114  0  3.718262  0  0  -0.129057  0  3.964901  0  0  -0.133109  0  3.985995  0  0  -0.089018  -0.12632  0  3.95054  0
C  C46  1  0.54046353  0.51996700  0.45101370  1  0  0.04712  0  3.768924  0  0  0.061226  0  4.000197  0  0  0.062776  0  4.022349  0  0  -0.007639  0.060242  0  3.985068  0
C  C47  1  0.45953700  0.48003733  0.54898617  1  0  0.046945  0  3.769122  0  0  0.061081  0  4.000383  0  0  0.062627  0  4.022535  0  0  -0.0077  0.060102  0  3.985249  0
C  C48  1  0.74216279  0.60703425  0.43168329  1  0  -0.122173  0  3.718663  0  0  -0.139924  0  3.968808  0  0  -0.143847  0  3.989215  0  0  -0.09248  -0.137242  0  3.954949  0
C  C49  1  0.25784381  0.39297651  0.56831770  1  0  -0.122127  0  3.718539  0  0  -0.139885  0  3.968689  0  0  -0.143805  0  3.989098  0  0  -0.092476  -0.137212  0  3.954843  0
C  C50  1  0.81635069  0.64664236  0.33976402  1  0  -0.02882  0  3.758168  0  0  -0.051188  0  4.003635  0  0  -0.050032  0  4.024671  0  0  -0.079872  -0.0518  0  3.989348  0
C  C51  1  0.18364819  0.35336071  0.66023451  1  0  -0.028781  0  3.757931  0  0  -0.05117  0  4.003405  0  0  -0.050017  0  4.02444  0  0  -0.07986  -0.051797  0  3.989115  0
O  O52  1  0.92878489  0.73828542  0.90698778  1  0  -0.855153  0  1.959579  0  0  -0.785735  0  2.210195  0  0  -0.808739  0  2.18855  0  0  -0.38706  -0.769541  0  2.224817  0
O  O53  1  0.07121064  0.26170481  0.09300757  1  0  -0.855112  0  1.959637  0  0  -0.785732  0  2.210271  0  0  -0.808741  0  2.188632  0  0  -0.387045  -0.769537  0  2.224892  0
O  O54  1  0.50167220  0.88092010  0.88495877  1  0  -0.776492  0  1.998932  0  0  -0.710434  0  2.241393  0  0  -0.72993  0  2.213715  0  0  -0.405008  -0.69671  0  2.260312  0
O  O55  1  0.49832656  0.11907394  0.11504134  1  0  -0.776549  0  1.998924  0  0  -0.710517  0  2.241419  0  0  -0.730016  0  2.213738  0  0  -0.405051  -0.696794  0  2.260337  0
O  O56  1  0.81989385  0.06508357  0.91182874  1  0  -0.789612  0  2.037412  0  0  -0.722504  0  2.280011  0  0  -0.743496  0  2.254074  0  0  -0.415983  -0.7077  0  2.297661  0
O  O57  1  0.18010987  0.93490400  0.08817559  1  0  -0.789687  0  2.037291  0  0  -0.72253  0  2.279868  0  0  -0.743522  0  2.253931  0  0  -0.416013  -0.707726  0  2.297514  0
O  O58  1  0.04949555  0.57838173  0.12715754  1  0  -0.781613  0  2.02222  0  0  -0.715364  0  2.255322  0  0  -0.735633  0  2.229613  0  0  -0.415337  -0.701029  0  2.272847  0
O  O59  1  0.95051254  0.42160976  0.87284307  1  0  -0.781704  0  2.022313  0  0  -0.715446  0  2.255378  0  0  -0.73572  0  2.229674  0  0  -0.415372  -0.70111  0  2.272898  0
O  O60  1  0.61736192  0.57724437  0.07856244  1  0  -0.920227  0  1.908283  0  0  -0.86529  0  2.180656  0  0  -0.886084  0  2.157769  0  0  -0.510163  -0.850482  0  2.196134  0
O  O61  1  0.38264768  0.42274841  0.92143740  1  0  -0.920262  0  1.908269  0  0  -0.865333  0  2.180649  0  0  -0.886123  0  2.157758  0  0  -0.510243  -0.85053  0  2.196126  0
O  O62  1  0.78318047  0.85027034  0.13581118  1  0  -0.832389  0  2.022245  0  0  -0.742005  0  2.257913  0  0  -0.768722  0  2.237273  0  0  -0.354506  -0.723241  0  2.271799  0
O  O63  1  0.21682328  0.14972501  0.86418736  1  0  -0.832372  0  2.022211  0  0  -0.741998  0  2.257888  0  0  -0.768716  0  2.237247  0  0  -0.35453  -0.723244  0  2.271779  0
