# generated using pymatgen
data_SrH14C10(N2O3)2
_symmetry_space_group_name_H-M   'P 1'
_cell_length_a   8.07219746
_cell_length_b   8.42487355
_cell_length_c   11.37964268
_cell_angle_alpha   82.94922670
_cell_angle_beta   78.85623844
_cell_angle_gamma   66.74554362
_symmetry_Int_Tables_number   1
_chemical_formula_structural   SrH14C10(N2O3)2
_chemical_formula_sum   'Sr2 H28 C20 N8 O12'
_cell_volume   696.69437486
_cell_formula_units_Z   2
loop_
 _symmetry_equiv_pos_site_id
 _symmetry_equiv_pos_as_xyz
  1  'x, y, z'
loop_
 _atom_site_type_symbol
 _atom_site_label
 _atom_site_symmetry_multiplicity
 _atom_site_fract_x
 _atom_site_fract_y
 _atom_site_fract_z
 _atom_site_occupancy
 _atom_site_hle17_bader_spin_density
 _atom_site_hle17_ddec_charge
 _atom_site_hle17_ddec_spin_density
 _atom_site_hle17_ddec_sum_bond_order
 _atom_site_hle17_magmom
 _atom_site_hse06_10hf_bader_spin_density
 _atom_site_hse06_10hf_ddec_charge
 _atom_site_hse06_10hf_ddec_spin_density
 _atom_site_hse06_10hf_ddec_sum_bond_order
 _atom_site_hse06_10hf_magmom
 _atom_site_hse06_bader_spin_density
 _atom_site_hse06_ddec_charge
 _atom_site_hse06_ddec_spin_density
 _atom_site_hse06_ddec_sum_bond_order
 _atom_site_hse06_magmom
 _atom_site_pbe_bader_spin_density
 _atom_site_pbe_cm5_charge
 _atom_site_pbe_ddec_charge
 _atom_site_pbe_ddec_spin_density
 _atom_site_pbe_ddec_sum_bond_order
 _atom_site_pbe_magmom
Sr  Sr0  1  0.21941861  0.55608630  0.04650274  1  0  1.539444  0  1.146905  0  0  1.380577  0  1.523007  0  0  1.418887  0  1.480777  0  0  0.946207  1.352449  0  1.55295  0
Sr  Sr1  1  0.78058168  0.44391762  0.95349958  1  0  1.539478  0  1.146805  0  0  1.380558  0  1.523022  0  0  1.418865  0  1.480794  0  0  0.946195  1.35243  0  1.552975  0
H  H2  1  0.40540016  0.02601627  0.26626951  1  0  0.137392  0  0.963175  0  0  0.154457  0  1.022457  0  0  0.157306  0  1.021064  0  0  0.100144  0.152366  0  1.023521  0
H  H3  1  0.59459435  0.97399832  0.73372405  1  0  0.137368  0  0.96318  0  0  0.154432  0  1.022486  0  0  0.157287  0  1.021082  0  0  0.10013  0.152339  0  1.023549  0
H  H4  1  0.42529335  0.21926875  0.29459437  1  0  0.125372  0  0.960106  0  0  0.143298  0  1.023596  0  0  0.144827  0  1.023672  0  0  0.101108  0.142152  0  1.023609  0
H  H5  1  0.57469941  0.78074711  0.70540023  1  0  0.125376  0  0.960044  0  0  0.143349  0  1.023472  0  0  0.144878  0  1.023547  0  0  0.101174  0.142203  0  1.023483  0
H  H6  1  0.48138541  0.03984218  0.39997295  1  0  0.100587  0  0.959696  0  0  0.119854  0  1.023639  0  0  0.121412  0  1.022788  0  0  0.087436  0.11874  0  1.024231  0
H  H7  1  0.51861545  0.96017238  0.60002053  1  0  0.100539  0  0.959752  0  0  0.119789  0  1.023725  0  0  0.121345  0  1.022877  0  0  0.087392  0.118672  0  1.024322  0
H  H8  1  0.80577607  0.19006636  0.27877070  1  0  0.130883  0  0.978634  0  0  0.142475  0  1.036797  0  0  0.145698  0  1.035738  0  0  0.111647  0.140176  0  1.037641  0
H  H9  1  0.19422471  0.80994827  0.72122103  1  0  0.13087  0  0.978605  0  0  0.142424  0  1.036833  0  0  0.145643  0  1.035785  0  0  0.111622  0.140127  0  1.037667  0
H  H10  1  0.83316698  0.90051397  0.51623525  1  0  0.113443  0  0.948163  0  0  0.133826  0  1.009458  0  0  0.134975  0  1.01  0  0  0.095324  0.13298  0  1.009093  0
H  H11  1  0.16683947  0.09947088  0.48375886  1  0  0.113417  0  0.948075  0  0  0.133772  0  1.009404  0  0  0.134921  0  1.009947  0  0  0.095324  0.13293  0  1.009031  0
H  H12  1  0.00199311  0.86796543  0.60504492  1  0  0.126385  0  0.963506  0  0  0.146772  0  1.023536  0  0  0.147965  0  1.02417  0  0  0.098829  0.145839  0  1.023194  0
H  H13  1  0.99800443  0.13202311  0.39495551  1  0  0.126327  0  0.963517  0  0  0.14674  0  1.023504  0  0  0.147932  0  1.024139  0  0  0.098804  0.145808  0  1.023157  0
H  H14  1  0.89806799  0.71574902  0.61654676  1  0  0.128146  0  0.95102  0  0  0.144094  0  1.017089  0  0  0.14634  0  1.015852  0  0  0.099979  0.142469  0  1.017988  0
H  H15  1  0.10192202  0.28424589  0.38345694  1  0  0.12806  0  0.951083  0  0  0.143953  0  1.017245  0  0  0.146201  0  1.016005  0  0  0.099902  0.142317  0  1.018161  0
H  H16  1  0.36128690  0.70662323  0.47699113  1  0  0.140222  0  0.943628  0  0  0.151476  0  0.999587  0  0  0.155191  0  0.998147  0  0  0.11125  0.148815  0  1.000761  0
H  H17  1  0.63871457  0.29334402  0.52302622  1  0  0.140182  0  0.943787  0  0  0.151395  0  0.999781  0  0  0.155104  0  0.998345  0  0  0.111203  0.148735  0  1.000958  0
H  H18  1  0.68668607  0.81337531  0.13772917  1  0  0.300901  0  0.90921  0  0  0.281255  0  0.970237  0  0  0.289938  0  0.963302  0  0  0.326423  0.275104  0  0.975202  0
H  H19  1  0.31330670  0.18664332  0.86225994  1  0  0.300845  0  0.909211  0  0  0.281189  0  0.970332  0  0  0.289876  0  0.963398  0  0  0.326394  0.275037  0  0.975294  0
H  H20  1  0.93049195  0.63846282  0.35922556  1  0  0.302185  0  0.840261  0  0  0.291147  0  0.887003  0  0  0.297426  0  0.883089  0  0  0.35292  0.28667  0  0.889973  0
H  H21  1  0.06951283  0.36153241  0.64076710  1  0  0.302202  0  0.840251  0  0  0.291126  0  0.887023  0  0  0.297403  0  0.883106  0  0  0.352907  0.28665  0  0.889992  0
H  H22  1  0.03411084  0.29585769  0.14961968  1  0  0.418707  0  0.891085  0  0  0.385763  0  0.958793  0  0  0.397036  0  0.942487  0  0  0.296226  0.377803  0  0.970281  0
H  H23  1  0.96588593  0.70414878  0.85038385  1  0  0.418685  0  0.891113  0  0  0.385739  0  0.95882  0  0  0.397008  0  0.942522  0  0  0.296192  0.377775  0  0.970315  0
H  H24  1  0.85044985  0.46189376  0.19307258  1  0  0.417239  0  0.895311  0  0  0.38239  0  0.966217  0  0  0.39505  0  0.947802  0  0  0.287513  0.373442  0  0.979198  0
H  H25  1  0.14954584  0.53810615  0.80693427  1  0  0.417314  0  0.895187  0  0  0.382442  0  0.966128  0  0  0.395101  0  0.947715  0  0  0.287538  0.373495  0  0.979108  0
H  H26  1  0.33639988  0.15841428  0.05329093  1  0  0.418158  0  0.888804  0  0  0.384441  0  0.956753  0  0  0.396038  0  0.939849  0  0  0.295746  0.376231  0  0.968701  0
H  H27  1  0.66359600  0.84159103  0.94670930  1  0  0.418143  0  0.888815  0  0  0.384423  0  0.95677  0  0  0.396021  0  0.939866  0  0  0.295725  0.376222  0  0.968705  0
H  H28  1  0.51538983  0.19334387  0.97706320  1  0  0.428127  0  0.878872  0  0  0.392434  0  0.950244  0  0  0.405036  0  0.931887  0  0  0.295097  0.383513  0  0.963212  0
H  H29  1  0.48460798  0.80666001  0.02294038  1  0  0.42808  0  0.878944  0  0  0.392383  0  0.950323  0  0  0.404986  0  0.931965  0  0  0.295083  0.383462  0  0.963291  0
C  C30  1  0.48820073  0.07762040  0.30364614  1  0  -0.36538  0  3.730412  0  0  -0.440509  0  3.964351  0  0  -0.443619  0  3.970704  0  0  -0.235612  -0.438098  0  3.959867  0
C  C31  1  0.51179720  0.92239814  0.69634484  1  0  -0.365379  0  3.730382  0  0  -0.440519  0  3.964307  0  0  -0.443631  0  3.970659  0  0  -0.235666  -0.438104  0  3.959812  0
C  C32  1  0.68003715  0.01532361  0.24109679  1  0  0.267553  0  3.725331  0  0  0.262448  0  3.987663  0  0  0.271806  0  4.005884  0  0  0.10322  0.25632  0  3.97513  0
C  C33  1  0.31995948  0.98469496  0.75889349  1  0  0.267604  0  3.725199  0  0  0.262541  0  3.987595  0  0  0.271906  0  4.005824  0  0  0.103253  0.256415  0  3.975059  0
C  C34  1  0.81817876  0.07632687  0.23687992  1  0  -0.279029  0  3.71095  0  0  -0.311732  0  3.970956  0  0  -0.319455  0  3.989659  0  0  -0.110697  -0.306662  0  3.958441  0
C  C35  1  0.18181975  0.92368391  0.76311158  1  0  -0.279037  0  3.710983  0  0  -0.311689  0  3.970975  0  0  -0.31941  0  3.989671  0  0  -0.110652  -0.306619  0  3.958467  0
C  C36  1  0.97011362  0.96425143  0.16278352  1  0  0.026683  0  3.840813  0  0  0.023864  0  4.116193  0  0  0.024639  0  4.13322  0  0  0.084313  0.023464  0  4.104503  0
C  C37  1  0.02988672  0.03575523  0.83721419  1  0  0.026731  0  3.840922  0  0  0.023953  0  4.116213  0  0  0.024731  0  4.133236  0  0  0.084364  0.02355  0  4.10453  0
C  C38  1  0.15588411  0.96431069  0.12319907  1  0  0.658055  0  3.915676  0  0  0.596106  0  4.226833  0  0  0.630625  0  4.216035  0  0  0.225532  0.572694  0  4.233373  0
C  C39  1  0.84411811  0.03568819  0.87679984  1  0  0.65806  0  3.915813  0  0  0.596107  0  4.226961  0  0  0.630625  0  4.216165  0  0  0.225537  0.572695  0  4.233499  0
C  C40  1  0.94973524  0.80166202  0.55358218  1  0  -0.358973  0  3.716513  0  0  -0.435968  0  3.951786  0  0  -0.438725  0  3.95894  0  0  -0.234372  -0.433784  0  3.946719  0
C  C41  1  0.05026282  0.19832522  0.44641828  1  0  -0.358732  0  3.716457  0  0  -0.435714  0  3.951703  0  0  -0.438473  0  3.958864  0  0  -0.234268  -0.433526  0  3.946647  0
C  C42  1  0.09360781  0.70612129  0.45616266  1  0  0.260607  0  3.729529  0  0  0.251998  0  4.000213  0  0  0.260929  0  4.019468  0  0  0.098786  0.246173  0  3.986942  0
C  C43  1  0.90639737  0.29385799  0.54384263  1  0  0.260538  0  3.729916  0  0  0.25201  0  4.000421  0  0  0.260934  0  4.019679  0  0  0.098846  0.246184  0  3.987154  0
C  C44  1  0.27953552  0.67209334  0.42744942  1  0  -0.259117  0  3.692683  0  0  -0.290465  0  3.949167  0  0  -0.298319  0  3.967737  0  0  -0.108704  -0.285331  0  3.936689  0
C  C45  1  0.72047052  0.32787796  0.57256253  1  0  -0.259202  0  3.693001  0  0  -0.290549  0  3.949482  0  0  -0.298394  0  3.968047  0  0  -0.108804  -0.285414  0  3.936999  0
C  C46  1  0.52222647  0.52342077  0.24219257  1  0  0.648285  0  3.930989  0  0  0.599594  0  4.227384  0  0  0.63342  0  4.217252  0  0  0.219934  0.57663  0  4.23348  0
C  C47  1  0.47778125  0.47656491  0.75781360  1  0  0.64811  0  3.931466  0  0  0.599373  0  4.22793  0  0  0.633198  0  4.217802  0  0  0.21977  0.576407  0  4.234025  0
C  C48  1  0.33963386  0.58236852  0.32048403  1  0  0.04273  0  3.794578  0  0  0.041585  0  4.059622  0  0  0.042982  0  4.076195  0  0  0.087607  0.040739  0  4.048301  0
C  C49  1  0.66037082  0.41761846  0.67952248  1  0  0.042735  0  3.794563  0  0  0.041591  0  4.059622  0  0  0.042989  0  4.07619  0  0  0.087565  0.040751  0  4.048299  0
N  N50  1  0.92853785  0.84200102  0.12330821  1  0  -0.303829  0  3.062628  0  0  -0.282609  0  3.345263  0  0  -0.290586  0  3.361789  0  0  -0.283341  -0.276867  0  3.333958  0
N  N51  1  0.07145888  0.15800827  0.87668895  1  0  -0.304031  0  3.062583  0  0  -0.282726  0  3.345275  0  0  -0.290691  0  3.361803  0  0  -0.283406  -0.27699  0  3.333982  0
N  N52  1  0.75408422  0.87461139  0.17282283  1  0  -0.18636  0  3.453963  0  0  -0.129433  0  3.693095  0  0  -0.141773  0  3.708907  0  0  -0.269337  -0.121269  0  3.682489  0
N  N53  1  0.24590925  0.12540579  0.82717068  1  0  -0.186064  0  3.453555  0  0  -0.129345  0  3.692967  0  0  -0.141712  0  3.708813  0  0  -0.269291  -0.121182  0  3.682358  0
N  N54  1  0.20009798  0.55990050  0.28561554  1  0  -0.310806  0  3.071887  0  0  -0.289481  0  3.355498  0  0  -0.297152  0  3.370599  0  0  -0.286773  -0.283978  0  3.34525  0
N  N55  1  0.79990706  0.44009450  0.71438325  1  0  -0.31072  0  3.071791  0  0  -0.289426  0  3.355395  0  0  -0.297102  0  3.370493  0  0  -0.286651  -0.283925  0  3.345148  0
N  N56  1  0.05477116  0.63426107  0.36916910  1  0  -0.190368  0  3.48106  0  0  -0.137093  0  3.726424  0  0  -0.149243  0  3.743646  0  0  -0.272403  -0.129062  0  3.714819  0
N  N57  1  0.94523289  0.36573008  0.63082927  1  0  -0.190371  0  3.48121  0  0  -0.137031  0  3.726474  0  0  -0.149168  0  3.743688  0  0  -0.272422  -0.129001  0  3.714868  0
O  O58  1  0.27171532  0.83740885  0.06330391  1  0  -0.671623  0  2.038268  0  0  -0.606649  0  2.279731  0  0  -0.633661  0  2.271275  0  0  -0.342791  -0.587784  0  2.285127  0
O  O59  1  0.72828606  0.16259244  0.93669934  1  0  -0.671687  0  2.038153  0  0  -0.606729  0  2.279645  0  0  -0.633739  0  2.271188  0  0  -0.342826  -0.587863  0  2.285039  0
O  O60  1  0.18898172  0.08974220  0.15089824  1  0  -0.647041  0  2.037035  0  0  -0.576382  0  2.258647  0  0  -0.602048  0  2.247365  0  0  -0.301419  -0.558537  0  2.26605  0
O  O61  1  0.81102207  0.91025920  0.84910200  1  0  -0.647012  0  2.037282  0  0  -0.576325  0  2.258875  0  0  -0.601991  0  2.247599  0  0  -0.301373  -0.558483  0  2.266275  0
O  O62  1  0.52991189  0.46951325  0.13993812  1  0  -0.723546  0  1.969546  0  0  -0.656239  0  2.213697  0  0  -0.682781  0  2.203979  0  0  -0.389438  -0.637493  0  2.219876  0
O  O63  1  0.47008967  0.53049067  0.86006401  1  0  -0.72337  0  1.969635  0  0  -0.65605  0  2.213791  0  0  -0.682594  0  2.204076  0  0  -0.38929  -0.637306  0  2.219967  0
O  O64  1  0.65511741  0.53220597  0.28153704  1  0  -0.631824  0  1.912573  0  0  -0.583615  0  2.130933  0  0  -0.606606  0  2.11961  0  0  -0.325124  -0.567546  0  2.138279  0
O  O65  1  0.34489153  0.46777695  0.71847355  1  0  -0.631826  0  1.91289  0  0  -0.583591  0  2.131274  0  0  -0.606582  0  2.119958  0  0  -0.32509  -0.567525  0  2.138613  0
O  O66  1  0.96439687  0.42112806  0.13010580  1  0  -0.92435  0  1.814622  0  0  -0.857662  0  2.011857  0  0  -0.879728  0  1.977872  0  0  -0.643578  -0.841884  0  2.035557  0
O  O67  1  0.03559797  0.57887706  0.86989989  1  0  -0.924397  0  1.814566  0  0  -0.8577  0  2.011855  0  0  -0.879762  0  1.977871  0  0  -0.643556  -0.841921  0  2.035558  0
O  O68  1  0.37772816  0.23745889  0.99320643  1  0  -0.878907  0  1.845103  0  0  -0.811999  0  2.029991  0  0  -0.833811  0  1.996837  0  0  -0.621668  -0.796449  0  2.053153  0
O  O69  1  0.62227039  0.76254629  0.00679693  1  0  -0.878791  0  1.845149  0  0  -0.811913  0  2.030066  0  0  -0.833724  0  1.996912  0  0  -0.621607  -0.796368  0  2.053223  0
