# generated using pymatgen
data_AgH15C13N2ClO4
_symmetry_space_group_name_H-M   'P 1'
_cell_length_a   5.65118388
_cell_length_b   15.67501200
_cell_length_c   16.11370000
_cell_angle_alpha   90.00000000
_cell_angle_beta   90.00000000
_cell_angle_gamma   95.14084750
_symmetry_Int_Tables_number   1
_chemical_formula_structural   AgH15C13N2ClO4
_chemical_formula_sum   'Ag4 H60 C52 N8 Cl4 O16'
_cell_volume   1421.64805201
_cell_formula_units_Z   4
loop_
 _symmetry_equiv_pos_site_id
 _symmetry_equiv_pos_as_xyz
  1  'x, y, z'
loop_
 _atom_site_type_symbol
 _atom_site_label
 _atom_site_symmetry_multiplicity
 _atom_site_fract_x
 _atom_site_fract_y
 _atom_site_fract_z
 _atom_site_occupancy
 _atom_site_hle17_bader_spin_density
 _atom_site_hle17_ddec_charge
 _atom_site_hle17_ddec_spin_density
 _atom_site_hle17_ddec_sum_bond_order
 _atom_site_hle17_magmom
 _atom_site_hse06_10hf_bader_spin_density
 _atom_site_hse06_10hf_ddec_charge
 _atom_site_hse06_10hf_ddec_spin_density
 _atom_site_hse06_10hf_ddec_sum_bond_order
 _atom_site_hse06_10hf_magmom
 _atom_site_hse06_bader_spin_density
 _atom_site_hse06_ddec_charge
 _atom_site_hse06_ddec_spin_density
 _atom_site_hse06_ddec_sum_bond_order
 _atom_site_hse06_magmom
 _atom_site_pbe_bader_charge
 _atom_site_pbe_bader_spin_density
 _atom_site_pbe_cm5_charge
 _atom_site_pbe_ddec_charge
 _atom_site_pbe_ddec_spin_density
 _atom_site_pbe_ddec_sum_bond_order
 _atom_site_pbe_magmom
Ag  Ag0  1  0.42488385  0.22657568  0.63186047  1  0  0.619101  0  1.38144  0  0  0.49633  0  1.803171  0  0  0.522445  0  1.759397  0  0.617338  0  0.528151  0.478316  0  1.833463  0
Ag  Ag1  1  0.57511118  0.27342502  0.13185674  1  0  0.619119  0  1.381562  0  0  0.496339  0  1.803321  0  0  0.522454  0  1.759536  0  0.617233  0  0.528198  0.478329  0  1.833613  0
Ag  Ag2  1  0.57510803  0.77342315  0.36815008  1  0  0.619113  0  1.381606  0  0  0.496312  0  1.803394  0  0  0.522432  0  1.759605  0  0.617311  0  0.52819  0.478299  0  1.833687  0
Ag  Ag3  1  0.42490451  0.72657701  0.86813891  1  0  0.619015  0  1.381587  0  0  0.496259  0  1.80329  0  0  0.522369  0  1.759519  0  0.617347  0  0.528174  0.47825  0  1.833582  0
H  H4  1  0.82810179  0.43356636  0.49899775  1  0  0.11046  0  0.945307  0  0  0.120914  0  1.003932  0  0  0.123855  0  1.002062  0  0.097166  0  0.110691  0.118752  0  1.005348  0
H  H5  1  0.17187863  0.06642536  0.99899651  1  0  0.110445  0  0.945243  0  0  0.12091  0  1.003858  0  0  0.12385  0  1.001988  0  0.096974  0  0.110673  0.11875  0  1.005277  0
H  H6  1  0.17192113  0.56643631  0.50099729  1  0  0.110425  0  0.945249  0  0  0.120904  0  1.003835  0  0  0.123848  0  1.001958  0  0.097162  0  0.110646  0.11874  0  1.005256  0
H  H7  1  0.82810492  0.93356130  0.00100039  1  0  0.110549  0  0.945155  0  0  0.121012  0  1.003751  0  0  0.123952  0  1.001879  0  0.09718  0  0.11067  0.118853  0  1.00517  0
H  H8  1  0.50172860  0.46335891  0.40121077  1  0  0.112461  0  0.927548  0  0  0.126532  0  0.979505  0  0  0.129293  0  0.978922  0  0.102865  0  0.111492  0.124529  0  0.980082  0
H  H9  1  0.49827190  0.03664242  0.90121574  1  0  0.112505  0  0.927638  0  0  0.126582  0  0.979582  0  0  0.12934  0  0.978999  0  0.102865  0  0.111526  0.124577  0  0.980159  0
H  H10  1  0.49829658  0.53663864  0.59878799  1  0  0.11254  0  0.927542  0  0  0.126589  0  0.979504  0  0  0.129358  0  0.978919  0  0.102642  0  0.111526  0.124586  0  0.980078  0
H  H11  1  0.50173623  0.96335769  0.09878861  1  0  0.112461  0  0.927458  0  0  0.12654  0  0.979429  0  0  0.129296  0  0.978847  0  0.102962  0  0.111499  0.124537  0  0.980004  0
H  H12  1  0.17973469  0.30268336  0.27270397  1  0  0.085245  0  0.947453  0  0  0.099412  0  1.014144  0  0  0.099669  0  1.014778  0  0.073806  0  0.104943  0.099157  0  1.013754  0
H  H13  1  0.82023071  0.19732630  0.77269963  1  0  0.085168  0  0.947469  0  0  0.099309  0  1.014191  0  0  0.099569  0  1.014817  0  0.07381  0  0.104945  0.099053  0  1.013806  0
H  H14  1  0.82027294  0.69732187  0.72729665  1  0  0.085231  0  0.947424  0  0  0.099351  0  1.014167  0  0  0.099606  0  1.014802  0  0.073814  0  0.104933  0.099098  0  1.013777  0
H  H15  1  0.17975407  0.80267957  0.22729851  1  0  0.085189  0  0.947465  0  0  0.099352  0  1.014196  0  0  0.099612  0  1.014822  0  0.073848  0  0.104965  0.099094  0  1.013814  0
H  H16  1  0.21297552  0.41360859  0.30056846  1  0  0.086166  0  0.951026  0  0  0.100663  0  1.016961  0  0  0.101478  0  1.016709  0  0.101117  0  0.103463  0.099998  0  1.017257  0
H  H17  1  0.78703350  0.08639851  0.80056225  1  0  0.086115  0  0.951093  0  0  0.100662  0  1.016947  0  0  0.10147  0  1.016714  0  0.101252  0  0.103471  0.099997  0  1.017244  0
H  H18  1  0.78703661  0.58640049  0.69943216  1  0  0.086084  0  0.951125  0  0  0.100639  0  1.017001  0  0  0.10145  0  1.016758  0  0.101118  0  0.103441  0.099975  0  1.017299  0
H  H19  1  0.21298121  0.91360672  0.19943154  1  0  0.086097  0  0.950934  0  0  0.100635  0  1.016853  0  0  0.101449  0  1.016607  0  0.10122  0  0.103475  0.099971  0  1.017147  0
H  H20  1  0.71478562  0.44817568  0.23442661  1  0  0.068613  0  0.94351  0  0  0.082864  0  1.010064  0  0  0.082933  0  1.010964  0  0.045115  0  0.099239  0.082752  0  1.009545  0
H  H21  1  0.28520877  0.05182245  0.73442536  1  0  0.068621  0  0.943539  0  0  0.082849  0  1.010091  0  0  0.08292  0  1.01099  0  0.045108  0  0.099235  0.082738  0  1.009571  0
H  H22  1  0.28524503  0.55182251  0.76556843  1  0  0.068536  0  0.943537  0  0  0.082894  0  1.010026  0  0  0.082965  0  1.010924  0  0.045157  0  0.099228  0.082782  0  1.009507  0
H  H23  1  0.71478359  0.94817830  0.26557526  1  0  0.068553  0  0.94353  0  0  0.082847  0  1.010046  0  0  0.082919  0  1.010947  0  0.045216  0  0.099224  0.082736  0  1.009528  0
H  H24  1  0.47313151  0.51129780  0.21973538  1  0  0.078849  0  0.931641  0  0  0.095711  0  0.993564  0  0  0.095743  0  0.994005  0  0.080168  0  0.101307  0.09563  0  0.993352  0
H  H25  1  0.52687089  0.98870428  0.71973786  1  0  0.078854  0  0.931687  0  0  0.095709  0  0.993574  0  0  0.095742  0  0.994015  0  0.080127  0  0.101306  0.095628  0  0.993364  0
H  H26  1  0.52689254  0.48870231  0.78026462  1  0  0.078807  0  0.931778  0  0  0.095739  0  0.993684  0  0  0.095773  0  0.994125  0  0.080137  0  0.101282  0.095658  0  0.993473  0
H  H27  1  0.47311696  0.01129967  0.28026462  1  0  0.078843  0  0.931713  0  0  0.095721  0  0.993641  0  0  0.095757  0  0.994084  0  0.080319  0  0.101283  0.09564  0  0.99343  0
H  H28  1  0.75612759  0.42945157  0.08302438  1  0  0.046148  0  0.981858  0  0  0.061244  0  1.062983  0  0  0.062467  0  1.061014  0  0.002563  0  0.080416  0.060248  0  1.064492  0
H  H29  1  0.24385813  0.07054016  0.58302376  1  0  0.046084  0  0.981822  0  0  0.061241  0  1.062867  0  0  0.062461  0  1.060904  0  0.002616  0  0.080388  0.06024  0  1.064384  0
H  H30  1  0.24387652  0.57054662  0.91697127  1  0  0.046157  0  0.981731  0  0  0.061272  0  1.062898  0  0  0.062495  0  1.060933  0  0.002652  0  0.080396  0.060275  0  1.064409  0
H  H31  1  0.75613150  0.92945675  0.41697872  1  0  0.046151  0  0.981805  0  0  0.061292  0  1.062858  0  0  0.06252  0  1.060883  0  0.002632  0  0.080421  0.060293  0  1.064373  0
H  H32  1  0.77754212  0.53894392  0.11092238  1  0  0.083463  0  0.944563  0  0  0.102554  0  1.004569  0  0  0.102994  0  1.005178  0  0.052109  0  0.094193  0.102163  0  1.00427  0
H  H33  1  0.22246882  0.96104984  0.61092362  1  0  0.083384  0  0.944564  0  0  0.102516  0  1.004539  0  0  0.102954  0  1.005145  0  0.05204  0  0.094178  0.102128  0  1.004237  0
H  H34  1  0.22246086  0.46105683  0.88907203  1  0  0.083404  0  0.944595  0  0  0.102581  0  1.004537  0  0  0.103026  0  1.005146  0  0.05214  0  0.0942  0.102191  0  1.004236  0
H  H35  1  0.77753529  0.03894835  0.38908010  1  0  0.083415  0  0.944526  0  0  0.102513  0  1.004549  0  0  0.102957  0  1.005144  0  0.052026  0  0.094193  0.102122  0  1.004252  0
H  H36  1  0.36665568  0.55094434  0.06309848  1  0  0.057018  0  0.901347  0  0  0.076167  0  0.95154  0  0  0.076169  0  0.952837  0  0.025675  0  0.094939  0.076119  0  0.950734  0
H  H37  1  0.63334655  0.94905711  0.56309910  1  0  0.057013  0  0.90134  0  0  0.076166  0  0.951527  0  0  0.076169  0  0.952823  0  0.025673  0  0.094949  0.076117  0  0.950722  0
H  H38  1  0.63334376  0.44905641  0.93689842  1  0  0.057025  0  0.901394  0  0  0.076184  0  0.951582  0  0  0.076188  0  0.952872  0  0.025662  0  0.094955  0.076135  0  0.950777  0
H  H39  1  0.36664935  0.05094364  0.43690462  1  0  0.057019  0  0.901302  0  0  0.076211  0  0.951561  0  0  0.076216  0  0.952853  0  0.025694  0  0.094953  0.076162  0  0.950756  0
H  H40  1  0.10649278  0.42650703  0.01491402  1  0  0.075888  0  0.941484  0  0  0.097638  0  0.997997  0  0  0.097774  0  0.999255  0  0.034466  0  0.093695  0.0975  0  0.997186  0
H  H41  1  0.89351352  0.07348918  0.51491774  1  0  0.075937  0  0.941447  0  0  0.097648  0  0.997989  0  0  0.097783  0  0.999249  0  0.034439  0  0.093705  0.09751  0  0.997181  0
H  H42  1  0.89350924  0.57348987  0.98508722  1  0  0.075834  0  0.941469  0  0  0.097568  0  0.99801  0  0  0.097703  0  0.999269  0  0.034418  0  0.093683  0.09743  0  0.997201  0
H  H43  1  0.10649751  0.92650837  0.48508784  1  0  0.075852  0  0.941525  0  0  0.097562  0  0.998056  0  0  0.097699  0  0.999314  0  0.034233  0  0.093677  0.097423  0  0.997248  0
H  H44  1  0.34012632  0.35932968  0.02297920  1  0  0.050179  0  0.973604  0  0  0.062708  0  1.054956  0  0  0.063692  0  1.053956  0  0.033451  0  0.079136  0.061943  0  1.055733  0
H  H45  1  0.65988239  0.14066909  0.52297300  1  0  0.050276  0  0.973554  0  0  0.062788  0  1.054892  0  0  0.063791  0  1.053876  0  0.033476  0  0.07917  0.062025  0  1.05567  0
H  H46  1  0.65987441  0.64066915  0.97702266  1  0  0.050182  0  0.973598  0  0  0.062716  0  1.054935  0  0  0.063702  0  1.053934  0  0.033478  0  0.079146  0.061952  0  1.055713  0
H  H47  1  0.34012590  0.85933166  0.47702638  1  0  0.050248  0  0.973597  0  0  0.062733  0  1.054946  0  0  0.063729  0  1.053936  0  0.033428  0  0.079148  0.061968  0  1.055724  0
H  H48  1  0.10774170  0.45000056  0.16671900  1  0  0.069834  0  0.944764  0  0  0.088024  0  1.007833  0  0  0.087808  0  1.009001  0  0.063617  0  0.101446  0.088071  0  1.007183  0
H  H49  1  0.89225751  0.05000270  0.66672211  1  0  0.069728  0  0.944899  0  0  0.088009  0  1.007902  0  0  0.087796  0  1.009068  0  0.062893  0  0.101425  0.088048  0  1.007251  0
H  H50  1  0.89228154  0.55000339  0.83328100  1  0  0.069804  0  0.944815  0  0  0.088035  0  1.007814  0  0  0.087818  0  1.008984  0  0.063329  0  0.101429  0.088078  0  1.00716  0
H  H51  1  0.10773710  0.94999998  0.33328286  1  0  0.069838  0  0.944738  0  0  0.087984  0  1.007903  0  0  0.087771  0  1.009067  0  0.063452  0  0.1014  0.088025  0  1.007252  0
H  H52  1  0.06505740  0.33830157  0.14247876  1  0  0.057977  0  0.968375  0  0  0.06933  0  1.048283  0  0  0.070686  0  1.045877  0  0.042176  0  0.0938  0.068262  0  1.050122  0
H  H53  1  0.93493005  0.16170425  0.64248000  1  0  0.05804  0  0.968132  0  0  0.069373  0  1.048134  0  0  0.070731  0  1.045729  0  0.042115  0  0.093827  0.068294  0  1.049979  0
H  H54  1  0.93494299  0.66170302  0.85752496  1  0  0.058091  0  0.968231  0  0  0.069431  0  1.048161  0  0  0.070788  0  1.045756  0  0.042098  0  0.093849  0.068355  0  1.050004  0
H  H55  1  0.06506310  0.83829970  0.35752496  1  0  0.05804  0  0.968193  0  0  0.069423  0  1.048099  0  0  0.07078  0  1.045694  0  0.042112  0  0.093854  0.068348  0  1.04994  0
H  H56  1  0.88137158  0.18941506  0.37810621  1  0  0.108852  0  0.957956  0  0  0.117431  0  1.019986  0  0  0.120611  0  1.018151  0  0.110045  0  0.107576  0.115067  0  1.021449  0
H  H57  1  0.11860079  0.31057987  0.87810869  1  0  0.108686  0  0.958216  0  0  0.117332  0  1.020182  0  0  0.120513  0  1.018345  0  0.109965  0  0.107549  0.11497  0  1.021643  0
H  H58  1  0.11861050  0.81057993  0.62189690  1  0  0.108748  0  0.958149  0  0  0.117367  0  1.020143  0  0  0.120549  0  1.018303  0  0.109983  0  0.107564  0.115005  0  1.021605  0
H  H59  1  0.88139450  0.68941127  0.12189069  1  0  0.108642  0  0.958011  0  0  0.117278  0  1.02001  0  0  0.120459  0  1.018173  0  0.109926  0  0.107531  0.114916  0  1.021469  0
H  H60  1  0.53885557  0.21498840  0.28904535  1  0  0.107317  0  0.973517  0  0  0.115029  0  1.041435  0  0  0.118663  0  1.038241  0  0.128473  0  0.099665  0.112344  0  1.043986  0
H  H61  1  0.46115603  0.28501485  0.78905466  1  0  0.107287  0  0.973266  0  0  0.115047  0  1.041121  0  0  0.118676  0  1.037937  0  0.128482  0  0.099629  0.112363  0  1.04367  0
H  H62  1  0.46113357  0.78501363  0.71095776  1  0  0.10736  0  0.973307  0  0  0.11508  0  1.041231  0  0  0.118715  0  1.038037  0  0.128364  0  0.099649  0.112391  0  1.043784  0
H  H63  1  0.53887141  0.71498462  0.21095279  1  0  0.107389  0  0.973417  0  0  0.115116  0  1.041307  0  0  0.118749  0  1.038115  0  0.128413  0  0.099659  0.11243  0  1.043859  0
C  C64  1  0.06700002  0.29297606  0.49583274  1  0  0.347563  0  3.702507  0  0  0.32949  0  3.954759  0  0  0.344386  0  3.972909  0  0.872557  0  0.227209  0.319053  0  3.942905  0
C  C65  1  0.93297428  0.20701951  0.99582902  1  0  0.347316  0  3.702946  0  0  0.329232  0  3.955201  0  0  0.344128  0  3.973355  0  0.871691  0  0.227053  0.318792  0  3.943348  0
C  C66  1  0.93299316  0.70702085  0.50416664  1  0  0.34742  0  3.702654  0  0  0.329329  0  3.954916  0  0  0.344227  0  3.97307  0  0.871968  0  0.227113  0.318886  0  3.943068  0
C  C67  1  0.06701087  0.79297355  0.00416478  1  0  0.347333  0  3.702986  0  0  0.329253  0  3.955244  0  0  0.34415  0  3.973397  0  0.87254  0  0.227054  0.318813  0  3.94339  0
C  C68  1  0.87507834  0.31026217  0.44381799  1  0  -0.004262  0  3.881113  0  0  0.01901  0  4.111652  0  0  0.013778  0  4.133967  0  0.03302  0  -0.000544  0.022442  0  4.096665  0
C  C69  1  0.12490128  0.18972636  0.94381737  1  0  -0.004206  0  3.880781  0  0  0.019082  0  4.111331  0  0  0.013852  0  4.133644  0  0.033169  0  -0.000403  0.022516  0  4.096348  0
C  C70  1  0.12491066  0.68973218  0.55618014  1  0  -0.004101  0  3.880941  0  0  0.01919  0  4.111502  0  0  0.013957  0  4.133819  0  0.033107  0  -0.000435  0.022626  0  4.096518  0
C  C71  1  0.87509257  0.81025902  0.05618139  1  0  -0.00402  0  3.880865  0  0  0.019256  0  4.11141  0  0  0.014026  0  4.133724  0  0.03309  0  -0.000298  0.022688  0  4.096428  0
C  C72  1  0.76681384  0.38733129  0.45147297  1  0  -0.046365  0  3.682543  0  0  -0.071374  0  3.930499  0  0  -0.070026  0  3.948927  0  0.031744  0  -0.063912  -0.072042  0  3.917938  0
C  C73  1  0.23317139  0.11266556  0.95146863  1  0  -0.046358  0  3.682813  0  0  -0.071367  0  3.930762  0  0  -0.070022  0  3.949197  0  0.03349  0  -0.063881  -0.072032  0  3.918188  0
C  C74  1  0.23320939  0.61267266  0.54852517  1  0  -0.046432  0  3.682758  0  0  -0.071467  0  3.930697  0  0  -0.07012  0  3.949133  0  0.033609  0  -0.063921  -0.072139  0  3.918141  0
C  C75  1  0.76681777  0.88732943  0.04853013  1  0  -0.046631  0  3.68276  0  0  -0.071645  0  3.930735  0  0  -0.070296  0  3.94916  0  0.031886  0  -0.063951  -0.072321  0  3.918185  0
C  C76  1  0.58304954  0.40286234  0.39763679  1  0  -0.097593  0  3.693705  0  0  -0.11837  0  3.942347  0  0  -0.123192  0  3.963809  0  -0.033841  0  -0.077455  -0.115255  0  3.92786  0
C  C77  1  0.41694390  0.09713195  0.89764362  1  0  -0.097709  0  3.693363  0  0  -0.118523  0  3.942024  0  0  -0.123339  0  3.963474  0  -0.035377  0  -0.077615  -0.115407  0  3.927542  0
C  C78  1  0.41697581  0.59713585  0.60235576  1  0  -0.097651  0  3.693477  0  0  -0.118384  0  3.942139  0  0  -0.123214  0  3.963606  0  -0.035046  0  -0.077451  -0.115267  0  3.927649  0
C  C79  1  0.58305991  0.90285791  0.10235886  1  0  -0.097488  0  3.693674  0  0  -0.118294  0  3.942339  0  0  -0.123108  0  3.963794  0  -0.034072  0  -0.077464  -0.115178  0  3.927854  0
C  C80  1  0.50165098  0.34196863  0.33802541  1  0  0.100881  0  3.724961  0  0  0.117771  0  3.964697  0  0  0.120211  0  3.987851  0  -0.016754  0  0.001396  0.116196  0  3.94894  0
C  C81  1  0.49833326  0.15803847  0.83802292  1  0  0.101066  0  3.724965  0  0  0.118023  0  3.964572  0  0  0.120467  0  3.98772  0  -0.016532  0  0.001548  0.116444  0  3.948824  0
C  C82  1  0.49835055  0.65803340  0.66197894  1  0  0.101083  0  3.724653  0  0  0.117889  0  3.964477  0  0  0.120336  0  3.987627  0  -0.01677  0  0.001417  0.11631  0  3.948731  0
C  C83  1  0.50166859  0.84196484  0.16197770  1  0  0.100821  0  3.725002  0  0  0.117765  0  3.964707  0  0  0.120209  0  3.987854  0  -0.016597  0  0.001413  0.116186  0  3.948958  0
C  C84  1  0.30725468  0.35945523  0.27842705  1  0  -0.079613  0  3.655576  0  0  -0.143086  0  3.901947  0  0  -0.140267  0  3.915072  0  0.225991  0  -0.076739  -0.144796  0  3.892715  0
C  C85  1  0.69273037  0.14054803  0.77842767  1  0  -0.079553  0  3.6557  0  0  -0.143068  0  3.90209  0  0  -0.140247  0  3.915209  0  0.226026  0  -0.076742  -0.14478  0  3.892863  0
C  C86  1  0.69276003  0.64055001  0.72157419  1  0  -0.079668  0  3.65546  0  0  -0.143139  0  3.90188  0  0  -0.140316  0  3.914997  0  0.226013  0  -0.076743  -0.144855  0  3.892662  0
C  C87  1  0.30726746  0.85945336  0.22157357  1  0  -0.079339  0  3.65543  0  0  -0.142891  0  3.901859  0  0  -0.14007  0  3.914983  0  0.226021  0  -0.076728  -0.144603  0  3.892632  0
C  C88  1  0.56534767  0.45851967  0.19332804  1  0  -0.021787  0  3.637505  0  0  -0.076581  0  3.889569  0  0  -0.073269  0  3.904168  0  0.232673  0  -0.083312  -0.078753  0  3.879499  0
C  C89  1  0.43464688  0.04147910  0.69332866  1  0  -0.02191  0  3.637682  0  0  -0.076613  0  3.889657  0  0  -0.073298  0  3.904261  0  0.232592  0  -0.083286  -0.078788  0  3.879592  0
C  C90  1  0.43467284  0.54148044  0.80666948  1  0  -0.021671  0  3.637154  0  0  -0.076592  0  3.889353  0  0  -0.07329  0  3.903969  0  0.233392  0  -0.083212  -0.078764  0  3.879281  0
C  C91  1  0.56534226  0.95852293  0.30667320  1  0  -0.021738  0  3.637512  0  0  -0.076562  0  3.889588  0  0  -0.073271  0  3.904219  0  0.232929  0  -0.083246  -0.078735  0  3.879518  0
C  C92  1  0.65332054  0.48118947  0.10630830  1  0  -0.156292  0  3.687496  0  0  -0.205399  0  3.943  0  0  -0.206627  0  3.957354  0  -0.024277  0  -0.170029  -0.20429  0  3.932999  0
C  C93  1  0.34668045  0.01880674  0.60630892  1  0  -0.156155  0  3.687271  0  0  -0.205316  0  3.942753  0  0  -0.206566  0  3.957165  0  -0.024283  0  -0.170011  -0.20421  0  3.932759  0
C  C94  1  0.34668743  0.51881000  0.89368798  1  0  -0.156277  0  3.687106  0  0  -0.205574  0  3.943011  0  0  -0.206805  0  3.957366  0  -0.024639  0  -0.170089  -0.204464  0  3.933011  0
C  C95  1  0.65331835  0.98119145  0.39369232  1  0  -0.156278  0  3.687211  0  0  -0.205368  0  3.942916  0  0  -0.206601  0  3.957288  0  -0.024381  0  -0.17006  -0.204261  0  3.932921  0
C  C96  1  0.45268660  0.49318669  0.04457201  1  0  0.000279  0  3.603039  0  0  0.001436  0  3.834983  0  0  0.00039  0  3.853071  0  0.002086  0  -0.090434  0.002206  0  3.8225  0
C  C97  1  0.54731359  0.00681337  0.54457325  1  0  0.000254  0  3.603007  0  0  0.001472  0  3.835001  0  0  0.000433  0  3.853087  0  0.02969  0  -0.090476  0.002244  0  3.822524  0
C  C98  1  0.54731091  0.50681342  0.95542551  1  0  0.000206  0  3.603051  0  0  0.001358  0  3.835059  0  0  0.000314  0  3.853147  0  0.029771  0  -0.090463  0.002128  0  3.822578  0
C  C99  1  0.45268392  0.99318674  0.45543109  1  0  0.000429  0  3.602706  0  0  0.001283  0  3.83505  0  0  0.000238  0  3.853131  0  0.001983  0  -0.090449  0.002053  0  3.822572  0
C  C100  1  0.26672472  0.41581331  0.05074998  1  0  -0.155941  0  3.687486  0  0  -0.20239  0  3.940617  0  0  -0.203894  0  3.955504  0  -0.059545  0  -0.169102  -0.201116  0  3.930181  0
C  C101  1  0.73326952  0.08418419  0.55074998  1  0  -0.156133  0  3.687505  0  0  -0.202528  0  3.940725  0  0  -0.204043  0  3.955602  0  -0.059519  0  -0.169117  -0.201244  0  3.930237  0
C  C102  1  0.73327585  0.58418488  0.94924816  1  0  -0.155863  0  3.687419  0  0  -0.202309  0  3.940597  0  0  -0.203813  0  3.955482  0  -0.059511  0  -0.169105  -0.201039  0  3.930147  0
C  C103  1  0.26672799  0.91581592  0.44925250  1  0  -0.156057  0  3.687449  0  0  -0.2023  0  3.940583  0  0  -0.203811  0  3.955469  0  -0.059352  0  -0.169078  -0.201025  0  3.930124  0
C  C104  1  0.19209899  0.39556216  0.13980154  1  0  -0.023853  0  3.641104  0  0  -0.079296  0  3.889866  0  0  -0.076035  0  3.904518  0  0.243421  0  -0.084709  -0.081397  0  3.879759  0
C  C105  1  0.80788575  0.10443981  0.63980588  1  0  -0.023702  0  3.640689  0  0  -0.079305  0  3.889717  0  0  -0.076046  0  3.904371  0  0.244393  0  -0.084656  -0.081373  0  3.879572  0
C  C106  1  0.80790592  0.60443923  0.86019660  1  0  -0.024108  0  3.641183  0  0  -0.079554  0  3.889974  0  0  -0.076289  0  3.904622  0  0.243702  0  -0.084771  -0.081625  0  3.879825  0
C  C107  1  0.19210162  0.89556222  0.36019909  1  0  -0.023954  0  3.640947  0  0  -0.079443  0  3.889763  0  0  -0.076186  0  3.904421  0  0.243705  0  -0.084754  -0.081518  0  3.879624  0
C  C108  1  0.79474876  0.24843648  0.38427922  1  0  -0.070452  0  3.71424  0  0  -0.089791  0  3.955587  0  0  -0.089998  0  3.97638  0  -0.035934  0  -0.073128  -0.089418  0  3.941498  0
C  C109  1  0.20525206  0.25156613  0.88427611  1  0  -0.070015  0  3.714092  0  0  -0.089414  0  3.955445  0  0  -0.089617  0  3.976233  0  -0.035977  0  -0.073026  -0.089039  0  3.941345  0
C  C110  1  0.20524843  0.75156235  0.61572327  1  0  -0.0702  0  3.71432  0  0  -0.089581  0  3.955647  0  0  -0.089785  0  3.97644  0  -0.035887  0  -0.07307  -0.089201  0  3.941531  0
C  C111  1  0.79474289  0.74843077  0.11572140  1  0  -0.069965  0  3.714159  0  0  -0.08935  0  3.955498  0  0  -0.089556  0  3.97629  0  -0.036104  0  -0.073078  -0.088969  0  3.941387  0
C  C112  1  0.60605929  0.26417186  0.33308427  1  0  -0.121151  0  3.725428  0  0  -0.140312  0  3.974998  0  0  -0.144998  0  3.99564  0  -0.027299  0  -0.088119  -0.137329  0  3.961266  0
C  C113  1  0.39392691  0.23582179  0.83309172  1  0  -0.121399  0  3.726135  0  0  -0.140616  0  3.975762  0  0  -0.145308  0  3.99641  0  -0.027324  0  -0.088212  -0.137629  0  3.962024  0
C  C114  1  0.39392826  0.73582377  0.66691635  1  0  -0.121432  0  3.725755  0  0  -0.140581  0  3.975382  0  0  -0.145273  0  3.996027  0  -0.02723  0  -0.088159  -0.137594  0  3.961652  0
C  C115  1  0.60609169  0.76417063  0.16691387  1  0  -0.121571  0  3.726053  0  0  -0.140779  0  3.97568  0  0  -0.145466  0  3.996321  0  -0.027154  0  -0.088249  -0.137793  0  3.961947  0
N  N116  1  0.39895524  0.37919586  0.19289114  1  0  -0.209873  0  3.244648  0  0  -0.090206  0  3.474133  0  0  -0.112228  0  3.497567  0  -0.942144  0  -0.346811  -0.074884  0  3.457419  0
N  N117  1  0.60103208  0.12080227  0.69289114  1  0  -0.209815  0  3.244757  0  0  -0.090187  0  3.474289  0  0  -0.112205  0  3.497726  0  -0.942362  0  -0.346865  -0.074871  0  3.457562  0
N  N118  1  0.60105836  0.62080489  0.80710948  1  0  -0.209506  0  3.244291  0  0  -0.089849  0  3.473805  0  0  -0.111869  0  3.497249  0  -0.942743  0  -0.346755  -0.074536  0  3.45709  0
N  N119  1  0.39895466  0.87919720  0.30711134  1  0  -0.209887  0  3.244738  0  0  -0.090192  0  3.474315  0  0  -0.112209  0  3.497756  0  -0.942571  0  -0.34681  -0.074871  0  3.457581  0
N  N120  1  0.22553049  0.27634073  0.53720933  1  0  -0.439103  0  3.009217  0  0  -0.381905  0  3.318215  0  0  -0.399461  0  3.322003  0  -1.205493  0  -0.357972  -0.370354  0  3.316114  0
N  N121  1  0.77442899  0.22365932  0.03720499  1  0  -0.439045  0  3.009732  0  0  -0.381831  0  3.318718  0  0  -0.399387  0  3.322508  0  -1.204988  0  -0.357987  -0.37028  0  3.316618  0
N  N122  1  0.77444547  0.72365810  0.46279005  1  0  -0.439096  0  3.009473  0  0  -0.381882  0  3.31851  0  0  -0.39944  0  3.322297  0  -1.205251  0  -0.35799  -0.370328  0  3.316416  0
N  N123  1  0.22555824  0.77633502  0.96278695  1  0  -0.439016  0  3.009584  0  0  -0.381802  0  3.318558  0  0  -0.399359  0  3.322348  0  -1.205669  0  -0.357938  -0.37025  0  3.316457  0
Cl  Cl124  1  0.95613303  0.38632565  0.70375581  1  0  1.40017  0  6.185088  0  0  1.342899  0  6.741854  0  0  1.395035  0  6.71914  0  2.970241  0  0.726102  1.307068  0  6.755949  0
Cl  Cl125  1  0.04383721  0.11368209  0.20375519  1  0  1.400201  0  6.184718  0  0  1.342957  0  6.741435  0  0  1.395092  0  6.718728  0  2.971415  0  0.72614  1.307126  0  6.755527  0
Cl  Cl126  1  0.04384854  0.61368150  0.29624357  1  0  1.399763  0  6.185558  0  0  1.342457  0  6.742344  0  0  1.394594  0  6.71964  0  2.971528  0  0.725918  1.306626  0  6.756436  0
Cl  Cl127  1  0.95616030  0.88631802  0.79623923  1  0  1.400081  0  6.185278  0  0  1.342776  0  6.742089  0  0  1.394905  0  6.719385  0  2.971746  0  0.725996  1.306944  0  6.756185  0
O  O128  1  0.82556274  0.31026089  0.66663150  1  0  -0.593923  0  1.953867  0  0  -0.560044  0  2.235534  0  0  -0.577264  0  2.219076  0  -0.972162  0  -0.331323  -0.547892  0  2.246402  0
O  O129  1  0.17440943  0.18974750  0.16663336  1  0  -0.593874  0  1.9537  0  0  -0.560048  0  2.235387  0  0  -0.577266  0  2.21893  0  -0.972212  0  -0.331367  -0.547895  0  2.246254  0
O  O130  1  0.17439630  0.68974819  0.33337471  1  0  -0.593729  0  1.953761  0  0  -0.55986  0  2.235468  0  0  -0.577081  0  2.219018  0  -0.97222  0  -0.33124  -0.547707  0  2.246331  0
O  O131  1  0.82560239  0.81025325  0.83336850  1  0  -0.593828  0  1.953836  0  0  -0.559937  0  2.235536  0  0  -0.577154  0  2.219083  0  -0.972078  0  -0.33127  -0.547783  0  2.2464  0
O  O132  1  0.20922982  0.37391786  0.70577335  1  0  -0.551531  0  1.864038  0  0  -0.522408  0  2.116289  0  0  -0.539256  0  2.102694  0  -0.961245  0  -0.313993  -0.51052  0  2.125161  0
O  O133  1  0.79073753  0.12608540  0.20576528  1  0  -0.551533  0  1.863952  0  0  -0.522376  0  2.116142  0  0  -0.539224  0  2.102549  0  -0.96153  0  -0.314006  -0.510487  0  2.125015  0
O  O134  1  0.79074500  0.62608353  0.29422107  1  0  -0.551409  0  1.864173  0  0  -0.522225  0  2.116402  0  0  -0.539078  0  2.102816  0  -0.961528  0  -0.313896  -0.510337  0  2.125271  0
O  O135  1  0.20925998  0.87391471  0.79422231  1  0  -0.551544  0  1.864216  0  0  -0.522366  0  2.116438  0  0  -0.539215  0  2.102852  0  -0.961573  0  -0.313961  -0.510477  0  2.125309  0
O  O136  1  0.87008779  0.39733452  0.78847627  1  0  -0.5486  0  1.824809  0  0  -0.519056  0  2.061104  0  0  -0.534492  0  2.048258  0  -0.979577  0  -0.315416  -0.50822  0  2.069519  0
O  O137  1  0.12986524  0.10267514  0.28847999  1  0  -0.548705  0  1.824705  0  0  -0.519073  0  2.060927  0  0  -0.534507  0  2.048081  0  -0.980185  0  -0.315342  -0.508237  0  2.069344  0
O  O138  1  0.12990567  0.60267776  0.21152436  1  0  -0.548598  0  1.825031  0  0  -0.518965  0  2.061282  0  0  -0.534398  0  2.048429  0  -0.979898  0  -0.315349  -0.508127  0  2.069692  0
O  O139  1  0.87011299  0.89731856  0.71151753  1  0  -0.548608  0  1.824921  0  0  -0.519023  0  2.061214  0  0  -0.534447  0  2.04836  0  -0.980258  0  -0.315365  -0.508187  0  2.069633  0
O  O140  1  0.91710074  0.46146101  0.65377722  1  0  -0.546092  0  1.84452  0  0  -0.522902  0  2.086697  0  0  -0.539044  0  2.074546  0  -0.977362  0  -0.315871  -0.511524  0  2.094544  0
O  O141  1  0.08288704  0.03854609  0.15377970  1  0  -0.546052  0  1.844494  0  0  -0.522942  0  2.086738  0  0  -0.539087  0  2.074583  0  -0.977521  0  -0.315906  -0.511565  0  2.094588  0
O  O142  1  0.08288260  0.53854615  0.34622154  1  0  -0.546  0  1.844614  0  0  -0.522896  0  2.086902  0  0  -0.53904  0  2.074746  0  -0.978004  0  -0.315923  -0.511518  0  2.094751  0
O  O143  1  0.91712141  0.96145530  0.84621347  1  0  -0.546086  0  1.844502  0  0  -0.522963  0  2.086764  0  0  -0.539105  0  2.07461  0  -0.977898  0  -0.315891  -0.511585  0  2.094614  0
