# generated using pymatgen
data_Sm2Cd3H48C28N6(ClO13)2
_symmetry_space_group_name_H-M   'P 1'
_cell_length_a   8.57177204
_cell_length_b   9.06367455
_cell_length_c   15.42200000
_cell_angle_alpha   98.44135826
_cell_angle_beta   101.61935855
_cell_angle_gamma   103.24732162
_symmetry_Int_Tables_number   1
_chemical_formula_structural   Sm2Cd3H48C28N6(ClO13)2
_chemical_formula_sum   'Sm2 Cd3 H48 C28 N6 Cl2 O26'
_cell_volume   1118.74132650
_cell_formula_units_Z   1
loop_
 _symmetry_equiv_pos_site_id
 _symmetry_equiv_pos_as_xyz
  1  'x, y, z'
loop_
 _atom_site_type_symbol
 _atom_site_label
 _atom_site_symmetry_multiplicity
 _atom_site_fract_x
 _atom_site_fract_y
 _atom_site_fract_z
 _atom_site_occupancy
 _atom_site_hle17_bader_spin_density
 _atom_site_hle17_ddec_charge
 _atom_site_hle17_ddec_spin_density
 _atom_site_hle17_ddec_sum_bond_order
 _atom_site_hle17_magmom
 _atom_site_hse06_10hf_bader_spin_density
 _atom_site_hse06_10hf_ddec_charge
 _atom_site_hse06_10hf_ddec_spin_density
 _atom_site_hse06_10hf_ddec_sum_bond_order
 _atom_site_hse06_10hf_magmom
 _atom_site_hse06_bader_spin_density
 _atom_site_hse06_ddec_charge
 _atom_site_hse06_ddec_spin_density
 _atom_site_hse06_ddec_sum_bond_order
 _atom_site_hse06_magmom
 _atom_site_pbe_bader_charge
 _atom_site_pbe_bader_spin_density
 _atom_site_pbe_cm5_charge
 _atom_site_pbe_ddec_charge
 _atom_site_pbe_ddec_spin_density
 _atom_site_pbe_ddec_sum_bond_order
 _atom_site_pbe_magmom
Sm  Sm0  1  0.81651703  0.68732771  0.27485957  1  0  2.127006  0  1.709686  0  0  1.914519  0  2.224467  0  0  1.963466  0  2.184024  0  2.148385  0  1.476629  1.877982  0  2.254332  0
Sm  Sm1  1  0.18348346  0.31267348  0.72513942  1  0  2.127023  0  1.709652  0  0  1.914541  0  2.224446  0  0  1.96349  0  2.184002  0  2.148393  0  1.476657  1.878009  0  2.254304  0
Cd  Cd2  1  0.99999864  0.99999888  0.99999988  1  0  1.332829  0  1.561886  0  0  1.178709  0  2.007677  0  0  1.228326  0  1.946983  0  1.37078  0  0.781494  1.142797  0  2.050085  0
Cd  Cd3  1  0.91550908  0.75014181  0.59749466  1  0  1.166816  0  1.63404  0  0  0.98157  0  2.086443  0  0  1.041343  0  2.028181  0  1.240452  0  0.728754  0.938732  0  2.127171  0
Cd  Cd4  1  0.08449075  0.24985707  0.40250535  1  0  1.166807  0  1.634068  0  0  0.981541  0  2.086459  0  0  1.041315  0  2.028199  0  1.240383  0  0.728734  0.9387  0  2.127186  0
H  H5  1  0.07355689  0.94668716  0.16844819  1  0  0.419056  0  0.881309  0  0  0.38789  0  0.94532  0  0  0.399162  0  0.928882  0  0.639668  0  0.291545  0.379898  0  0.956943  0
H  H6  1  0.92644208  0.05331287  0.83155247  1  0  0.419057  0  0.881308  0  0  0.387894  0  0.945314  0  0  0.399165  0  0.928876  0  0.639662  0  0.291551  0.379902  0  0.956936  0
H  H7  1  0.06440766  0.12267794  0.18860660  1  0  0.433416  0  0.866132  0  0  0.399638  0  0.9337  0  0  0.411029  0  0.917268  0  0.649401  0  0.289702  0.391554  0  0.945341  0
H  H8  1  0.93559251  0.87732209  0.81139290  1  0  0.433451  0  0.866076  0  0  0.399689  0  0.933616  0  0  0.41108  0  0.917187  0  0.649378  0  0.289731  0.391606  0  0.945257  0
H  H9  1  0.65599066  0.95242215  0.04286216  1  0  0.429093  0  0.871465  0  0  0.395115  0  0.939562  0  0  0.406772  0  0.922573  0  0.648688  0  0.287417  0.386786  0  0.951702  0
H  H10  1  0.34400864  0.04757904  0.95713864  1  0  0.429079  0  0.871489  0  0  0.395095  0  0.939596  0  0  0.406752  0  0.922606  0  0.648697  0  0.287412  0.386766  0  0.951735  0
H  H11  1  0.66471386  0.03898986  0.96175071  1  0  0.433566  0  0.862679  0  0  0.402233  0  0.926694  0  0  0.413186  0  0.910676  0  0.641389  0  0.291832  0.394471  0  0.938029  0
H  H12  1  0.33528544  0.96101133  0.03824944  1  0  0.433541  0  0.862696  0  0  0.402211  0  0.926707  0  0  0.413163  0  0.910688  0  0.641362  0  0.291813  0.394449  0  0.938042  0
H  H13  1  0.12314438  0.78028206  0.43332784  1  0  0.44514  0  0.834317  0  0  0.418601  0  0.890802  0  0  0.428606  0  0.876145  0  0.633307  0  0.309014  0.41145  0  0.901318  0
H  H14  1  0.87685360  0.21971450  0.56667177  1  0  0.445159  0  0.834428  0  0  0.418617  0  0.89082  0  0  0.428622  0  0.87616  0  0.633286  0  0.309026  0.411466  0  0.901335  0
H  H15  1  0.16240036  0.89432337  0.36918098  1  0  0.404794  0  0.909669  0  0  0.372901  0  0.976903  0  0  0.382965  0  0.962448  0  0.622375  0  0.262779  0.365751  0  0.987147  0
H  H16  1  0.83760033  0.10567435  0.63081968  1  0  0.40477  0  0.909699  0  0  0.372876  0  0.976934  0  0  0.382939  0  0.962479  0  0.622326  0  0.262743  0.365725  0  0.987179  0
H  H17  1  0.64891036  0.87183942  0.45499025  1  0  0.109214  0  0.982919  0  0  0.116914  0  1.054489  0  0  0.119295  0  1.053442  0  0.109797  0  0.10553  0.11524  0  1.055287  0
H  H18  1  0.35108914  0.12815830  0.54500963  1  0  0.109231  0  0.982919  0  0  0.116925  0  1.054492  0  0  0.119304  0  1.053444  0  0.109623  0  0.105544  0.115252  0  1.055287  0
H  H19  1  0.53659794  0.99015158  0.40397593  1  0  0.109101  0  0.945907  0  0  0.120174  0  1.008149  0  0  0.122858  0  1.006459  0  0.085842  0  0.097937  0.118278  0  1.009517  0
H  H20  1  0.46340395  0.00984613  0.59602551  1  0  0.109104  0  0.945901  0  0  0.120177  0  1.008142  0  0  0.122859  0  1.006449  0  0.08583  0  0.097917  0.118264  0  1.009523  0
H  H21  1  0.97540411  0.41258274  0.11543366  1  0  0.121286  0  0.912373  0  0  0.136465  0  0.968723  0  0  0.138745  0  0.967469  0  0.084879  0  0.122917  0.134846  0  0.969634  0
H  H22  1  0.02459691  0.58741614  0.88456519  1  0  0.121275  0  0.912382  0  0  0.136462  0  0.968721  0  0  0.138744  0  0.967462  0  0.084892  0  0.122914  0.134844  0  0.969632  0
H  H23  1  0.81412347  0.24699941  0.10303825  1  0  0.117165  0  0.940526  0  0  0.129175  0  1.002096  0  0  0.132433  0  0.999784  0  0.123778  0  0.113136  0.126887  0  1.003782  0
H  H24  1  0.18587636  0.75299947  0.89696176  1  0  0.117169  0  0.940541  0  0  0.129185  0  1.002103  0  0  0.132427  0  0.999807  0  0.123786  0  0.113141  0.126896  0  1.003791  0
H  H25  1  0.65951277  0.57254798  0.02819416  1  0  0.112683  0  0.947158  0  0  0.124416  0  1.011422  0  0  0.126921  0  1.009721  0  0.102914  0  0.12023  0.122569  0  1.012791  0
H  H26  1  0.34048706  0.42745090  0.97180520  1  0  0.112696  0  0.947152  0  0  0.124449  0  1.011401  0  0  0.126956  0  1.0097  0  0.102912  0  0.120239  0.122598  0  1.012779  0
H  H27  1  0.78626816  0.45484345  0.99526174  1  0  0.099679  0  0.905228  0  0  0.113447  0  0.963361  0  0  0.115868  0  0.961699  0  0.060474  0  0.107696  0.11165  0  0.964584  0
H  H28  1  0.21373168  0.54515542  0.00473763  1  0  0.099696  0  0.905211  0  0  0.113468  0  0.963345  0  0  0.115891  0  0.961684  0  0.06049  0  0.107704  0.111664  0  0.964583  0
H  H29  1  0.68216825  0.31800916  0.36207588  1  0  0.118263  0  0.933523  0  0  0.13003  0  0.996149  0  0  0.132064  0  0.995378  0  0.110778  0  0.118987  0.128399  0  0.997314  0
H  H30  1  0.31783159  0.68198971  0.63792348  1  0  0.11826  0  0.933554  0  0  0.130035  0  0.996167  0  0  0.132073  0  0.995388  0  0.110738  0  0.118986  0.128404  0  0.997333  0
H  H31  1  0.50300102  0.35323510  0.38900034  1  0  0.109872  0  0.963497  0  0  0.118465  0  1.031719  0  0  0.120734  0  1.031034  0  0.115754  0  0.100056  0.116862  0  1.032279  0
H  H32  1  0.49700099  0.64676724  0.61099957  1  0  0.109873  0  0.963471  0  0  0.118498  0  1.031666  0  0  0.120743  0  1.031006  0  0.11573  0  0.100038  0.116895  0  1.032227  0
H  H33  1  0.42119866  0.24289290  0.18909898  1  0  0.090089  0  0.91119  0  0  0.106385  0  0.971559  0  0  0.107806  0  0.970457  0  0.094406  0  0.108427  0.105223  0  0.972864  0
H  H34  1  0.57880032  0.75710713  0.81090168  1  0  0.090081  0  0.911202  0  0  0.106378  0  0.971571  0  0  0.1078  0  0.970471  0  0.094409  0  0.10842  0.105215  0  0.972876  0
H  H35  1  0.63154180  0.25057235  0.22598983  1  0  0.076426  0  0.931322  0  0  0.095935  0  0.986359  0  0  0.09595  0  0.987055  0  0.045777  0  0.112436  0.095717  0  0.986354  0
H  H36  1  0.36845717  0.74942768  0.77400954  1  0  0.076413  0  0.931326  0  0  0.095933  0  0.986347  0  0  0.09595  0  0.987045  0  0.045789  0  0.112438  0.095715  0  0.986342  0
H  H37  1  0.31220803  0.67217946  0.33392845  1  0  0.087901  0  0.928642  0  0  0.104313  0  0.987422  0  0  0.105849  0  0.986277  0  0.082877  0  0.105765  0.103022  0  0.988474  0
H  H38  1  0.68779451  0.32782057  0.66607067  1  0  0.087976  0  0.928599  0  0  0.104382  0  0.987387  0  0  0.105918  0  0.986243  0  0.08286  0  0.105814  0.103091  0  0.988439  0
H  H39  1  0.48455755  0.64543622  0.40605574  1  0  0.086488  0  0.936361  0  0  0.102697  0  0.997042  0  0  0.103654  0  0.996531  0  0.06909  0  0.111075  0.10186  0  0.997597  0
H  H40  1  0.51544142  0.35456382  0.59394363  1  0  0.086499  0  0.93637  0  0  0.10271  0  0.997049  0  0  0.103668  0  0.996536  0  0.069083  0  0.111086  0.101873  0  0.997604  0
H  H41  1  0.54382685  0.26999378  0.06282855  1  0  0.083831  0  0.925319  0  0  0.098588  0  0.98854  0  0  0.100227  0  0.987434  0  0.076978  0  0.106194  0.09735  0  0.989376  0
H  H42  1  0.45617265  0.73000394  0.93717132  1  0  0.083798  0  0.925291  0  0  0.098575  0  0.988509  0  0  0.100213  0  0.987402  0  0.076975  0  0.106192  0.097339  0  0.989345  0
H  H43  1  0.50013916  0.44817211  0.09914850  1  0  0.070385  0  0.95596  0  0  0.085649  0  1.021491  0  0  0.086344  0  1.021322  0  0.051025  0  0.110819  0.085204  0  1.021456  0
H  H44  1  0.49986067  0.55182677  0.90085151  1  0  0.070419  0  0.956059  0  0  0.085688  0  1.021581  0  0  0.086382  0  1.021413  0  0.051011  0  0.110843  0.085242  0  1.021548  0
H  H45  1  0.31842277  0.41259547  0.28164128  1  0  0.073394  0  0.932738  0  0  0.087792  0  0.999954  0  0  0.088578  0  1.000007  0  0.063725  0  0.102407  0.087186  0  0.999954  0
H  H46  1  0.68157772  0.58740572  0.71835836  1  0  0.07338  0  0.932748  0  0  0.08779  0  0.999951  0  0  0.088576  0  1.000006  0  0.06371  0  0.102402  0.087183  0  0.999951  0
H  H47  1  0.37974865  0.51960316  0.20115113  1  0  0.067303  0  0.930139  0  0  0.086635  0  0.988717  0  0  0.086929  0  0.989001  0  0.027192  0  0.109836  0.086243  0  0.988774  0
H  H48  1  0.62025151  0.48039687  0.79884837  1  0  0.067298  0  0.930176  0  0  0.086645  0  0.988736  0  0  0.08694  0  0.989023  0  0.027197  0  0.109831  0.086252  0  0.988793  0
H  H49  1  0.46069628  0.96255417  0.25664628  1  0  0.10905  0  0.926349  0  0  0.122416  0  0.988793  0  0  0.124393  0  0.987948  0  0.071834  0  0.111891  0.120576  0  0.990304  0
H  H50  1  0.53930911  0.03745165  0.74335561  1  0  0.109064  0  0.926349  0  0  0.122372  0  0.98885  0  0  0.124347  0  0.98801  0  0.071891  0  0.111873  0.120532  0  0.990362  0
H  H51  1  0.33080123  0.77630981  0.21410984  1  0  0.111933  0  0.908983  0  0  0.128825  0  0.96546  0  0  0.131194  0  0.964024  0  0.111205  0  0.119527  0.127162  0  0.966519  0
H  H52  1  0.66919754  0.22369369  0.78588980  1  0  0.111927  0  0.909048  0  0  0.128843  0  0.965502  0  0  0.131215  0  0.964059  0  0.111234  0  0.119507  0.127178  0  0.96656  0
C  C53  1  0.62028821  0.91712098  0.39296158  1  0  -0.196711  0  3.686035  0  0  -0.246483  0  3.932325  0  0  -0.249539  0  3.939912  0  0.244941  0  -0.077254  -0.244427  0  3.927157  0
C  C54  1  0.37971196  0.08287905  0.60703987  1  0  -0.19674  0  3.686046  0  0  -0.246542  0  3.932339  0  0  -0.249576  0  3.939895  0  0.24517  0  -0.077269  -0.244467  0  3.927171  0
C  C55  1  0.86858666  0.36648404  0.14220786  1  0  -0.197674  0  3.671639  0  0  -0.244303  0  3.915373  0  0  -0.247953  0  3.923569  0  0.243904  0  -0.072683  -0.2415  0  3.909385  0
C  C56  1  0.13141350  0.63351599  0.85779164  1  0  -0.197692  0  3.6716  0  0  -0.244316  0  3.915363  0  0  -0.247959  0  3.923573  0  0.243868  0  -0.072684  -0.241508  0  3.909367  0
C  C57  1  0.72539139  0.53453845  0.44422142  1  0  0.694156  0  3.846835  0  0  0.644531  0  4.142177  0  0  0.679253  0  4.134696  0  1.539551  0  0.209201  0.620812  0  4.146453  0
C  C58  1  0.27460997  0.46546158  0.55577886  1  0  0.69418  0  3.84684  0  0  0.644546  0  4.142194  0  0  0.67927  0  4.134709  0  1.539432  0  0.209204  0.620827  0  4.146471  0
C  C59  1  0.77056462  0.53498521  0.05203188  1  0  -0.180496  0  3.675441  0  0  -0.235936  0  3.935066  0  0  -0.237524  0  3.940879  0  0.239718  0  -0.072256  -0.234744  0  3.930945  0
C  C60  1  0.22943488  0.46501250  0.94796735  1  0  -0.180507  0  3.675458  0  0  -0.23598  0  3.935091  0  0  -0.237563  0  3.940892  0  0.23972  0  -0.072253  -0.234789  0  3.930993  0
C  C61  1  0.61424367  0.40661626  0.36793352  1  0  -0.187735  0  3.664363  0  0  -0.23537  0  3.907676  0  0  -0.238582  0  3.916255  0  0.220288  0  -0.07548  -0.233003  0  3.9017  0
C  C62  1  0.38575769  0.59338377  0.63206611  1  0  -0.187736  0  3.664312  0  0  -0.235411  0  3.907661  0  0  -0.238604  0  3.916245  0  0.220155  0  -0.075459  -0.233044  0  3.901687  0
C  C63  1  0.54744200  0.32017006  0.20405485  1  0  -0.029987  0  3.628791  0  0  -0.085538  0  3.889797  0  0  -0.082211  0  3.90093  0  0.227088  0  -0.067506  -0.08797  0  3.882608  0
C  C64  1  0.45255816  0.67982997  0.79594531  1  0  -0.029958  0  3.628755  0  0  -0.085501  0  3.889761  0  0  -0.082186  0  3.900911  0  0.227075  0  -0.067496  -0.087927  0  3.882562  0
C  C65  1  0.43603102  0.65434832  0.33618802  1  0  -0.038355  0  3.637474  0  0  -0.094422  0  3.896952  0  0  -0.091344  0  3.907239  0  0.236381  0  -0.071105  -0.096352  0  3.890138  0
C  C66  1  0.56396881  0.34565056  0.66381199  1  0  -0.038463  0  3.637519  0  0  -0.094564  0  3.897016  0  0  -0.091482  0  3.907302  0  0.236392  0  -0.07117  -0.096491  0  3.890202  0
C  C67  1  0.91162557  0.68325592  0.07666613  1  0  0.710689  0  3.850086  0  0  0.661051  0  4.153239  0  0  0.695574  0  4.143858  0  1.579642  0  0.217238  0.637477  0  4.159023  0
C  C68  1  0.08837545  0.31674295  0.92333402  1  0  0.710745  0  3.850104  0  0  0.661117  0  4.153244  0  0  0.69564  0  4.143863  0  1.579628  0  0.217266  0.637546  0  4.159025  0
C  C69  1  0.57859852  0.37223871  0.11837128  1  0  -0.038363  0  3.645357  0  0  -0.097054  0  3.910612  0  0  -0.094218  0  3.921251  0  0.250598  0  -0.07035  -0.098643  0  3.902858  0
C  C70  1  0.42140099  0.62775901  0.88162795  1  0  -0.038353  0  3.645369  0  0  -0.097082  0  3.910665  0  0  -0.094242  0  3.921306  0  0.250626  0  -0.070371  -0.098675  0  3.902912  0
C  C71  1  0.53751711  0.82685646  0.15605344  1  0  0.706335  0  3.867056  0  0  0.655727  0  4.173912  0  0  0.68923  0  4.164665  0  1.578765  0  0.216836  0.632915  0  4.179287  0
C  C72  1  0.46248080  0.17314820  0.84394751  1  0  0.706297  0  3.867152  0  0  0.655742  0  4.173936  0  0  0.689249  0  4.164684  0  1.578849  0  0.216845  0.63293  0  4.17931  0
C  C73  1  0.41782349  0.50475815  0.27113959  1  0  -0.027983  0  3.643089  0  0  -0.08471  0  3.905791  0  0  -0.081957  0  3.918308  0  0.269383  0  -0.068846  -0.086667  0  3.897549  0
C  C74  1  0.58217786  0.49524188  0.72886005  1  0  -0.027944  0  3.643115  0  0  -0.084676  0  3.905825  0  0  -0.081927  0  3.918346  0  0.269381  0  -0.068824  -0.086633  0  3.89758  0
C  C75  1  0.46236373  0.84143180  0.23706405  1  0  -0.183952  0  3.652058  0  0  -0.238399  0  3.906131  0  0  -0.240489  0  3.913222  0  0.216752  0  -0.068936  -0.236816  0  3.901255  0
C  C76  1  0.53763451  0.15857402  0.76293768  1  0  -0.183876  0  3.652161  0  0  -0.23832  0  3.906202  0  0  -0.240416  0  3.913313  0  0.216696  0  -0.068838  -0.236732  0  3.901323  0
C  C77  1  0.93751453  0.36469467  0.23989094  1  0  0.700374  0  3.861829  0  0  0.646181  0  4.165417  0  0  0.680619  0  4.157289  0  1.556351  0  0.216877  0.622655  0  4.170001  0
C  C78  1  0.06248444  0.63530536  0.76010908  1  0  0.700447  0  3.861667  0  0  0.646202  0  4.165338  0  0  0.68064  0  4.157207  0  1.556542  0  0.216883  0.622676  0  4.169925  0
C  C79  1  0.78236022  0.01776286  0.38522661  1  0  0.70592  0  3.819802  0  0  0.657214  0  4.114866  0  0  0.691327  0  4.107637  0  1.549744  0  0.216294  0.633928  0  4.119139  0
C  C80  1  0.21763962  0.98223602  0.61477470  1  0  0.705964  0  3.819793  0  0  0.657279  0  4.114823  0  0  0.691388  0  4.107596  0  1.549824  0  0.216336  0.633996  0  4.119093  0
N  N81  1  0.75182945  0.46269999  0.12973179  1  0  -0.242354  0  3.316386  0  0  -0.164669  0  3.566706  0  0  -0.177621  0  3.587181  0  -1.032226  0  -0.393754  -0.15538  0  3.552283  0
N  N82  1  0.24817038  0.53729889  0.87026822  1  0  -0.24238  0  3.316336  0  0  -0.164689  0  3.566695  0  0  -0.177639  0  3.587165  0  -1.032211  0  -0.393769  -0.155397  0  3.552272  0
N  N83  1  0.57241911  0.45310964  0.27984204  1  0  -0.280373  0  3.238148  0  0  -0.201845  0  3.492699  0  0  -0.216108  0  3.512788  0  -1.004904  0  -0.395898  -0.191495  0  3.478575  0
N  N84  1  0.42758225  0.54689039  0.72015824  1  0  -0.280376  0  3.238047  0  0  -0.201893  0  3.492722  0  0  -0.21615  0  3.512809  0  -1.00467  0  -0.395911  -0.191543  0  3.478594  0
N  N85  1  0.54724248  0.78783652  0.31490853  1  0  -0.230944  0  3.28585  0  0  -0.152089  0  3.535309  0  0  -0.165407  0  3.555686  0  -1.012823  0  -0.365418  -0.142515  0  3.521033  0
N  N86  1  0.45275887  0.21216352  0.68509175  1  0  -0.231016  0  3.28603  0  0  -0.15206  0  3.535321  0  0  -0.165396  0  3.555739  0  -1.012965  0  -0.365452  -0.142496  0  3.52105  0
Cl  Cl87  1  0.70286642  0.88897842  0.62113635  1  0  -0.574774  0  0.977476  0  0  -0.505036  0  1.239412  0  0  -0.523487  0  1.215044  0  -0.647945  0  -0.251568  -0.491808  0  1.256679  0
Cl  Cl88  1  0.29713222  0.11102045  0.37886418  1  0  -0.574782  0  0.977476  0  0  -0.505033  0  1.239405  0  0  -0.523488  0  1.215042  0  -0.647898  0  -0.251578  -0.491808  0  1.256678  0
O  O89  1  0.80251537  0.66188541  0.42676111  1  0  -0.745647  0  2.091608  0  0  -0.673406  0  2.350556  0  0  -0.702965  0  2.341078  0  -1.204122  0  -0.397722  -0.652443  0  2.356444  0
O  O90  1  0.19748393  0.33811579  0.57323904  1  0  -0.745657  0  2.091612  0  0  -0.673406  0  2.35056  0  0  -0.702966  0  2.341082  0  -1.204031  0  -0.397713  -0.652443  0  2.356448  0
O  O91  1  0.92586848  0.46601714  0.30207584  1  0  -0.684318  0  2.044702  0  0  -0.62747  0  2.302182  0  0  -0.652757  0  2.292955  0  -1.194046  0  -0.368629  -0.609064  0  2.307778  0
O  O92  1  0.07413201  0.53398405  0.69792445  1  0  -0.684345  0  2.044634  0  0  -0.627464  0  2.302127  0  0  -0.65275  0  2.292901  0  -1.194244  0  -0.368617  -0.609056  0  2.307721  0
O  O93  1  0.97633162  0.74416144  0.16078794  1  0  -0.724095  0  1.983955  0  0  -0.657582  0  2.21963  0  0  -0.683365  0  2.207689  0  -1.19878  0  -0.37871  -0.63952  0  2.227423  0
O  O94  1  0.02366855  0.25583859  0.83921221  1  0  -0.724113  0  1.983962  0  0  -0.657594  0  2.219622  0  0  -0.683378  0  2.207681  0  -1.198776  0  -0.378714  -0.639532  0  2.227413  0
O  O95  1  0.85958692  0.96455534  0.33124359  1  0  -0.723968  0  2.037257  0  0  -0.659198  0  2.28443  0  0  -0.685774  0  2.274702  0  -1.198632  0  -0.381937  -0.63994  0  2.290276  0
O  O96  1  0.14041291  0.03544353  0.66875642  1  0  -0.723944  0  2.037273  0  0  -0.659173  0  2.284429  0  0  -0.685749  0  2.2747  0  -1.198652  0  -0.381921  -0.639915  0  2.290274  0
O  O97  1  0.10826687  0.04917280  0.15221636  1  0  -0.850817  0  1.865557  0  0  -0.789863  0  2.060649  0  0  -0.813327  0  2.025095  0  -1.254016  0  -0.588016  -0.773339  0  2.085546  0
O  O98  1  0.89173329  0.95082724  0.84778314  1  0  -0.850857  0  1.865514  0  0  -0.789921  0  2.060613  0  0  -0.813384  0  2.02506  0  -1.253993  0  -0.588052  -0.773398  0  2.085511  0
O  O99  1  0.73488258  0.00682412  0.01088923  1  0  -0.878464  0  1.858541  0  0  -0.817685  0  2.058697  0  0  -0.839929  0  2.021966  0  -1.275108  0  -0.59716  -0.801751  0  2.084494  0
O  O100  1  0.26511606  0.99317475  0.98911000  1  0  -0.878421  0  1.858572  0  0  -0.817651  0  2.058753  0  0  -0.839893  0  2.02202  0  -1.275088  0  -0.597138  -0.801717  0  2.084549  0
O  O101  1  0.83847600  0.15377422  0.43536252  1  0  -0.636521  0  1.970669  0  0  -0.561076  0  2.208646  0  0  -0.590882  0  2.195832  0  -1.164613  0  -0.313687  -0.54091  0  2.2177  0
O  O102  1  0.16152231  0.84622350  0.56463852  1  0  -0.636561  0  1.970653  0  0  -0.561145  0  2.20866  0  0  -0.590953  0  2.195845  0  -1.164601  0  -0.313729  -0.540986  0  2.217724  0
O  O103  1  0.94961014  0.73817297  0.01089749  1  0  -0.652543  0  1.969305  0  0  -0.593604  0  2.218054  0  0  -0.621438  0  2.205947  0  -1.185918  0  -0.327918  -0.57416  0  2.225745  0
O  O104  1  0.05039088  0.26182590  0.98910201  1  0  -0.652608  0  1.969312  0  0  -0.593667  0  2.218053  0  0  -0.621502  0  2.205945  0  -1.185916  0  -0.327962  -0.574222  0  2.225742  0
O  O105  1  0.00913341  0.25840805  0.25495821  1  0  -0.649172  0  2.077365  0  0  -0.569596  0  2.326943  0  0  -0.600684  0  2.314398  0  -1.170723  0  -0.316039  -0.547944  0  2.335093  0
O  O106  1  0.99086642  0.74159082  0.74504180  1  0  -0.649168  0  2.07727  0  0  -0.569609  0  2.326907  0  0  -0.600692  0  2.314358  0  -1.170726  0  -0.316057  -0.547962  0  2.335067  0
O  O107  1  0.10188042  0.78619067  0.36895297  1  0  -0.875207  0  1.880034  0  0  -0.820822  0  2.064096  0  0  -0.839444  0  2.03417  0  -1.256422  0  -0.636481  -0.807553  0  2.085209  0
O  O108  1  0.89811822  0.21380820  0.63104626  1  0  -0.875205  0  1.880127  0  0  -0.820814  0  2.064096  0  0  -0.839438  0  2.034174  0  -1.256383  0  -0.636462  -0.807545  0  2.08521  0
O  O109  1  0.74216486  0.51108921  0.52402162  1  0  -0.593505  0  1.935741  0  0  -0.52782  0  2.17125  0  0  -0.55681  0  2.161323  0  -1.137468  0  -0.3092  -0.507494  0  2.17741  0
O  O110  1  0.25783530  0.48891082  0.47597789  1  0  -0.593515  0  1.935737  0  0  -0.527826  0  2.171253  0  0  -0.556815  0  2.161325  0  -1.137466  0  -0.309207  -0.507499  0  2.177413  0
O  O111  1  0.63613089  0.74124013  0.15363258  1  0  -0.737803  0  2.099975  0  0  -0.678226  0  2.361761  0  0  -0.704495  0  2.353006  0  -1.202239  0  -0.412541  -0.659874  0  2.367169  0
O  O112  1  0.36386517  0.25876222  0.84636731  1  0  -0.737815  0  2.100027  0  0  -0.678293  0  2.361839  0  0  -0.704555  0  2.35307  0  -1.202239  0  -0.412586  -0.659939  0  2.367246  0
O  O113  1  0.49790062  0.89875859  0.09436184  1  0  -0.635081  0  1.977752  0  0  -0.572623  0  2.196195  0  0  -0.598208  0  2.184521  0  -1.21048  0  -0.310627  -0.55475  0  2.203846  0
O  O114  1  0.50210272  0.10124839  0.90564121  1  0  -0.63506  0  1.977751  0  0  -0.572609  0  2.196156  0  0  -0.598195  0  2.18448  0  -1.21056  0  -0.310618  -0.554735  0  2.203807  0
