# generated using pymatgen
data_CdP2H12C10(NO4)2
_symmetry_space_group_name_H-M   'P 1'
_cell_length_a   10.85833500
_cell_length_b   10.85830695
_cell_length_c   13.73060935
_cell_angle_alpha   98.83147507
_cell_angle_beta   98.83159284
_cell_angle_gamma   111.51320730
_symmetry_Int_Tables_number   1
_chemical_formula_structural   CdP2H12C10(NO4)2
_chemical_formula_sum   'Cd4 P8 H48 C40 N8 O32'
_cell_volume   1448.95705438
_cell_formula_units_Z   4
loop_
 _symmetry_equiv_pos_site_id
 _symmetry_equiv_pos_as_xyz
  1  'x, y, z'
loop_
 _atom_site_type_symbol
 _atom_site_label
 _atom_site_symmetry_multiplicity
 _atom_site_fract_x
 _atom_site_fract_y
 _atom_site_fract_z
 _atom_site_occupancy
 _atom_site_hle17_bader_spin_density
 _atom_site_hle17_ddec_charge
 _atom_site_hle17_ddec_spin_density
 _atom_site_hle17_ddec_sum_bond_order
 _atom_site_hle17_magmom
 _atom_site_hse06_10hf_bader_spin_density
 _atom_site_hse06_10hf_ddec_charge
 _atom_site_hse06_10hf_ddec_spin_density
 _atom_site_hse06_10hf_ddec_sum_bond_order
 _atom_site_hse06_10hf_magmom
 _atom_site_hse06_bader_spin_density
 _atom_site_hse06_ddec_charge
 _atom_site_hse06_ddec_spin_density
 _atom_site_hse06_ddec_sum_bond_order
 _atom_site_hse06_magmom
 _atom_site_pbe_bader_spin_density
 _atom_site_pbe_cm5_charge
 _atom_site_pbe_ddec_charge
 _atom_site_pbe_ddec_spin_density
 _atom_site_pbe_ddec_sum_bond_order
 _atom_site_pbe_magmom
Cd  Cd0  1  0.43682032  0.36059423  0.62091665  1  0  1.2475  0  1.678673  0  0  1.058453  0  2.132531  0  0  1.108765  0  2.080844  0  0  0.81504  1.021977  0  2.168755  0
Cd  Cd1  1  0.36059455  0.43681937  0.12091642  1  0  1.247522  0  1.678642  0  0  1.058458  0  2.13253  0  0  1.108767  0  2.080846  0  0  0.815042  1.021987  0  2.168756  0
Cd  Cd2  1  0.56317926  0.63940552  0.37908368  1  0  1.247526  0  1.678632  0  0  1.058481  0  2.1325  0  0  1.10879  0  2.080815  0  0  0.815056  1.022006  0  2.16872  0
Cd  Cd3  1  0.63940596  0.56318039  0.87908402  1  0  1.247496  0  1.678662  0  0  1.058437  0  2.132528  0  0  1.10875  0  2.080842  0  0  0.815042  1.021968  0  2.16875  0
P  P4  1  0.35057330  0.31720395  0.35473492  1  0  1.770143  0  4.819213  0  0  1.579725  0  5.34724  0  0  1.638172  0  5.292182  0  0  0.425467  1.538453  0  5.385352  0
P  P5  1  0.31720363  0.35057319  0.85473492  1  0  1.770164  0  4.819161  0  0  1.57976  0  5.347158  0  0  1.63822  0  5.292047  0  0  0.425476  1.538464  0  5.385333  0
P  P6  1  0.64942721  0.68279580  0.64526552  1  0  1.770073  0  4.819303  0  0  1.579676  0  5.347299  0  0  1.638137  0  5.292183  0  0  0.425443  1.538378  0  5.385467  0
P  P7  1  0.68279541  0.64942757  0.14526547  1  0  1.770157  0  4.819092  0  0  1.579747  0  5.347098  0  0  1.638208  0  5.291984  0  0  0.425457  1.538454  0  5.385268  0
P  P8  1  0.19547517  0.50871447  0.56919424  1  0  1.777812  0  4.810559  0  0  1.585007  0  5.340449  0  0  1.642986  0  5.284474  0  0  0.446823  1.544641  0  5.378375  0
P  P9  1  0.50871384  0.19547540  0.06919513  1  0  1.777803  0  4.810542  0  0  1.584991  0  5.340439  0  0  1.64297  0  5.284466  0  0  0.446808  1.54462  0  5.378373  0
P  P10  1  0.80452574  0.49128631  0.43080638  1  0  1.77774  0  4.810646  0  0  1.584899  0  5.340562  0  0  1.64288  0  5.28459  0  0  0.446771  1.544526  0  5.378493  0
P  P11  1  0.49128666  0.80452435  0.93080458  1  0  1.777806  0  4.810589  0  0  1.584974  0  5.340508  0  0  1.642954  0  5.284535  0  0  0.446806  1.544627  0  5.3784  0
H  H12  1  0.40459325  0.64789593  0.56469226  1  0  0.442945  0  0.860678  0  0  0.407196  0  0.931834  0  0  0.418897  0  0.914974  0  0  0.305601  0.398964  0  0.943671  0
H  H13  1  0.64789501  0.40459255  0.06469221  1  0  0.442893  0  0.860744  0  0  0.407139  0  0.931911  0  0  0.41884  0  0.915052  0  0  0.305568  0.398909  0  0.943744  0
H  H14  1  0.59540765  0.35210484  0.43530836  1  0  0.442875  0  0.860768  0  0  0.407116  0  0.931944  0  0  0.418817  0  0.915084  0  0  0.305575  0.398885  0  0.943778  0
H  H15  1  0.35210456  0.59540720  0.93530812  1  0  0.442898  0  0.860736  0  0  0.407141  0  0.931907  0  0  0.418842  0  0.915047  0  0  0.30557  0.398907  0  0.943746  0
H  H16  1  0.00995170  0.54420005  0.59254417  1  0  0.450227  0  0.849342  0  0  0.411546  0  0.924534  0  0  0.423489  0  0.907397  0  0  0.307655  0.403206  0  0.936449  0
H  H17  1  0.54419868  0.00995193  0.09254373  1  0  0.450225  0  0.849344  0  0  0.411544  0  0.924535  0  0  0.423487  0  0.9074  0  0  0.307668  0.403203  0  0.936453  0
H  H18  1  0.99004868  0.45580174  0.40745650  1  0  0.450217  0  0.849356  0  0  0.411538  0  0.924545  0  0  0.423481  0  0.907409  0  0  0.307667  0.403199  0  0.93646  0
H  H19  1  0.45580089  0.99004782  0.90745587  1  0  0.450217  0  0.849354  0  0  0.411533  0  0.924552  0  0  0.423476  0  0.907417  0  0  0.307654  0.403192  0  0.93647  0
H  H20  1  0.17371413  0.34121129  0.40719540  1  0  0.445049  0  0.856959  0  0  0.40833  0  0.928927  0  0  0.419904  0  0.912334  0  0  0.306669  0.400208  0  0.940547  0
H  H21  1  0.34121120  0.17371346  0.90719483  1  0  0.444964  0  0.857073  0  0  0.408272  0  0.928999  0  0  0.419846  0  0.912407  0  0  0.306638  0.400156  0  0.940609  0
H  H22  1  0.82628678  0.65878948  0.59280521  1  0  0.445021  0  0.857  0  0  0.408304  0  0.928965  0  0  0.419878  0  0.912372  0  0  0.306647  0.400184  0  0.94058  0
H  H23  1  0.65878877  0.82628731  0.09280495  1  0  0.44497  0  0.857065  0  0  0.408274  0  0.928996  0  0  0.419847  0  0.912406  0  0  0.306636  0.400156  0  0.940611  0
H  H24  1  0.37813225  0.21114489  0.21512435  1  0  0.446174  0  0.859806  0  0  0.409964  0  0.931542  0  0  0.421622  0  0.914737  0  0  0.308659  0.401903  0  0.943126  0
H  H25  1  0.21114606  0.37813307  0.71512379  1  0  0.446179  0  0.859805  0  0  0.409988  0  0.931512  0  0  0.421646  0  0.914706  0  0  0.308668  0.401929  0  0.943094  0
H  H26  1  0.62186732  0.78885486  0.78487525  1  0  0.446163  0  0.85982  0  0  0.409942  0  0.931566  0  0  0.421599  0  0.914763  0  0  0.308664  0.401884  0  0.943148  0
H  H27  1  0.78885392  0.62186770  0.28487599  1  0  0.446186  0  0.859802  0  0  0.409966  0  0.931543  0  0  0.421624  0  0.914739  0  0  0.30866  0.401907  0  0.943126  0
H  H28  1  0.11813528  0.16534939  0.58678459  1  0  0.079203  0  0.946266  0  0  0.08797  0  1.0096  0  0  0.090229  0  1.007715  0  0  0.116149  0.086134  0  1.01134  0
H  H29  1  0.16534853  0.11813398  0.08678429  1  0  0.079202  0  0.946222  0  0  0.087963  0  1.009557  0  0  0.090222  0  1.007674  0  0  0.116148  0.086128  0  1.011295  0
H  H30  1  0.88186377  0.83465138  0.41321872  1  0  0.079219  0  0.946189  0  0  0.08798  0  1.009515  0  0  0.090239  0  1.007632  0  0  0.116128  0.086146  0  1.011249  0
H  H31  1  0.83465251  0.88186477  0.91321537  1  0  0.07916  0  0.946333  0  0  0.087926  0  1.009661  0  0  0.090185  0  1.00778  0  0  0.116127  0.08609  0  1.011404  0
H  H32  1  0.97575384  0.93295735  0.61070415  1  0  0.112339  0  0.963684  0  0  0.121708  0  1.023403  0  0  0.124741  0  1.022713  0  0  0.10761  0.119243  0  1.024538  0
H  H33  1  0.93295674  0.97575609  0.11070495  1  0  0.11228  0  0.96378  0  0  0.121691  0  1.023451  0  0  0.124724  0  1.022759  0  0  0.107599  0.119219  0  1.024599  0
H  H34  1  0.02424747  0.06704445  0.38929810  1  0  0.112331  0  0.963697  0  0  0.121737  0  1.023377  0  0  0.12477  0  1.022687  0  0  0.107632  0.119275  0  1.024513  0
H  H35  1  0.06704376  0.02424366  0.88929477  1  0  0.112291  0  0.963767  0  0  0.121704  0  1.023436  0  0  0.124736  0  1.022745  0  0  0.107604  0.119227  0  1.024585  0
H  H36  1  0.09313799  0.78028474  0.64862247  1  0  0.101694  0  0.95423  0  0  0.113124  0  1.011924  0  0  0.115345  0  1.010958  0  0  0.11099  0.111618  0  1.012412  0
H  H37  1  0.78028568  0.09314000  0.14862485  1  0  0.101711  0  0.954189  0  0  0.113125  0  1.0119  0  0  0.115347  0  1.010933  0  0  0.111008  0.11162  0  1.012395  0
H  H38  1  0.90686117  0.21971399  0.35137551  1  0  0.101699  0  0.954224  0  0  0.11312  0  1.011927  0  0  0.115341  0  1.010961  0  0  0.111016  0.111615  0  1.012422  0
H  H39  1  0.21971482  0.90685975  0.85137413  1  0  0.101732  0  0.954161  0  0  0.11311  0  1.011903  0  0  0.115332  0  1.010938  0  0  0.111019  0.111603  0  1.012396  0
H  H40  1  0.34074645  0.85994168  0.66300976  1  0  0.128206  0  0.962353  0  0  0.1373  0  1.021637  0  0  0.14077  0  1.019786  0  0  0.112294  0.134866  0  1.023054  0
H  H41  1  0.85994437  0.34074992  0.16301456  1  0  0.128139  0  0.962276  0  0  0.137232  0  1.021585  0  0  0.140701  0  1.019734  0  0  0.112284  0.134787  0  1.02301  0
H  H42  1  0.65925177  0.14005704  0.33698591  1  0  0.128135  0  0.962276  0  0  0.13723  0  1.021581  0  0  0.140701  0  1.019729  0  0  0.112292  0.134791  0  1.023005  0
H  H43  1  0.14005706  0.65924984  0.83698527  1  0  0.128181  0  0.96226  0  0  0.137275  0  1.021553  0  0  0.140744  0  1.019702  0  0  0.112313  0.13483  0  1.022977  0
H  H44  1  0.52543848  0.91124641  0.62332798  1  0  0.123756  0  0.955961  0  0  0.133469  0  1.014916  0  0  0.136529  0  1.013844  0  0  0.113538  0.131201  0  1.016249  0
H  H45  1  0.91124585  0.52543856  0.12332820  1  0  0.123794  0  0.955937  0  0  0.133504  0  1.014889  0  0  0.136566  0  1.01381  0  0  0.113554  0.131232  0  1.016214  0
H  H46  1  0.47456056  0.08875436  0.37667314  1  0  0.123771  0  0.95596  0  0  0.13348  0  1.014913  0  0  0.136543  0  1.013833  0  0  0.113536  0.131207  0  1.016249  0
H  H47  1  0.08875425  0.47456018  0.87666988  1  0  0.123795  0  0.955922  0  0  0.133519  0  1.014852  0  0  0.136573  0  1.013791  0  0  0.113566  0.131247  0  1.016181  0
H  H48  1  0.76850165  0.00422026  0.62064876  1  0  0.100541  0  0.930418  0  0  0.114786  0  0.983943  0  0  0.116912  0  0.98278  0  0  0.111738  0.113081  0  0.985241  0
H  H49  1  0.00422222  0.76850253  0.12064756  1  0  0.100528  0  0.930376  0  0  0.114784  0  0.983925  0  0  0.116911  0  0.982766  0  0  0.111735  0.113079  0  0.985225  0
H  H50  1  0.23149659  0.99577847  0.37935274  1  0  0.100523  0  0.930414  0  0  0.114763  0  0.983955  0  0  0.116887  0  0.982807  0  0  0.11172  0.113055  0  0.985256  0
H  H51  1  0.99577788  0.23149621  0.87935271  1  0  0.100505  0  0.930402  0  0  0.114755  0  0.983953  0  0  0.116882  0  0.982797  0  0  0.111728  0.11305  0  0.985252  0
H  H52  1  0.88784248  0.25490806  0.62490231  1  0  0.110853  0  0.933603  0  0  0.125079  0  0.984089  0  0  0.127738  0  0.984035  0  0  0.111989  0.122718  0  0.984922  0
H  H53  1  0.25490871  0.88784143  0.12490084  1  0  0.110904  0  0.933594  0  0  0.125091  0  0.984125  0  0  0.127778  0  0.984036  0  0  0.111993  0.122734  0  0.984956  0
H  H54  1  0.11215669  0.74509067  0.37509785  1  0  0.110863  0  0.93361  0  0  0.125097  0  0.984086  0  0  0.127751  0  0.984038  0  0  0.111991  0.122734  0  0.984915  0
H  H55  1  0.74509313  0.11215935  0.87510061  1  0  0.11085  0  0.933673  0  0  0.125073  0  0.984157  0  0  0.127735  0  0.9841  0  0  0.111986  0.122715  0  0.984985  0
H  H56  1  0.75260165  0.39769241  0.63389017  1  0  0.0854  0  0.948947  0  0  0.092197  0  1.01447  0  0  0.094674  0  1.012259  0  0  0.115542  0.090262  0  1.016378  0
H  H57  1  0.39769398  0.75260144  0.13388919  1  0  0.085399  0  0.94887  0  0  0.092195  0  1.014384  0  0  0.094674  0  1.012173  0  0  0.115537  0.090258  0  1.016293  0
H  H58  1  0.24739832  0.60230836  0.36611106  1  0  0.085382  0  0.948975  0  0  0.092188  0  1.014488  0  0  0.094648  0  1.012299  0  0  0.115551  0.090253  0  1.016398  0
H  H59  1  0.60230786  0.24739934  0.86611227  1  0  0.085404  0  0.948891  0  0  0.092207  0  1.014401  0  0  0.094668  0  1.012211  0  0  0.115543  0.090273  0  1.016308  0
C  C60  1  0.16249433  0.09337821  0.60279250  1  0  0.136476  0  3.731375  0  0  0.104167  0  3.988045  0  0  0.110986  0  4.00694  0  0  0.047866  0.099719  0  3.974952  0
C  C61  1  0.09337928  0.16249778  0.10279362  1  0  0.136474  0  3.731252  0  0  0.104192  0  3.987928  0  0  0.111011  0  4.006822  0  0  0.047902  0.099753  0  3.974828  0
C  C62  1  0.83750498  0.90662559  0.39720902  1  0  0.13646  0  3.731375  0  0  0.104187  0  3.988025  0  0  0.111004  0  4.00692  0  0  0.047926  0.099742  0  3.974923  0
C  C63  1  0.90662122  0.83750197  0.89720610  1  0  0.136537  0  3.731306  0  0  0.104238  0  3.987982  0  0  0.111055  0  4.006879  0  0  0.047932  0.099796  0  3.974884  0
C  C64  1  0.08449569  0.96559362  0.61586311  1  0  -0.118558  0  3.718194  0  0  -0.130367  0  3.966006  0  0  -0.137588  0  3.988132  0  0  -0.080301  -0.125549  0  3.951327  0
C  C65  1  0.96559326  0.08449376  0.11586505  1  0  -0.118504  0  3.717978  0  0  -0.13036  0  3.965769  0  0  -0.13758  0  3.987892  0  0  -0.080294  -0.125541  0  3.951108  0
C  C66  1  0.91550348  0.03440512  0.38413633  1  0  -0.118586  0  3.718172  0  0  -0.130442  0  3.965977  0  0  -0.137663  0  3.988103  0  0  -0.080331  -0.125626  0  3.951303  0
C  C67  1  0.03440778  0.91550498  0.88413388  1  0  -0.11851  0  3.71797  0  0  -0.130365  0  3.96575  0  0  -0.137585  0  3.987877  0  0  -0.080304  -0.125543  0  3.951083  0
C  C68  1  0.15002080  0.88082484  0.63747642  1  0  0.007937  0  3.704192  0  0  -0.010013  0  3.95248  0  0  -0.006943  0  3.971666  0  0  -0.062005  -0.011859  0  3.939226  0
C  C69  1  0.88082558  0.15002489  0.13747980  1  0  0.007828  0  3.704204  0  0  -0.010095  0  3.952487  0  0  -0.007024  0  3.971669  0  0  -0.062062  -0.011945  0  3.939244  0
C  C70  1  0.84997824  0.11917591  0.36252106  1  0  0.00792  0  3.704033  0  0  -0.010011  0  3.952317  0  0  -0.006941  0  3.971503  0  0  -0.062012  -0.011859  0  3.939079  0
C  C71  1  0.11917492  0.84997486  0.86251991  1  0  0.007823  0  3.704207  0  0  -0.01007  0  3.952496  0  0  -0.007001  0  3.971682  0  0  -0.062069  -0.011919  0  3.939248  0
C  C72  1  0.28953781  0.92553619  0.64517730  1  0  -0.126089  0  3.664403  0  0  -0.147241  0  3.913115  0  0  -0.153783  0  3.933392  0  0  -0.074013  -0.143145  0  3.899607  0
C  C73  1  0.92553853  0.28953752  0.14518244  1  0  -0.12597  0  3.664404  0  0  -0.147157  0  3.913109  0  0  -0.153698  0  3.933384  0  0  -0.074042  -0.143049  0  3.899597  0
C  C74  1  0.71045962  0.07446050  0.35481949  1  0  -0.125934  0  3.664326  0  0  -0.147098  0  3.913047  0  0  -0.153641  0  3.933324  0  0  -0.074023  -0.143  0  3.899549  0
C  C75  1  0.07446384  0.71046225  0.85481823  1  0  -0.126013  0  3.664409  0  0  -0.147194  0  3.913113  0  0  -0.153733  0  3.933384  0  0  -0.074061  -0.143085  0  3.899598  0
C  C76  1  0.36101405  0.05427809  0.62919733  1  0  0.17757  0  3.758909  0  0  0.173611  0  3.998674  0  0  0.180269  0  4.019805  0  0  0.1209  0.169128  0  3.984172  0
C  C77  1  0.05427989  0.36101502  0.12919947  1  0  0.177507  0  3.758973  0  0  0.173616  0  3.998685  0  0  0.180275  0  4.019816  0  0  0.120941  0.169136  0  3.984174  0
C  C78  1  0.63898498  0.94572266  0.37080088  1  0  0.177509  0  3.758994  0  0  0.173562  0  3.998762  0  0  0.180219  0  4.019895  0  0  0.120883  0.169078  0  3.98426  0
C  C79  1  0.94572022  0.63898371  0.87079935  1  0  0.177482  0  3.758931  0  0  0.173571  0  3.998645  0  0  0.180229  0  4.019775  0  0  0.120905  0.16909  0  3.984131  0
C  C80  1  0.50861639  0.10522352  0.63042221  1  0  0.170995  0  3.772104  0  0  0.168357  0  4.011578  0  0  0.174318  0  4.033374  0  0  0.120913  0.164395  0  3.99671  0
C  C81  1  0.10522298  0.50861627  0.13042385  1  0  0.171059  0  3.772038  0  0  0.168388  0  4.011518  0  0  0.174349  0  4.03331  0  0  0.120888  0.164422  0  3.996649  0
C  C82  1  0.49138278  0.89477521  0.36957650  1  0  0.171029  0  3.772125  0  0  0.168392  0  4.011595  0  0  0.174353  0  4.033389  0  0  0.12092  0.16443  0  3.996724  0
C  C83  1  0.89477806  0.49138247  0.86957581  1  0  0.170958  0  3.772146  0  0  0.168312  0  4.011591  0  0  0.174272  0  4.033385  0  0  0.120874  0.164344  0  3.996724  0
C  C84  1  0.57737168  0.01861751  0.62579078  1  0  -0.128028  0  3.672846  0  0  -0.149899  0  3.924856  0  0  -0.156421  0  3.945816  0  0  -0.076486  -0.14629  0  3.911624  0
C  C85  1  0.01862139  0.57737567  0.12579112  1  0  -0.128121  0  3.673122  0  0  -0.149942  0  3.925131  0  0  -0.156462  0  3.946092  0  0  -0.076504  -0.146321  0  3.911883  0
C  C86  1  0.42262736  0.98138325  0.37420961  1  0  -0.128147  0  3.672854  0  0  -0.150007  0  3.924859  0  0  -0.156525  0  3.945818  0  0  -0.076548  -0.146387  0  3.911618  0
C  C87  1  0.98137951  0.42262510  0.87420950  1  0  -0.128061  0  3.673068  0  0  -0.149904  0  3.925068  0  0  -0.156424  0  3.946027  0  0  -0.076538  -0.146284  0  3.911825  0
C  C88  1  0.71460890  0.07133738  0.62366526  1  0  0.006459  0  3.710433  0  0  -0.013842  0  3.964086  0  0  -0.010363  0  3.982839  0  0  -0.062883  -0.015974  0  3.951522  0
C  C89  1  0.07133470  0.71460542  0.12366455  1  0  0.006587  0  3.710362  0  0  -0.013789  0  3.964071  0  0  -0.010317  0  3.982838  0  0  -0.062867  -0.01593  0  3.95152  0
C  C90  1  0.28538934  0.92866135  0.37633551  1  0  0.006546  0  3.710435  0  0  -0.013761  0  3.964079  0  0  -0.01029  0  3.982833  0  0  -0.062844  -0.015896  0  3.951516  0
C  C91  1  0.92866634  0.28539333  0.87633584  1  0  0.006594  0  3.710253  0  0  -0.013769  0  3.963961  0  0  -0.010297  0  3.982718  0  0  -0.062825  -0.015906  0  3.951401  0
C  C92  1  0.78059797  0.20894628  0.62599092  1  0  -0.116019  0  3.718748  0  0  -0.129373  0  3.971039  0  0  -0.13632  0  3.993224  0  0  -0.079401  -0.123992  0  3.955576  0
C  C93  1  0.20894974  0.78060061  0.12598884  1  0  -0.116122  0  3.718455  0  0  -0.129431  0  3.970758  0  0  -0.136399  0  3.992941  0  0  -0.079396  -0.124057  0  3.955306  0
C  C94  1  0.21940201  0.79105448  0.37400959  1  0  -0.116024  0  3.718765  0  0  -0.12938  0  3.971056  0  0  -0.136321  0  3.993238  0  0  -0.079378  -0.123999  0  3.95559  0
C  C95  1  0.79105076  0.21939914  0.87401161  1  0  -0.116083  0  3.718475  0  0  -0.129417  0  3.970782  0  0  -0.136364  0  3.99296  0  0  -0.079401  -0.12404  0  3.955324  0
C  C96  1  0.70596414  0.28928943  0.63119206  1  0  0.150959  0  3.704676  0  0  0.11744  0  3.964086  0  0  0.124728  0  3.982154  0  0  0.050062  0.11267  0  3.951427  0
C  C97  1  0.28928735  0.70595953  0.13119151  1  0  0.150968  0  3.704865  0  0  0.11748  0  3.96424  0  0  0.124763  0  3.982315  0  0  0.050066  0.112718  0  3.951576  0
C  C98  1  0.29403597  0.71070931  0.36880821  1  0  0.151025  0  3.704672  0  0  0.11751  0  3.964082  0  0  0.124811  0  3.982146  0  0  0.050073  0.112737  0  3.951424  0
C  C99  1  0.71071315  0.29404022  0.86880967  1  0  0.150968  0  3.704819  0  0  0.117462  0  3.964214  0  0  0.124759  0  3.982284  0  0  0.050065  0.112693  0  3.951552  0
N  N100  1  0.29655056  0.13608648  0.60916214  1  0  -0.382125  0  3.267614  0  0  -0.310966  0  3.532828  0  0  -0.330752  0  3.551182  0  0  -0.331786  -0.296738  0  3.51957  0
N  N101  1  0.13608673  0.29654929  0.10916324  1  0  -0.382072  0  3.267692  0  0  -0.310962  0  3.5329  0  0  -0.330747  0  3.551254  0  0  -0.331783  -0.296738  0  3.519637  0
N  N102  1  0.70344902  0.86391328  0.39083892  1  0  -0.382127  0  3.267622  0  0  -0.310995  0  3.532838  0  0  -0.330782  0  3.551194  0  0  -0.331811  -0.296766  0  3.519572  0
N  N103  1  0.86391430  0.70344945  0.89083642  1  0  -0.382085  0  3.267698  0  0  -0.310949  0  3.532883  0  0  -0.330734  0  3.551238  0  0  -0.331787  -0.296727  0  3.519621  0
N  N104  1  0.57402816  0.23849511  0.63318768  1  0  -0.37511  0  3.251829  0  0  -0.304924  0  3.515287  0  0  -0.324635  0  3.534207  0  0  -0.330365  -0.290655  0  3.502087  0
N  N105  1  0.23849866  0.57403166  0.13318813  1  0  -0.375159  0  3.252016  0  0  -0.30498  0  3.515484  0  0  -0.324693  0  3.534408  0  0  -0.330368  -0.290717  0  3.502288  0
N  N106  1  0.42597048  0.76150464  0.36681254  1  0  -0.375152  0  3.251923  0  0  -0.304983  0  3.515397  0  0  -0.324692  0  3.534308  0  0  -0.330371  -0.290717  0  3.502201  0
N  N107  1  0.76150278  0.42596810  0.86681170  1  0  -0.375091  0  3.25198  0  0  -0.304918  0  3.515435  0  0  -0.324627  0  3.534351  0  0  -0.330346  -0.290652  0  3.502238  0
O  O108  1  0.25046853  0.41627702  0.61876327  1  0  -0.925376  0  2.02015  0  0  -0.825659  0  2.289774  0  0  -0.85446  0  2.263488  0  0  -0.377718  -0.805499  0  2.307434  0
O  O109  1  0.41627777  0.25046978  0.11876505  1  0  -0.92539  0  2.020172  0  0  -0.825656  0  2.28979  0  0  -0.854454  0  2.263502  0  0  -0.377723  -0.805495  0  2.307452  0
O  O110  1  0.74953104  0.58372273  0.38123706  1  0  -0.925392  0  2.020153  0  0  -0.825662  0  2.289805  0  0  -0.854468  0  2.263522  0  0  -0.377728  -0.805501  0  2.307465  0
O  O111  1  0.58372314  0.74953100  0.88123557  1  0  -0.925387  0  2.020198  0  0  -0.82565  0  2.289839  0  0  -0.854454  0  2.263556  0  0  -0.377717  -0.805499  0  2.307498  0
O  O112  1  0.45572409  0.34488861  0.45302870  1  0  -0.931585  0  2.002987  0  0  -0.838668  0  2.27838  0  0  -0.867561  0  2.253017  0  0  -0.382492  -0.817897  0  2.295326  0
O  O113  1  0.34488815  0.45572370  0.95302785  1  0  -0.931573  0  2.00297  0  0  -0.838653  0  2.27835  0  0  -0.867546  0  2.252982  0  0  -0.382503  -0.817878  0  2.29531  0
O  O114  1  0.54427602  0.65511013  0.54697230  1  0  -0.931574  0  2.003013  0  0  -0.838653  0  2.278393  0  0  -0.867546  0  2.253025  0  0  -0.382487  -0.81788  0  2.29535  0
O  O115  1  0.65510995  0.54427705  0.04697170  1  0  -0.931573  0  2.002959  0  0  -0.838649  0  2.278343  0  0  -0.867545  0  2.252975  0  0  -0.382489  -0.817876  0  2.295298  0
O  O116  1  0.38324510  0.44051874  0.30635252  1  0  -0.936523  0  1.993022  0  0  -0.83541  0  2.283772  0  0  -0.865953  0  2.25825  0  0  -0.389578  -0.813812  0  2.30181  0
O  O117  1  0.44051947  0.38324559  0.80635281  1  0  -0.936522  0  1.993007  0  0  -0.835411  0  2.283757  0  0  -0.865958  0  2.258232  0  0  -0.38958  -0.813807  0  2.301806  0
O  O118  1  0.61675581  0.55948203  0.69364809  1  0  -0.936493  0  1.993078  0  0  -0.835396  0  2.283823  0  0  -0.865943  0  2.2583  0  0  -0.389574  -0.813791  0  2.301866  0
O  O119  1  0.55948144  0.61675518  0.19364781  1  0  -0.936528  0  1.993008  0  0  -0.835413  0  2.283734  0  0  -0.865956  0  2.258209  0  0  -0.389569  -0.813811  0  2.301786  0
O  O120  1  0.31558960  0.65033950  0.58004630  1  0  -0.791879  0  2.009673  0  0  -0.719155  0  2.241248  0  0  -0.741074  0  2.214561  0  0  -0.385206  -0.703645  0  2.259357  0
O  O121  1  0.65033932  0.31558998  0.08004729  1  0  -0.791816  0  2.009711  0  0  -0.719085  0  2.241268  0  0  -0.741004  0  2.214583  0  0  -0.385147  -0.703577  0  2.259378  0
O  O122  1  0.68441131  0.34966128  0.41995431  1  0  -0.791795  0  2.009721  0  0  -0.719052  0  2.241294  0  0  -0.740971  0  2.214609  0  0  -0.385172  -0.703542  0  2.259405  0
O  O123  1  0.34966026  0.68440977  0.91995304  1  0  -0.791826  0  2.009705  0  0  -0.71908  0  2.241257  0  0  -0.740996  0  2.214571  0  0  -0.385157  -0.703572  0  2.25936  0
O  O124  1  0.09716873  0.54150540  0.63182502  1  0  -0.775804  0  1.948692  0  0  -0.701053  0  2.173385  0  0  -0.722826  0  2.145909  0  0  -0.384081  -0.685672  0  2.192056  0
O  O125  1  0.54150549  0.09716855  0.13182535  1  0  -0.77582  0  1.948719  0  0  -0.701048  0  2.173393  0  0  -0.722824  0  2.145921  0  0  -0.384103  -0.685665  0  2.192064  0
O  O126  1  0.90283084  0.45849435  0.36817458  1  0  -0.775791  0  1.948728  0  0  -0.701022  0  2.173419  0  0  -0.722795  0  2.145942  0  0  -0.384087  -0.685639  0  2.192087  0
O  O127  1  0.45849315  0.90283119  0.86817414  1  0  -0.775824  0  1.948739  0  0  -0.701038  0  2.173401  0  0  -0.722809  0  2.145919  0  0  -0.384075  -0.68566  0  2.192064  0
O  O128  1  0.20277433  0.26781956  0.37444851  1  0  -0.782115  0  1.976618  0  0  -0.711414  0  2.209864  0  0  -0.732942  0  2.182912  0  0  -0.386528  -0.696225  0  2.228655  0
O  O129  1  0.26781934  0.20277521  0.87444801  1  0  -0.782052  0  1.976677  0  0  -0.711378  0  2.2099  0  0  -0.732907  0  2.182942  0  0  -0.386481  -0.696183  0  2.228691  0
O  O130  1  0.79722564  0.73218121  0.62555126  1  0  -0.782108  0  1.976647  0  0  -0.711411  0  2.209878  0  0  -0.732942  0  2.182919  0  0  -0.386527  -0.696216  0  2.228667  0
O  O131  1  0.73218063  0.79722556  0.12555176  1  0  -0.78207  0  1.976656  0  0  -0.71138  0  2.209877  0  0  -0.732911  0  2.182919  0  0  -0.386486  -0.696183  0  2.228667  0
O  O132  1  0.34418895  0.18956819  0.27878699  1  0  -0.781869  0  1.981321  0  0  -0.708641  0  2.209119  0  0  -0.730488  0  2.182756  0  0  -0.386669  -0.693114  0  2.228083  0
O  O133  1  0.18956913  0.34419064  0.77878651  1  0  -0.781904  0  1.981304  0  0  -0.708692  0  2.209081  0  0  -0.730541  0  2.18271  0  0  -0.386676  -0.693159  0  2.228051  0
O  O134  1  0.65580875  0.81043154  0.72121166  1  0  -0.781819  0  1.981308  0  0  -0.708599  0  2.209139  0  0  -0.730444  0  2.182766  0  0  -0.386661  -0.693068  0  2.228106  0
O  O135  1  0.81043137  0.65580912  0.22121320  1  0  -0.781891  0  1.981278  0  0  -0.708662  0  2.209106  0  0  -0.730509  0  2.182734  0  0  -0.386672  -0.693131  0  2.228073  0
O  O136  1  0.12151820  0.44406340  0.45763809  1  0  -0.901121  0  1.946733  0  0  -0.812791  0  2.183522  0  0  -0.838949  0  2.15976  0  0  -0.365986  -0.794306  0  2.199427  0
O  O137  1  0.44406272  0.12151888  0.95763921  1  0  -0.901091  0  1.946722  0  0  -0.812769  0  2.183501  0  0  -0.838928  0  2.159739  0  0  -0.365977  -0.794279  0  2.199397  0
O  O138  1  0.87848310  0.55593839  0.54236197  1  0  -0.901105  0  1.946775  0  0  -0.812742  0  2.183538  0  0  -0.838902  0  2.159779  0  0  -0.365954  -0.794255  0  2.199442  0
O  O139  1  0.55593765  0.87848290  0.04236074  1  0  -0.901102  0  1.946723  0  0  -0.812775  0  2.183504  0  0  -0.838936  0  2.159747  0  0  -0.365995  -0.794299  0  2.199402  0
