# generated using pymatgen
data_CdH36C38S2(N2O3)2
_symmetry_space_group_name_H-M   'P 1'
_cell_length_a   8.79932709
_cell_length_b   10.83470492
_cell_length_c   11.24885044
_cell_angle_alpha   113.77142309
_cell_angle_beta   93.70718293
_cell_angle_gamma   106.78113443
_symmetry_Int_Tables_number   1
_chemical_formula_structural   CdH36C38S2(N2O3)2
_chemical_formula_sum   'Cd1 H36 C38 S2 N4 O6'
_cell_volume   919.38684239
_cell_formula_units_Z   1
loop_
 _symmetry_equiv_pos_site_id
 _symmetry_equiv_pos_as_xyz
  1  'x, y, z'
loop_
 _atom_site_type_symbol
 _atom_site_label
 _atom_site_symmetry_multiplicity
 _atom_site_fract_x
 _atom_site_fract_y
 _atom_site_fract_z
 _atom_site_occupancy
 _atom_site_hle17_bader_spin_density
 _atom_site_hle17_ddec_charge
 _atom_site_hle17_ddec_spin_density
 _atom_site_hle17_ddec_sum_bond_order
 _atom_site_hle17_magmom
 _atom_site_hse06_10hf_bader_spin_density
 _atom_site_hse06_10hf_ddec_charge
 _atom_site_hse06_10hf_ddec_spin_density
 _atom_site_hse06_10hf_ddec_sum_bond_order
 _atom_site_hse06_10hf_magmom
 _atom_site_hse06_bader_spin_density
 _atom_site_hse06_ddec_charge
 _atom_site_hse06_ddec_spin_density
 _atom_site_hse06_ddec_sum_bond_order
 _atom_site_hse06_magmom
 _atom_site_pbe_bader_spin_density
 _atom_site_pbe_cm5_charge
 _atom_site_pbe_ddec_charge
 _atom_site_pbe_ddec_spin_density
 _atom_site_pbe_ddec_sum_bond_order
 _atom_site_pbe_magmom
Cd  Cd0  1  0.49999956  0.49999968  0.99999973  1  0  1.073437  0  1.797953  0  0  0.864386  0  2.262666  0  0  0.915619  0  2.218255  0  0  0.804216  0.826581  0  2.293695  0
H  H1  1  0.99426387  0.15889222  0.16778440  1  0  0.114342  0  0.944444  0  0  0.124791  0  1.003152  0  0  0.128185  0  1.001053  0  0  0.111873  0.122376  0  1.00461  0
H  H2  1  0.00573199  0.84111629  0.83222500  1  0  0.114364  0  0.94448  0  0  0.124811  0  1.003189  0  0  0.128206  0  1.00109  0  0  0.111864  0.1224  0  1.004635  0
H  H3  1  0.43008204  0.52026210  0.39009420  1  0  0.095379  0  0.972349  0  0  0.105585  0  1.035205  0  0  0.107922  0  1.035217  0  0  0.101844  0.103916  0  1.035187  0
H  H4  1  0.56991908  0.47974243  0.60990579  1  0  0.095371  0  0.972311  0  0  0.105586  0  1.035184  0  0  0.107908  0  1.035212  0  0  0.101833  0.103918  0  1.035165  0
H  H5  1  0.28152941  0.63500042  0.54987719  1  0  0.104908  0  0.958298  0  0  0.116487  0  1.015356  0  0  0.120077  0  1.012918  0  0  0.103723  0.11385  0  1.017344  0
H  H6  1  0.71848021  0.36500842  0.45013025  1  0  0.104804  0  0.958286  0  0  0.116432  0  1.015303  0  0  0.120013  0  1.012878  0  0  0.1037  0.113794  0  1.017293  0
H  H7  1  0.83964587  0.27381193  0.32531778  1  0  0.09983  0  0.952128  0  0  0.114272  0  1.004101  0  0  0.117656  0  1.002123  0  0  0.105508  0.111803  0  1.005704  0
H  H8  1  0.16035769  0.72619876  0.67469727  1  0  0.099811  0  0.952047  0  0  0.114238  0  1.004058  0  0  0.117619  0  1.002085  0  0  0.105502  0.111771  0  1.005655  0
H  H9  1  0.32058644  0.46781143  0.72673919  1  0  0.082331  0  0.944438  0  0  0.090026  0  1.011046  0  0  0.092172  0  1.009017  0  0  0.116677  0.088378  0  1.012599  0
H  H10  1  0.67941728  0.53218454  0.27326098  1  0  0.082318  0  0.944524  0  0  0.090023  0  1.011118  0  0  0.092166  0  1.00909  0  0  0.116665  0.088375  0  1.012678  0
H  H11  1  0.22172509  0.29818541  0.48689064  1  0  0.101054  0  1.006149  0  0  0.109319  0  1.071358  0  0  0.110136  0  1.07529  0  0  0.101708  0.108616  0  1.0689  0
H  H12  1  0.77828018  0.70181163  0.51311093  1  0  0.101073  0  1.006149  0  0  0.109372  0  1.071316  0  0  0.110192  0  1.075241  0  0  0.101692  0.108669  0  1.068858  0
H  H13  1  0.37600297  0.99227545  0.56946957  1  0  0.107965  0  0.941283  0  0  0.121384  0  0.994866  0  0  0.124481  0  0.994433  0  0  0.109059  0.119014  0  0.995659  0
H  H14  1  0.62399196  0.00771813  0.43053282  1  0  0.107903  0  0.941236  0  0  0.121367  0  0.994779  0  0  0.124466  0  0.994342  0  0  0.109002  0.118997  0  0.995573  0
H  H15  1  0.46063247  0.17130980  0.80815586  1  0  0.080387  0  0.933973  0  0  0.090832  0  0.992681  0  0  0.092896  0  0.991204  0  0  0.119059  0.089404  0  0.993592  0
H  H16  1  0.53935938  0.82868154  0.19184728  1  0  0.080451  0  0.934006  0  0  0.090896  0  0.992697  0  0  0.09296  0  0.991218  0  0  0.1191  0.089468  0  0.993607  0
H  H17  1  0.30208750  0.95128677  0.33709823  1  0  0.072918  0  0.947279  0  0  0.088798  0  1.009223  0  0  0.089562  0  1.010157  0  0  0.090224  0.088205  0  1.008651  0
H  H18  1  0.69791584  0.04871140  0.66289927  1  0  0.072962  0  0.94724  0  0  0.08883  0  1.009189  0  0  0.089596  0  1.010122  0  0  0.090261  0.088238  0  1.008618  0
H  H19  1  0.26547836  0.08625415  0.30198990  1  0  0.097101  0  0.948135  0  0  0.111509  0  1.010842  0  0  0.11257  0  1.010904  0  0  0.097937  0.110674  0  1.010879  0
H  H20  1  0.73452618  0.91374716  0.69801249  1  0  0.097106  0  0.948141  0  0  0.11151  0  1.010848  0  0  0.112572  0  1.010911  0  0  0.097911  0.110675  0  1.010887  0
H  H21  1  0.98723453  0.02052268  0.36028630  1  0  0.061549  0  0.941042  0  0  0.080911  0  1.002517  0  0  0.081018  0  1.00432  0  0  0.088151  0.080805  0  1.001304  0
H  H22  1  0.01276765  0.97947551  0.63970938  1  0  0.061527  0  0.941009  0  0  0.080854  0  1.002544  0  0  0.08096  0  1.004349  0  0  0.088129  0.080748  0  1.001331  0
H  H23  1  0.02514397  0.87842577  0.38064807  1  0  0.053078  0  0.950463  0  0  0.070442  0  1.015866  0  0  0.071053  0  1.017038  0  0  0.08341  0.070045  0  1.014941  0
H  H24  1  0.97485204  0.12156808  0.61934381  1  0  0.053075  0  0.950484  0  0  0.070423  0  1.015912  0  0  0.071033  0  1.017084  0  0  0.083396  0.070026  0  1.014987  0
H  H25  1  0.86379426  0.78477171  0.15568971  1  0  0.094097  0  0.956887  0  0  0.107637  0  1.021973  0  0  0.108576  0  1.022505  0  0  0.094653  0.106933  0  1.021564  0
H  H26  1  0.13620947  0.21523087  0.84430338  1  0  0.094055  0  0.956987  0  0  0.107652  0  1.022028  0  0  0.10859  0  1.022562  0  0  0.094642  0.106948  0  1.021621  0
H  H27  1  0.99903576  0.91931014  0.12558707  1  0  0.100068  0  0.933608  0  0  0.115104  0  0.994842  0  0  0.116454  0  0.994255  0  0  0.098516  0.114049  0  0.995386  0
H  H28  1  0.00096798  0.08069241  0.87440778  1  0  0.100099  0  0.93357  0  0  0.115146  0  0.994813  0  0  0.116496  0  0.994225  0  0  0.098532  0.114091  0  0.995359  0
H  H29  1  0.18966733  0.85807735  0.99979563  1  0  0.12827  0  0.960992  0  0  0.139683  0  1.016805  0  0  0.14284  0  1.015834  0  0  0.110717  0.137188  0  1.018165  0
H  H30  1  0.81033406  0.14192202  0.00019516  1  0  0.128317  0  0.961012  0  0  0.139701  0  1.01686  0  0  0.142853  0  1.015883  0  0  0.110721  0.137205  0  1.018219  0
H  H31  1  0.35437539  0.70125177  0.91288020  1  0  0.081472  0  0.984133  0  0  0.088496  0  1.05095  0  0  0.091415  0  1.047716  0  0  0.110004  0.086298  0  1.053301  0
H  H32  1  0.64562523  0.29874541  0.08711145  1  0  0.081538  0  0.984143  0  0  0.088547  0  1.050966  0  0  0.091456  0  1.047745  0  0  0.110022  0.08635  0  1.053315  0
H  H33  1  0.19805131  0.48442083  0.13804336  1  0  0.073365  0  0.981245  0  0  0.080573  0  1.049598  0  0  0.08184  0  1.049601  0  0  0.107582  0.079622  0  1.049694  0
H  H34  1  0.80195054  0.51558271  0.86195359  1  0  0.073366  0  0.981292  0  0  0.080578  0  1.049626  0  0  0.081834  0  1.049659  0  0  0.107557  0.079619  0  1.049726  0
H  H35  1  0.02135411  0.62777762  0.22910806  1  0  0.103981  0  0.940775  0  0  0.116914  0  0.997087  0  0  0.119511  0  0.997517  0  0  0.104893  0.115096  0  0.996884  0
H  H36  1  0.97864578  0.37222383  0.77088441  1  0  0.103937  0  0.94067  0  0  0.116895  0  0.996962  0  0  0.119493  0  0.997391  0  0  0.104901  0.115077  0  0.996761  0
C  C37  1  0.05511381  0.26457814  0.25069379  1  0  -0.068819  0  3.758598  0  0  -0.094277  0  4.010696  0  0  -0.093291  0  4.030174  0  0  -0.084686  -0.094721  0  3.997737  0
C  C38  1  0.94488701  0.73542827  0.74931763  1  0  -0.068916  0  3.758614  0  0  -0.094345  0  4.010729  0  0  -0.093348  0  4.030181  0  0  -0.084761  -0.094788  0  3.997764  0
C  C39  1  0.29992532  0.46776724  0.37478965  1  0  -0.063527  0  3.764211  0  0  -0.087985  0  4.013658  0  0  -0.086782  0  4.032408  0  0  -0.087863  -0.088532  0  4.001039  0
C  C40  1  0.70007817  0.53224039  0.62521793  1  0  -0.063525  0  3.76416  0  0  -0.087986  0  4.01365  0  0  -0.086772  0  4.032403  0  0  -0.087821  -0.08853  0  4.00103  0
C  C41  1  0.21373089  0.53268668  0.46520906  1  0  -0.112257  0  3.714697  0  0  -0.130256  0  3.962207  0  0  -0.133175  0  3.980543  0  0  -0.088893  -0.128206  0  3.949802  0
C  C42  1  0.78627528  0.46732208  0.53479821  1  0  -0.112267  0  3.714702  0  0  -0.1303  0  3.962225  0  0  -0.133212  0  3.980564  0  0  -0.088923  -0.128249  0  3.94982  0
C  C43  1  0.04576160  0.46579248  0.45105883  1  0  0.044532  0  3.773802  0  0  0.057531  0  4.009065  0  0  0.059024  0  4.03188  0  0  -0.009139  0.056543  0  3.993444  0
C  C44  1  0.95424379  0.53421078  0.54895328  1  0  0.044938  0  3.773584  0  0  0.057906  0  4.008853  0  0  0.059398  0  4.031669  0  0  -0.009016  0.056916  0  3.993234  0
C  C45  1  0.96909761  0.33045373  0.34133396  1  0  -0.111256  0  3.720018  0  0  -0.129913  0  3.968642  0  0  -0.133137  0  3.988117  0  0  -0.087761  -0.127822  0  3.955543  0
C  C46  1  0.03090552  0.66955266  0.65868022  1  0  -0.111309  0  3.719759  0  0  -0.129952  0  3.968379  0  0  -0.133176  0  3.987861  0  0  -0.087728  -0.127861  0  3.955284  0
C  C47  1  0.22120894  0.33335102  0.26691197  1  0  -0.123955  0  3.740294  0  0  -0.095386  0  3.983725  0  0  -0.101788  0  4.003604  0  0  -0.020874  -0.091728  0  3.97114  0
C  C48  1  0.77879182  0.66665229  0.73309374  1  0  -0.123944  0  3.740206  0  0  -0.095461  0  3.98378  0  0  -0.10186  0  4.003656  0  0  -0.020923  -0.091809  0  3.971203  0
C  C49  1  0.32742490  0.36003997  0.68861698  1  0  0.12543  0  3.728132  0  0  0.094209  0  3.98407  0  0  0.101866  0  4.001321  0  0  0.044464  0.089286  0  3.97225  0
C  C50  1  0.67257613  0.63995486  0.31138351  1  0  0.125421  0  3.728066  0  0  0.094199  0  3.984025  0  0  0.101855  0  4.001281  0  0  0.044466  0.08927  0  3.97221  0
C  C51  1  0.27437392  0.26565910  0.55455958  1  0  -0.174151  0  3.700831  0  0  -0.189218  0  3.943068  0  0  -0.197608  0  3.96547  0  0  -0.085047  -0.18352  0  3.927825  0
C  C52  1  0.72562790  0.73433790  0.44544093  1  0  -0.174205  0  3.700741  0  0  -0.189301  0  3.942994  0  0  -0.197694  0  3.965398  0  0  -0.085042  -0.183603  0  3.927753  0
C  C53  1  0.29265626  0.13083116  0.50683063  1  0  0.170055  0  3.719922  0  0  0.186296  0  3.953701  0  0  0.19228  0  3.974731  0  0  0.019509  0.182381  0  3.939249  0
C  C54  1  0.70734207  0.86916259  0.49316753  1  0  0.170039  0  3.719997  0  0  0.186268  0  3.953793  0  0  0.192254  0  3.974822  0  0  0.019488  0.182353  0  3.93934  0
C  C55  1  0.36054830  0.09639137  0.60024995  1  0  -0.188768  0  3.719923  0  0  -0.204876  0  3.965274  0  0  -0.213365  0  3.986036  0  0  -0.087208  -0.199569  0  3.951687  0
C  C56  1  0.63944852  0.90360122  0.39975034  1  0  -0.18865  0  3.719898  0  0  -0.204786  0  3.965214  0  0  -0.213274  0  3.985973  0  0  -0.087121  -0.199479  0  3.951625  0
C  C57  1  0.40878560  0.19588749  0.73325802  1  0  0.140455  0  3.722187  0  0  0.108939  0  3.975375  0  0  0.117116  0  3.993359  0  0  0.048486  0.103571  0  3.963045  0
C  C58  1  0.59120891  0.80410508  0.26674128  1  0  0.140304  0  3.722251  0  0  0.108789  0  3.975451  0  0  0.116967  0  3.993434  0  0  0.048392  0.103423  0  3.963116  0
C  C59  1  0.23661876  0.02793252  0.36269629  1  0  -0.175136  0  3.703208  0  0  -0.214145  0  3.947889  0  0  -0.216095  0  3.959891  0  0  -0.163426  -0.212585  0  3.939348  0
C  C60  1  0.76338384  0.97206667  0.63730337  1  0  -0.175222  0  3.703201  0  0  -0.214193  0  3.94786  0  0  -0.216148  0  3.959869  0  0  -0.163441  -0.212633  0  3.939322  0
C  C61  1  0.05315804  0.94456524  0.32664332  1  0  -0.08211  0  3.670648  0  0  -0.122661  0  3.93084  0  0  -0.124233  0  3.945899  0  0  -0.160234  -0.121301  0  3.920093  0
C  C62  1  0.94684298  0.05543297  0.67335054  1  0  -0.081956  0  3.670537  0  0  -0.122501  0  3.93079  0  0  -0.124072  0  3.945853  0  0  -0.160161  -0.121142  0  3.920047  0
C  C63  1  0.99213088  0.85071780  0.17643310  1  0  -0.173852  0  3.672248  0  0  -0.213746  0  3.916662  0  0  -0.215325  0  3.928155  0  0  -0.161646  -0.212624  0  3.908779  0
C  C64  1  0.00787361  0.14928371  0.82356048  1  0  -0.173993  0  3.672136  0  0  -0.213935  0  3.916589  0  0  -0.215514  0  3.928085  0  0  -0.161699  -0.212813  0  3.90871  0
C  C65  1  0.08855792  0.75479865  0.11990752  1  0  0.167502  0  3.705687  0  0  0.184603  0  3.93985  0  0  0.190507  0  3.961124  0  0  0.0161  0.180913  0  3.925326  0
C  C66  1  0.91144079  0.24519958  0.88008358  1  0  0.167536  0  3.705635  0  0  0.184655  0  3.939801  0  0  0.190557  0  3.961071  0  0  0.016072  0.180966  0  3.925281  0
C  C67  1  0.18375715  0.77283701  0.02917148  1  0  -0.169492  0  3.685261  0  0  -0.18707  0  3.926782  0  0  -0.196406  0  3.949708  0  0  -0.081758  -0.181243  0  3.912052  0
C  C68  1  0.81624158  0.22716116  0.97082226  1  0  -0.169532  0  3.685438  0  0  -0.187095  0  3.926941  0  0  -0.196416  0  3.949857  0  0  -0.081757  -0.181266  0  3.91221  0
C  C69  1  0.27760489  0.68696293  0.98215087  1  0  0.112945  0  3.734788  0  0  0.083792  0  3.986357  0  0  0.090958  0  4.005125  0  0  0.035024  0.079173  0  3.973627  0
C  C70  1  0.72239652  0.31303640  0.01784168  1  0  0.112853  0  3.735053  0  0  0.083718  0  3.986598  0  0  0.090889  0  4.005372  0  0  0.035038  0.079101  0  3.973867  0
C  C71  1  0.19075132  0.56716438  0.10873854  1  0  0.121191  0  3.746045  0  0  0.088881  0  4.001721  0  0  0.096333  0  4.021613  0  0  0.033507  0.083995  0  3.988188  0
C  C72  1  0.80925129  0.43283806  0.89125978  1  0  0.121038  0  3.746004  0  0  0.088734  0  4.001681  0  0  0.096182  0  4.021571  0  0  0.033458  0.083855  0  3.988152  0
C  C73  1  0.09301524  0.64806138  0.15911199  1  0  -0.174977  0  3.709773  0  0  -0.192196  0  3.956958  0  0  -0.200559  0  3.978603  0  0  -0.087777  -0.186675  0  3.942304  0
C  C74  1  0.90698464  0.35193680  0.84088181  1  0  -0.174843  0  3.709529  0  0  -0.192094  0  3.956721  0  0  -0.200455  0  3.978365  0  0  -0.087718  -0.186574  0  3.942067  0
S  S75  1  0.33385683  0.25022212  0.15166054  1  0  1.291095  0  5.699711  0  0  1.195744  0  6.225787  0  0  1.245221  0  6.199239  0  0  0.497652  1.161573  0  6.24268  0
S  S76  1  0.66613319  0.74978000  0.84834069  1  0  1.290918  0  5.699799  0  0  1.19556  0  6.225926  0  0  1.245036  0  6.19938  0  0  0.497564  1.161389  0  6.242818  0
N  N77  1  0.39457997  0.32655315  0.77715671  1  0  -0.346092  0  3.27017  0  0  -0.270874  0  3.539026  0  0  -0.290717  0  3.557571  0  0  -0.335634  -0.257221  0  3.526114  0
N  N78  1  0.60541494  0.67344047  0.22284392  1  0  -0.346017  0  3.270137  0  0  -0.270807  0  3.539  0  0  -0.290651  0  3.55755  0  0  -0.335588  -0.257155  0  3.526088  0
N  N79  1  0.28262048  0.58604499  0.02184212  1  0  -0.360726  0  3.281709  0  0  -0.284576  0  3.553451  0  0  -0.305185  0  3.572926  0  0  -0.342015  -0.269928  0  3.539585  0
N  N80  1  0.71737827  0.41395311  0.97815427  1  0  -0.360599  0  3.281752  0  0  -0.284447  0  3.553474  0  0  -0.305054  0  3.572948  0  0  -0.34199  -0.269798  0  3.539605  0
O  O81  1  0.23294110  0.09908238  0.07794880  1  0  -0.649997  0  1.931192  0  0  -0.609413  0  2.176595  0  0  -0.629143  0  2.161589  0  0  -0.344215  -0.595246  0  2.186386  0
O  O82  1  0.76705046  0.90092083  0.92205294  1  0  -0.649914  0  1.931192  0  0  -0.609321  0  2.176596  0  0  -0.629048  0  2.161587  0  0  -0.344161  -0.595152  0  2.186385  0
O  O83  1  0.35373794  0.32535254  0.06522257  1  0  -0.716234  0  2.033921  0  0  -0.650103  0  2.318448  0  0  -0.67402  0  2.301057  0  0  -0.363944  -0.632459  0  2.329415  0
O  O84  1  0.64625513  0.67464855  0.93477925  1  0  -0.716212  0  2.034083  0  0  -0.650024  0  2.318536  0  0  -0.673941  0  2.301152  0  0  -0.363868  -0.632378  0  2.329497  0
O  O85  1  0.48898463  0.27922233  0.23270288  1  0  -0.67074  0  1.895276  0  0  -0.628338  0  2.132962  0  0  -0.648727  0  2.118397  0  0  -0.360293  -0.613702  0  2.1422  0
O  O86  1  0.51100646  0.72077343  0.76729491  1  0  -0.670668  0  1.895286  0  0  -0.628253  0  2.132965  0  0  -0.648649  0  2.118417  0  0  -0.36027  -0.613616  0  2.142201  0
