# generated using pymatgen
data_ZnH14C16(NO)5
_symmetry_space_group_name_H-M   'P 1'
_cell_length_a   9.71091056
_cell_length_b   10.28052444
_cell_length_c   11.30531218
_cell_angle_alpha   117.10680199
_cell_angle_beta   97.08641915
_cell_angle_gamma   110.21693703
_symmetry_Int_Tables_number   1
_chemical_formula_structural   ZnH14C16(NO)5
_chemical_formula_sum   'Zn2 H28 C32 N10 O10'
_cell_volume   887.90085235
_cell_formula_units_Z   2
loop_
 _symmetry_equiv_pos_site_id
 _symmetry_equiv_pos_as_xyz
  1  'x, y, z'
loop_
 _atom_site_type_symbol
 _atom_site_label
 _atom_site_symmetry_multiplicity
 _atom_site_fract_x
 _atom_site_fract_y
 _atom_site_fract_z
 _atom_site_occupancy
 _atom_site_hle17_bader_spin_density
 _atom_site_hle17_ddec_charge
 _atom_site_hle17_ddec_spin_density
 _atom_site_hle17_ddec_sum_bond_order
 _atom_site_hle17_magmom
 _atom_site_hse06_10hf_bader_spin_density
 _atom_site_hse06_10hf_ddec_charge
 _atom_site_hse06_10hf_ddec_spin_density
 _atom_site_hse06_10hf_ddec_sum_bond_order
 _atom_site_hse06_10hf_magmom
 _atom_site_hse06_bader_spin_density
 _atom_site_hse06_ddec_charge
 _atom_site_hse06_ddec_spin_density
 _atom_site_hse06_ddec_sum_bond_order
 _atom_site_hse06_magmom
 _atom_site_pbe_bader_spin_density
 _atom_site_pbe_cm5_charge
 _atom_site_pbe_ddec_charge
 _atom_site_pbe_ddec_spin_density
 _atom_site_pbe_ddec_sum_bond_order
 _atom_site_pbe_magmom
Zn  Zn0  1  0.40716259  0.39300837  0.25134059  1  0  1.010451  0  1.884172  0  0  0.826541  0  2.356573  0  0  0.87168  0  2.302241  0  0  0.698488  0.791258  0  2.397725  0
Zn  Zn1  1  0.59283487  0.60699320  0.74865916  1  0  1.010489  0  1.884222  0  0  0.826571  0  2.356647  0  0  0.871689  0  2.302307  0  0  0.698473  0.79128  0  2.397795  0
H  H2  1  0.40769417  0.87393843  0.19582197  1  0  0.107002  0  0.954428  0  0  0.113997  0  1.02178  0  0  0.118725  0  1.0173  0  0  0.102398  0.110454  0  1.025475  0
H  H3  1  0.59231012  0.12606937  0.80418902  1  0  0.106966  0  0.954467  0  0  0.114013  0  1.02176  0  0  0.118742  0  1.017278  0  0  0.102396  0.110466  0  1.025449  0
H  H4  1  0.21999146  0.15461150  0.47393570  1  0  0.113387  0  0.971359  0  0  0.120583  0  1.041579  0  0  0.124102  0  1.039386  0  0  0.106591  0.11783  0  1.043679  0
H  H5  1  0.78000861  0.84539377  0.52606673  1  0  0.113408  0  0.971329  0  0  0.120591  0  1.041562  0  0  0.12411  0  1.03937  0  0  0.106595  0.117869  0  1.043628  0
H  H6  1  0.27142790  0.76642706  0.50232199  1  0  0.124157  0  0.935694  0  0  0.134154  0  0.995472  0  0  0.138441  0  0.992248  0  0  0.110985  0.131065  0  0.997825  0
H  H7  1  0.72855971  0.23356583  0.49767583  1  0  0.124116  0  0.935641  0  0  0.134116  0  0.995419  0  0  0.138402  0  0.992198  0  0  0.110973  0.131028  0  0.997774  0
H  H8  1  0.05547994  0.12413721  0.63152100  1  0  0.067592  0  0.938683  0  0  0.073965  0  1.011287  0  0  0.074098  0  1.010558  0  0  0.12009  0.073112  0  1.013338  0
H  H9  1  0.94451754  0.87586437  0.36848142  1  0  0.067563  0  0.938682  0  0  0.073931  0  1.011305  0  0  0.074072  0  1.010547  0  0  0.120095  0.073075  0  1.01335  0
H  H10  1  0.26622153  0.23586676  0.69118590  1  0  0.078427  0  0.949688  0  0  0.08576  0  1.020721  0  0  0.085394  0  1.021091  0  0  0.12687  0.084975  0  1.022259  0
H  H11  1  0.73377650  0.76413117  0.30881506  1  0  0.078339  0  0.949711  0  0  0.085684  0  1.020738  0  0  0.085313  0  1.021106  0  0  0.126857  0.084898  0  1.022273  0
H  H12  1  0.04792475  0.13340945  0.05287102  1  0  0.098085  0  0.927014  0  0  0.108862  0  0.984523  0  0  0.110492  0  0.983136  0  0  0.143635  0.107516  0  0.985481  0
H  H13  1  0.95207593  0.86658243  0.94712858  1  0  0.098036  0  0.927134  0  0  0.108797  0  0.984643  0  0  0.110429  0  0.983256  0  0  0.143631  0.107453  0  0.9856  0
H  H14  1  0.41615004  0.34588982  0.93483879  1  0  0.126933  0  0.961811  0  0  0.133544  0  1.030806  0  0  0.136503  0  1.02605  0  0  0.146397  0.130836  0  1.034784  0
H  H15  1  0.58384745  0.65411176  0.06516362  1  0  0.126929  0  0.9618  0  0  0.133538  0  1.0308  0  0  0.136501  0  1.026039  0  0  0.146397  0.130832  0  1.034764  0
H  H16  1  0.60946792  0.31468915  0.04666358  1  0  0.10311  0  0.933854  0  0  0.114832  0  0.995139  0  0  0.117255  0  0.991711  0  0  0.143786  0.112823  0  0.99789  0
H  H17  1  0.39053214  0.68531612  0.95333797  1  0  0.103084  0  0.933917  0  0  0.114843  0  0.995153  0  0  0.117265  0  0.991726  0  0  0.143792  0.11283  0  0.997905  0
H  H18  1  0.00657184  0.58030057  0.41102152  1  0  0.120344  0  0.96079  0  0  0.130661  0  1.021084  0  0  0.133283  0  1.019893  0  0  0.126013  0.128623  0  1.022102  0
H  H19  1  0.99343447  0.41970235  0.58897704  1  0  0.12035  0  0.960703  0  0  0.13066  0  1.021009  0  0  0.13328  0  1.019819  0  0  0.126012  0.128623  0  1.02203  0
H  H20  1  0.74610873  0.58559064  0.49203900  1  0  0.130402  0  0.957749  0  0  0.138746  0  1.015817  0  0  0.142493  0  1.0129  0  0  0.123474  0.135897  0  1.018384  0
H  H21  1  0.25390015  0.41442330  0.50796615  1  0  0.130377  0  0.957686  0  0  0.138726  0  1.015748  0  0  0.142473  0  1.012832  0  0  0.123471  0.135879  0  1.018314  0
H  H22  1  0.86963224  0.27922701  0.02801523  1  0  0.085678  0  0.919411  0  0  0.10003  0  0.983626  0  0  0.100689  0  0.983722  0  0  0.11343  0.099501  0  0.983528  0
H  H23  1  0.13036113  0.72076231  0.97198169  1  0  0.085729  0  0.919411  0  0  0.100066  0  0.983634  0  0  0.100726  0  0.983729  0  0  0.113428  0.099535  0  0.983535  0
H  H24  1  0.04120399  0.43619487  0.17658155  1  0  0.083277  0  0.9205  0  0  0.099801  0  0.980901  0  0  0.100571  0  0.980852  0  0  0.11351  0.099041  0  0.98129  0
H  H25  1  0.95879404  0.56379817  0.82341473  1  0  0.083248  0  0.920503  0  0  0.099775  0  0.980893  0  0  0.100543  0  0.980845  0  0  0.113509  0.099015  0  0.981282  0
H  H26  1  0.01515277  0.64777227  0.13660383  1  0  0.07494  0  0.943723  0  0  0.089596  0  1.010366  0  0  0.089777  0  1.012807  0  0  0.091168  0.089285  0  1.008987  0
H  H27  1  0.98484472  0.35221465  0.86338278  1  0  0.074989  0  0.94358  0  0  0.08964  0  1.010243  0  0  0.089823  0  1.012683  0  0  0.091224  0.089324  0  1.008863  0
H  H28  1  0.83897081  0.49467610  0.99323093  1  0  0.072564  0  0.946198  0  0  0.08888  0  1.011391  0  0  0.088828  0  1.013544  0  0  0.09091  0.088631  0  1.010324  0
H  H29  1  0.16103192  0.50531336  0.00676168  1  0  0.072604  0  0.946163  0  0  0.08894  0  1.011332  0  0  0.088889  0  1.013485  0  0  0.090951  0.088685  0  1.010264  0
C  C30  1  0.34122973  0.80319792  0.34147436  1  0  -0.049614  0  3.788256  0  0  -0.021491  0  4.019041  0  0  -0.029016  0  4.043687  0  0  -0.02087  -0.016388  0  4.003203  0
C  C31  1  0.65876149  0.19680111  0.65852372  1  0  -0.049483  0  3.788247  0  0  -0.02138  0  4.019053  0  0  -0.028905  0  4.043698  0  0  -0.020922  -0.016279  0  4.003217  0
C  C32  1  0.35805282  0.89670235  0.28012034  1  0  -0.098454  0  3.718978  0  0  -0.136951  0  3.968417  0  0  -0.136568  0  3.987767  0  0  -0.090693  -0.138105  0  3.957025  0
C  C33  1  0.64194360  0.10330408  0.71988398  1  0  -0.098519  0  3.718821  0  0  -0.137089  0  3.968234  0  0  -0.13671  0  3.987592  0  0  -0.090707  -0.138232  0  3.956833  0
C  C34  1  0.31479994  0.02270064  0.32892916  1  0  -0.021975  0  3.767976  0  0  0.00169  0  4.004971  0  0  -0.00408  0  4.026402  0  0  -0.013879  0.00541  0  3.991538  0
C  C35  1  0.68520274  0.97730589  0.67107407  1  0  -0.022015  0  3.767875  0  0  0.00177  0  4.004761  0  0  -0.003998  0  4.026194  0  0  -0.013895  0.005488  0  3.991335  0
C  C36  1  0.25385424  0.05630458  0.43943797  1  0  -0.195356  0  3.722462  0  0  -0.232313  0  3.979475  0  0  -0.233915  0  3.997098  0  0  -0.102267  -0.231039  0  3.968588  0
C  C37  1  0.74614900  0.94370076  0.56056924  1  0  -0.195285  0  3.722539  0  0  -0.232279  0  3.979593  0  0  -0.23388  0  3.997219  0  0  -0.102247  -0.231032  0  3.968685  0
C  C38  1  0.23686441  0.96218900  0.49985178  1  0  0.251815  0  3.829175  0  0  0.247567  0  4.09734  0  0  0.255691  0  4.113658  0  0  0.075519  0.241958  0  4.085482  0
C  C39  1  0.76313048  0.03780888  0.50014795  1  0  0.251785  0  3.828983  0  0  0.247466  0  4.097218  0  0  0.255587  0  4.113537  0  0  0.075517  0.241858  0  4.085366  0
C  C40  1  0.28045289  0.83585431  0.45168233  1  0  -0.171171  0  3.707357  0  0  -0.209495  0  3.965797  0  0  -0.210664  0  3.983164  0  0  -0.09434  -0.207884  0  3.953273  0
C  C41  1  0.71954357  0.16414726  0.54832263  1  0  -0.1712  0  3.707301  0  0  -0.209495  0  3.965754  0  0  -0.210666  0  3.983125  0  0  -0.094332  -0.207883  0  3.953227  0
C  C42  1  0.38989179  0.66922815  0.28940824  1  0  0.637004  0  3.93018  0  0  0.589719  0  4.221314  0  0  0.623257  0  4.214762  0  0  0.197677  0.566332  0  4.225588  0
C  C43  1  0.61009479  0.33076473  0.71059124  1  0  0.637017  0  3.930298  0  0  0.589743  0  4.221439  0  0  0.623284  0  4.214886  0  0  0.197801  0.566355  0  4.225718  0
C  C44  1  0.33540441  0.12183924  0.26197056  1  0  0.629639  0  3.93297  0  0  0.582544  0  4.224642  0  0  0.615544  0  4.21843  0  0  0.191643  0.559872  0  4.227947  0
C  C45  1  0.66460922  0.87817113  0.73803713  1  0  0.629751  0  3.933002  0  0  0.582516  0  4.224789  0  0  0.615507  0  4.218588  0  0  0.191617  0.559844  0  4.228097  0
C  C46  1  0.16649159  0.13453314  0.68129031  1  0  0.166496  0  3.624863  0  0  0.086256  0  3.889642  0  0  0.100465  0  3.892124  0  0  0.048934  0.071028  0  3.884393  0
C  C47  1  0.83350640  0.86546966  0.31871090  1  0  0.166593  0  3.624944  0  0  0.086325  0  3.889724  0  0  0.100537  0  3.892194  0  0  0.048939  0.071139  0  3.884474  0
C  C48  1  0.11387026  0.16274905  0.99023660  1  0  0.197696  0  3.698091  0  0  0.146254  0  3.985547  0  0  0.156588  0  3.998025  0  0  0.155682  0.138262  0  3.979375  0
C  C49  1  0.88612779  0.83724644  0.00976335  1  0  0.197745  0  3.698312  0  0  0.146348  0  3.985762  0  0  0.156684  0  3.998241  0  0  0.155663  0.13836  0  3.979577  0
C  C50  1  0.30478883  0.27615716  0.93779975  1  0  0.192186  0  3.600304  0  0  0.119359  0  3.867993  0  0  0.137394  0  3.876044  0  0  0.176007  0.101726  0  3.855771  0
C  C51  1  0.69520870  0.72383710  0.06219964  1  0  0.19222  0  3.600364  0  0  0.119425  0  3.868011  0  0  0.137443  0  3.876071  0  0  0.176058  0.10183  0  3.855815  0
C  C52  1  0.67961525  0.38946843  0.15749666  1  0  0.171794  0  3.636113  0  0  0.109571  0  3.896112  0  0  0.123515  0  3.908505  0  0  0.14952  0.100489  0  3.88722  0
C  C53  1  0.32039207  0.61054182  0.84250504  1  0  0.171885  0  3.636047  0  0  0.109651  0  3.896024  0  0  0.123595  0  3.908416  0  0  0.149575  0.100568  0  3.887136  0
C  C54  1  0.88556743  0.52761724  0.34955986  1  0  -0.070095  0  3.675063  0  0  -0.111211  0  3.928712  0  0  -0.110061  0  3.948346  0  0  0.002282  -0.111698  0  3.915225  0
C  C55  1  0.11443574  0.47238806  0.65043937  1  0  -0.070055  0  3.674899  0  0  -0.111161  0  3.928551  0  0  -0.110009  0  3.948183  0  0  0.002302  -0.111654  0  3.915073  0
C  C56  1  0.75693752  0.52914014  0.38807171  1  0  0.0009  0  3.714234  0  0  -0.030795  0  3.976122  0  0  -0.029153  0  3.994791  0  0  0.001554  -0.032059  0  3.963574  0
C  C57  1  0.24306514  0.47086638  0.61192974  1  0  0.000971  0  3.713999  0  0  -0.030714  0  3.975884  0  0  -0.029071  0  3.994548  0  0  0.001564  -0.031977  0  3.963335  0
C  C58  1  0.92929383  0.41008105  0.11231389  1  0  0.000964  0  3.602846  0  0  -0.06138  0  3.861057  0  0  -0.05721  0  3.872024  0  0  -0.047415  -0.06427  0  3.85375  0
C  C59  1  0.07070574  0.58991323  0.88768040  1  0  0.001051  0  3.602831  0  0  -0.061256  0  3.861029  0  0  -0.057087  0  3.872004  0  0  -0.04737  -0.064148  0  3.853706  0
C  C60  1  0.95368933  0.51770418  0.05019005  1  0  -0.13036  0  3.674176  0  0  -0.169778  0  3.935994  0  0  -0.172013  0  3.951674  0  0  -0.166471  -0.168213  0  3.925735  0
C  C61  1  0.04631130  0.48228524  0.94980056  1  0  -0.130414  0  3.673932  0  0  -0.169891  0  3.935797  0  0  -0.172128  0  3.951479  0  0  -0.166517  -0.168295  0  3.925513  0
N  N62  1  0.17641161  0.17168525  0.82205323  1  0  0.015976  0  3.570186  0  0  0.107274  0  3.800639  0  0  0.090935  0  3.824322  0  0  -0.13548  0.1417  0  3.747346  0
N  N63  1  0.82358592  0.82831145  0.17794805  1  0  0.015926  0  3.570344  0  0  0.107253  0  3.800733  0  0  0.090933  0  3.824416  0  0  -0.135536  0.141551  0  3.747614  0
N  N64  1  0.05281758  0.09790270  0.85328367  1  0  -0.239561  0  2.824635  0  0  -0.236675  0  3.099291  0  0  -0.241189  0  3.112062  0  0  -0.209743  -0.239799  0  3.083624  0
N  N65  1  0.94717889  0.90209398  0.14671573  1  0  -0.239586  0  2.824684  0  0  -0.236701  0  3.099296  0  0  -0.241231  0  3.112075  0  0  -0.209714  -0.239787  0  3.083658  0
N  N66  1  0.26839821  0.27296424  0.04641985  1  0  -0.391673  0  3.277275  0  0  -0.312394  0  3.577322  0  0  -0.333598  0  3.585599  0  0  -0.340802  -0.298988  0  3.573839  0
N  N67  1  0.73160036  0.72703004  0.95357965  1  0  -0.39164  0  3.277352  0  0  -0.312457  0  3.577482  0  0  -0.333651  0  3.585752  0  0  -0.340801  -0.299044  0  3.573983  0
N  N68  1  0.62937696  0.44289486  0.26666774  1  0  -0.376223  0  3.325548  0  0  -0.294596  0  3.626301  0  0  -0.314212  0  3.638003  0  0  -0.355106  -0.280658  0  3.617452  0
N  N69  1  0.37063034  0.55711783  0.73333496  1  0  -0.376313  0  3.325546  0  0  -0.294713  0  3.626355  0  0  -0.314318  0  3.638039  0  0  -0.35521  -0.280773  0  3.617504  0
N  N70  1  0.83450828  0.43885045  0.20363187  1  0  -0.05286  0  3.566614  0  0  0.043105  0  3.783083  0  0  0.02902  0  3.808973  0  0  -0.237419  0.052451  0  3.765187  0
N  N71  1  0.16549543  0.56115365  0.79636869  1  0  -0.053018  0  3.566587  0  0  0.042928  0  3.783085  0  0  0.028844  0  3.808973  0  0  -0.237447  0.052274  0  3.765192  0
O  O72  1  0.35697529  0.57877946  0.34252259  1  0  -0.641078  0  2.017807  0  0  -0.570183  0  2.283801  0  0  -0.597752  0  2.268792  0  0  -0.335206  -0.550012  0  2.295634  0
O  O73  1  0.64301855  0.42121352  0.65747147  1  0  -0.641089  0  2.017696  0  0  -0.570231  0  2.283709  0  0  -0.597796  0  2.268695  0  0  -0.335238  -0.550053  0  2.295535  0
O  O74  1  0.45630117  0.64925309  0.19809676  1  0  -0.656851  0  1.954295  0  0  -0.61682  0  2.20065  0  0  -0.640212  0  2.1919  0  0  -0.338195  -0.599429  0  2.205873  0
O  O75  1  0.54368902  0.35074349  0.80190108  1  0  -0.656899  0  1.95456  0  0  -0.616825  0  2.200841  0  0  -0.640215  0  2.192093  0  0  -0.338251  -0.599432  0  2.206064  0
O  O76  1  0.35804581  0.07052434  0.14630003  1  0  -0.614041  0  1.872511  0  0  -0.574427  0  2.078679  0  0  -0.596169  0  2.07129  0  0  -0.33979  -0.55858  0  2.082458  0
O  O77  1  0.64198809  0.92949486  0.85370541  1  0  -0.61395  0  1.872756  0  0  -0.574312  0  2.078985  0  0  -0.596053  0  2.071611  0  0  -0.339642  -0.558465  0  2.082766  0
O  O78  1  0.33056898  0.26123670  0.33375755  1  0  -0.656025  0  2.007564  0  0  -0.580752  0  2.271489  0  0  -0.609119  0  2.25563  0  0  -0.342868  -0.559412  0  2.283324  0
O  O79  1  0.66944000  0.73876506  0.66624521  1  0  -0.656244  0  2.007578  0  0  -0.580843  0  2.271473  0  0  -0.609204  0  2.255615  0  0  -0.342934  -0.559499  0  2.283308  0
O  O80  1  0.17545228  0.98408205  0.60733732  1  0  -0.295486  0  2.270059  0  0  -0.234039  0  2.504877  0  0  -0.249822  0  2.503674  0  0  -0.186053  -0.223562  0  2.506729  0
O  O81  1  0.82453947  0.01591333  0.39265841  1  0  -0.295456  0  2.270044  0  0  -0.233961  0  2.504861  0  0  -0.249734  0  2.503647  0  0  -0.186044  -0.223484  0  2.506696  0
