# generated using pymatgen
data_CoH12C15(N2O3)2
_symmetry_space_group_name_H-M   'P 1'
_cell_length_a   7.28704126
_cell_length_b   9.12274248
_cell_length_c   14.56340414
_cell_angle_alpha   102.36438869
_cell_angle_beta   95.15386855
_cell_angle_gamma   93.34250185
_symmetry_Int_Tables_number   1
_chemical_formula_structural   CoH12C15(N2O3)2
_chemical_formula_sum   'Co2 H24 C30 N8 O12'
_cell_volume   938.86775160
_cell_formula_units_Z   2
loop_
 _symmetry_equiv_pos_site_id
 _symmetry_equiv_pos_as_xyz
  1  'x, y, z'
loop_
 _atom_site_type_symbol
 _atom_site_label
 _atom_site_symmetry_multiplicity
 _atom_site_fract_x
 _atom_site_fract_y
 _atom_site_fract_z
 _atom_site_occupancy
 _atom_site_pbe_bader_charge
 _atom_site_pbe_bader_spin_density
 _atom_site_pbe_cm5_charge
 _atom_site_pbe_ddec_charge
 _atom_site_pbe_ddec_spin_density
 _atom_site_pbe_ddec_sum_bond_order
 _atom_site_pbe_magmom
Co  Co0  1  0.00000003  0.50000384  0.99999785  1  1.283397  2.621899  0.65557  0.896659  2.83033  2.440426  2.605
Co  Co1  1  0.99998977  0.99999949  0.50000331  1  1.306752  2.617233  0.661583  0.936828  2.829924  2.445156  2.602
H  H2  1  0.54259609  0.23082330  0.16332757  1  0.113861  1.2e-05  0.107533  0.112852  -7.1e-05  1.034444  0.0
H  H3  1  0.45740966  0.76917980  0.83665212  1  0.113815  1.2e-05  0.107549  0.112871  -7.1e-05  1.034456  0.0
H  H4  1  0.86478053  0.53497303  0.39899703  1  0.075367  0.000199  0.11126  0.123237  2e-05  1.004359  0.0
H  H5  1  0.13519442  0.46500283  0.60100908  1  0.075451  0.000199  0.11131  0.123282  2e-05  1.004501  0.0
H  H6  1  0.42714001  0.69498197  0.23837952  1  0.100298  0.000188  0.108621  0.116537  5.9e-05  1.005308  0.0
H  H7  1  0.57287803  0.30502107  0.76161912  1  0.100344  0.000188  0.108589  0.116518  5.9e-05  1.005273  0.0
H  H8  1  0.83058440  0.28160531  0.45599622  1  0.18491  9e-06  0.150138  0.129614  -0.000278  0.976616  0.0
H  H9  1  0.16935820  0.71837644  0.54400019  1  0.184961  9e-06  0.150163  0.129745  -0.000278  0.976376  0.0
H  H10  1  0.72693775  0.90968777  0.08187491  1  0.115528  3.9e-05  0.114475  0.120528  -0.000156  1.003039  0.0
H  H11  1  0.27309952  0.09031597  0.91812609  1  0.115336  3.9e-05  0.114391  0.120438  -0.000156  1.003031  0.0
H  H12  1  0.69812135  0.94327113  0.91639540  1  0.095185  0.000778  0.109269  0.115331  0.000355  1.006121  0.0
H  H13  1  0.30190440  0.05674095  0.08360754  1  0.095248  0.000778  0.109312  0.115451  0.000355  1.006263  0.0
H  H14  1  0.80431923  0.19289935  0.88409008  1  0.093037  0.001204  0.121425  0.090143  0.000124  0.998017  0.001
H  H15  1  0.19570779  0.80711275  0.11591366  1  0.092943  0.001204  0.121397  0.090115  0.000124  0.998198  0.001
H  H16  1  0.99124939  0.36209199  0.16549041  1  0.106783  0.001641  0.122118  0.094857  0.000534  0.999476  0.001
H  H17  1  0.00875561  0.63792072  0.83451225  1  0.10695  0.001641  0.122119  0.094881  0.000533  0.999615  0.001
H  H18  1  0.89692201  0.70015398  0.14861558  1  0.608319  0.000252  0.316273  0.391899  -4e-06  0.894056  0.0
H  H19  1  0.10308066  0.29985010  0.85137567  1  0.608294  0.000252  0.316211  0.391909  -3e-06  0.893984  0.0
H  H20  1  0.74702091  0.64792537  0.05683933  1  0.656037  -3.1e-05  0.282241  0.366805  -2.2e-05  0.989908  0.0
H  H21  1  0.25297436  0.35207799  0.94315398  1  0.656122  -3.1e-05  0.282229  0.366827  -2.2e-05  0.989891  0.0
H  H22  1  0.33638331  0.97815157  0.52418934  1  0.632322  -0.000101  0.284506  0.365369  -0.000291  0.990365  0.0
H  H23  1  0.66359443  0.02183728  0.47581209  1  0.632515  -0.0001  0.284537  0.365461  -0.000291  0.990254  0.0
H  H24  1  0.33192379  0.90007079  0.41493656  1  0.642401  0.001988  0.303236  0.408159  0.001079  0.898853  0.003
H  H25  1  0.66805080  0.09991594  0.58506509  1  0.642305  0.001986  0.303235  0.408183  0.001078  0.898815  0.003
C  C26  1  0.34127847  0.43481275  0.10368918  1  1.601161  -0.000101  0.213385  0.578597  -0.000889  4.184061  -0.001
C  C27  1  0.65872276  0.56519625  0.89630727  1  1.601563  -0.000102  0.2134  0.578834  -0.000889  4.184281  -0.001
C  C28  1  0.47245133  0.46003263  0.19197498  1  -0.073677  0.005675  -0.012641  -0.004621  0.00299  3.974713  0.004
C  C29  1  0.52754858  0.53996620  0.80801965  1  -0.073381  0.005676  -0.012592  -0.00465  0.00299  3.974886  0.004
C  C30  1  0.57148759  0.34129632  0.21024089  1  -0.049915  -0.000455  -0.079545  -0.172245  -0.000912  3.949638  0.0
C  C31  1  0.42851480  0.65870187  0.78974630  1  -0.050212  -0.000456  -0.079531  -0.172297  -0.000913  3.949917  0.0
C  C32  1  0.70974592  0.36775936  0.28590810  1  0.282742  0.000974  0.091925  0.165664  0.000445  4.048036  0.001
C  C33  1  0.29024737  0.63222400  0.71408650  1  0.282086  0.000974  0.091941  0.165558  0.000445  4.048437  0.001
C  C34  1  0.75059959  0.51122870  0.34296068  1  0.048154  -0.00074  -0.078147  -0.167409  -0.000963  3.93267  -0.001
C  C35  1  0.24938152  0.48875319  0.65703895  1  0.048719  -0.000741  -0.078289  -0.167495  -0.000963  3.932932  -0.001
C  C36  1  0.64627165  0.62888415  0.32669914  1  -0.002614  0.005115  -0.013448  -0.012335  0.00268  3.976901  0.004
C  C37  1  0.35371945  0.37110866  0.67330105  1  -0.00301  0.005117  -0.01339  -0.012268  0.00268  3.976936  0.004
C  C38  1  0.50550036  0.60260107  0.25212050  1  0.05407  0.000465  -0.071113  -0.101301  -1e-05  3.914393  0.0
C  C39  1  0.49450158  0.39739808  0.74787916  1  0.054367  0.000464  -0.071087  -0.101259  -1e-05  3.914358  0.0
C  C40  1  0.69760315  0.78445705  0.38603160  1  1.560789  0.000144  0.212595  0.58401  -0.00105  4.180848  0.0
C  C41  1  0.30238563  0.21553512  0.61397384  1  1.560373  0.000145  0.212475  0.583883  -0.001054  4.181162  0.0
C  C42  1  0.86439741  0.21673176  0.38914518  1  0.979932  -0.006012  0.163773  0.110528  -0.007434  3.88093  -0.003
C  C43  1  0.13557343  0.78325609  0.61085488  1  0.980149  -0.006009  0.163709  0.110407  -0.007431  3.880784  -0.003
C  C44  1  0.87642940  0.13176246  0.23809707  1  0.957036  0.0022  0.222567  0.217638  0.001172  3.997413  0.002
C  C45  1  0.12359193  0.86823850  0.76190508  1  0.956955  0.0022  0.22264  0.217634  0.001172  3.997152  0.002
C  C46  1  0.86304366  0.13363070  0.13737774  1  0.057484  0.005251  -0.001799  -0.023577  0.002441  4.037326  0.004
C  C47  1  0.13699280  0.86637396  0.86262053  1  0.057708  0.005251  -0.001886  -0.023583  0.002441  4.037216  0.004
C  C48  1  0.78045396  0.01431418  0.06592544  1  -0.113535  -0.011644  -0.062375  -0.070432  -0.01276  3.926673  -0.007
C  C49  1  0.21957612  0.98569113  0.93407857  1  -0.113523  -0.011641  -0.062175  -0.070132  -0.012758  3.926819  -0.007
C  C50  1  0.76132085  0.03427535  0.97345130  1  0.016561  0.005254  -0.077932  -0.111223  0.00247  3.972361  0.004
C  C51  1  0.23870832  0.96573095  0.02655066  1  0.016133  0.005255  -0.078159  -0.111607  0.00247  3.972904  0.004
C  C52  1  0.82232607  0.17160832  0.95507789  1  0.503514  -0.008112  0.054191  0.094904  -0.009333  3.924608  -0.005
C  C53  1  0.17769690  0.82840506  0.04492633  1  0.503517  -0.008109  0.054433  0.0951  -0.00933  3.924897  -0.005
C  C54  1  0.92502016  0.26654348  0.11223944  1  0.499048  -0.007673  0.055223  0.06164  -0.008404  3.911687  -0.005
C  C55  1  0.07499164  0.73347030  0.88776527  1  0.498399  -0.007674  0.055168  0.061511  -0.008404  3.91187  -0.005
N  N56  1  0.81548073  0.24781108  0.30337791  1  -1.253154  0.000833  -0.215362  -0.059733  0.000308  3.74701  0.001
N  N57  1  0.18451078  0.75217255  0.69661932  1  -1.253175  0.000834  -0.215343  -0.059498  0.000309  3.74685  0.001
N  N58  1  0.94641523  0.08975210  0.37773110  1  -0.726945  0.045265  -0.229504  -0.184391  0.02431  3.511234  0.043
N  N59  1  0.05357081  0.91024255  0.62227643  1  -0.727135  0.045268  -0.229448  -0.184483  0.024311  3.511293  0.043
N  N60  1  0.95532055  0.03502862  0.28227578  1  -0.678695  0.002903  -0.226404  -0.250271  0.000754  3.115698  0.002
N  N61  1  0.04469960  0.96497833  0.71773101  1  -0.678209  0.002903  -0.22646  -0.250271  0.000754  3.115606  0.002
N  N62  1  0.90510328  0.28609922  0.02344717  1  -1.216426  0.053027  -0.31941  -0.239418  0.028124  3.57044  0.047
N  N63  1  0.09492460  0.71391312  0.97656012  1  -1.215978  0.05303  -0.319433  -0.239417  0.028121  3.570512  0.047
O  O64  1  0.36663870  0.32802610  0.03560397  1  -1.179548  0.005979  -0.313894  -0.540057  0.002492  2.160998  0.005
O  O65  1  0.63335523  0.67198502  0.96438795  1  -1.179551  0.005981  -0.313787  -0.540098  0.002493  2.161002  0.005
O  O66  1  0.21407818  0.52630523  0.10354702  1  -1.165543  0.073235  -0.320793  -0.571509  0.037732  2.363927  0.062
O  O67  1  0.78592403  0.47370637  0.89645460  1  -1.165943  0.073237  -0.320948  -0.57171  0.037734  2.364166  0.062
O  O68  1  0.58518706  0.88550157  0.38447197  1  -1.178282  0.007661  -0.318698  -0.560964  0.003353  2.17398  0.006
O  O69  1  0.41479299  0.11447970  0.61553372  1  -1.178164  0.007658  -0.318622  -0.560862  0.003352  2.174127  0.006
O  O70  1  0.85616073  0.80243577  0.43416703  1  -1.149806  0.073343  -0.321235  -0.570928  0.037946  2.363833  0.062
O  O71  1  0.14381673  0.19755517  0.56584700  1  -1.149388  0.073339  -0.321256  -0.570983  0.037953  2.364028  0.062
O  O72  1  0.83499304  0.61166621  0.10468455  1  -1.238896  0.062081  -0.563999  -0.745386  0.031978  2.132279  0.05
O  O73  1  0.16500290  0.38834041  0.89530777  1  -1.238978  0.062081  -0.563894  -0.74543  0.031977  2.132227  0.05
O  O74  1  0.25794365  0.91042004  0.46880139  1  -1.252557  0.059579  -0.577045  -0.77923  0.031081  2.158003  0.048
O  O75  1  0.74202677  0.08957459  0.53119932  1  -1.252702  0.059586  -0.577074  -0.779333  0.031081  2.157942  0.048
