# generated using pymatgen
data_CdH10C5(NO3)2
_symmetry_space_group_name_H-M   'P 1'
_cell_length_a   8.15558639
_cell_length_b   8.15558207
_cell_length_c   14.02301265
_cell_angle_alpha   83.97063414
_cell_angle_beta   83.97056304
_cell_angle_gamma   73.24945931
_symmetry_Int_Tables_number   1
_chemical_formula_structural   CdH10C5(NO3)2
_chemical_formula_sum   'Cd4 H40 C20 N8 O24'
_cell_volume   885.46122842
_cell_formula_units_Z   4
loop_
 _symmetry_equiv_pos_site_id
 _symmetry_equiv_pos_as_xyz
  1  'x, y, z'
loop_
 _atom_site_type_symbol
 _atom_site_label
 _atom_site_symmetry_multiplicity
 _atom_site_fract_x
 _atom_site_fract_y
 _atom_site_fract_z
 _atom_site_occupancy
 _atom_site_hle17_bader_spin_density
 _atom_site_hle17_ddec_charge
 _atom_site_hle17_ddec_spin_density
 _atom_site_hle17_ddec_sum_bond_order
 _atom_site_hle17_magmom
 _atom_site_hse06_10hf_bader_charge
 _atom_site_hse06_10hf_bader_spin_density
 _atom_site_hse06_10hf_ddec_charge
 _atom_site_hse06_10hf_ddec_spin_density
 _atom_site_hse06_10hf_ddec_sum_bond_order
 _atom_site_hse06_10hf_magmom
 _atom_site_hse06_bader_spin_density
 _atom_site_hse06_ddec_charge
 _atom_site_hse06_ddec_spin_density
 _atom_site_hse06_ddec_sum_bond_order
 _atom_site_hse06_magmom
 _atom_site_pbe_bader_spin_density
 _atom_site_pbe_cm5_charge
 _atom_site_pbe_ddec_charge
 _atom_site_pbe_ddec_spin_density
 _atom_site_pbe_ddec_sum_bond_order
 _atom_site_pbe_magmom
Cd  Cd0  1  0.94974852  0.78277192  0.33146974  1  0  1.151007  0  1.564063  0  1.321658  0  0.961717  0  1.985496  0  0  1.021068  0  1.933197  0  0  0.773741  0.919329  0  2.021417  0
Cd  Cd1  1  0.21722788  0.05025223  0.16852958  1  0  1.150983  0  1.56401  0  1.321676  0  0.961701  0  1.985429  0  0  1.021055  0  1.933132  0  0  0.773739  0.919315  0  2.021349  0
Cd  Cd2  1  0.05025120  0.21722808  0.66853092  1  0  1.151008  0  1.564028  0  1.32167  0  0.961724  0  1.98545  0  0  1.021077  0  1.93315  0  0  0.773746  0.919334  0  2.021369  0
Cd  Cd3  1  0.78277305  0.94974776  0.83146957  1  0  1.15101  0  1.563985  0  1.321607  0  0.961732  0  1.985399  0  0  1.021085  0  1.933103  0  0  0.773753  0.919345  0  2.021319  0
H  H4  1  0.43902153  0.78736592  0.46883903  1  0  0.136852  0  0.932138  0  0.127432  0  0.145238  0  1.002119  0  0  0.148383  0  1.000237  0  0  0.11292  0.142969  0  1.003525  0
H  H5  1  0.21263222  0.56097820  0.03116065  1  0  0.136845  0  0.932148  0  0.127451  0  0.145236  0  1.002121  0  0  0.148378  0  1.000237  0  0  0.112926  0.14297  0  1.003524  0
H  H6  1  0.56097732  0.21263276  0.53116034  1  0  0.136857  0  0.932116  0  0.127428  0  0.145249  0  1.002096  0  0  0.148394  0  1.000211  0  0  0.112921  0.14298  0  1.003503  0
H  H7  1  0.78736627  0.43902178  0.96884008  1  0  0.136841  0  0.932138  0  0.127439  0  0.145233  0  1.002118  0  0  0.148377  0  1.000237  0  0  0.112915  0.142965  0  1.003524  0
H  H8  1  0.43148005  0.60599511  0.41447698  1  0  0.116976  0  0.922643  0  0.064189  0  0.135022  0  0.975209  0  0  0.137266  0  0.974386  0  0  0.107559  0.133364  0  0.975964  0
H  H9  1  0.39400449  0.56851882  0.08552332  1  0  0.116985  0  0.922636  0  0.064177  0  0.135031  0  0.975207  0  0  0.137273  0  0.974384  0  0  0.107564  0.133372  0  0.975963  0
H  H10  1  0.56851843  0.39400487  0.58552305  1  0  0.116989  0  0.92265  0  0.064168  0  0.135039  0  0.975217  0  0  0.137282  0  0.974395  0  0  0.107579  0.133381  0  0.975973  0
H  H11  1  0.60599486  0.43148246  0.91447727  1  0  0.116977  0  0.922657  0  0.06418  0  0.135022  0  0.975233  0  0  0.137265  0  0.974409  0  0  0.107571  0.133364  0  0.975989  0
H  H12  1  0.24669718  0.66712779  0.57320923  1  0  0.072575  0  0.916836  0  0.061734  0  0.086828  0  0.98184  0  0  0.08784  0  0.981025  0  0  0.104079  0.085968  0  0.982625  0
H  H13  1  0.33287320  0.75330329  0.92678984  1  0  0.072574  0  0.916922  0  0.061715  0  0.086838  0  0.981905  0  0  0.087849  0  0.981093  0  0  0.104079  0.085978  0  0.982689  0
H  H14  1  0.75330253  0.33287220  0.42679072  1  0  0.072573  0  0.916836  0  0.061732  0  0.08683  0  0.981841  0  0  0.087839  0  0.981032  0  0  0.104077  0.085971  0  0.982619  0
H  H15  1  0.66712652  0.24669670  0.07321010  1  0  0.072565  0  0.916851  0  0.061722  0  0.086826  0  0.981845  0  0  0.087836  0  0.981034  0  0  0.104069  0.085966  0  0.982625  0
H  H16  1  0.12397462  0.86191414  0.51635037  1  0  0.076574  0  0.931761  0  0.063135  0  0.089201  0  1.000469  0  0  0.090216  0  0.999783  0  0  0.106513  0.088311  0  1.001196  0
H  H17  1  0.13808673  0.87602584  0.98364882  1  0  0.076588  0  0.931751  0  0.06314  0  0.089217  0  1.000461  0  0  0.090234  0  0.999772  0  0  0.106525  0.088327  0  1.00119  0
H  H18  1  0.87602594  0.13808714  0.48364872  1  0  0.07658  0  0.931763  0  0.06317  0  0.089211  0  1.000466  0  0  0.090228  0  0.999779  0  0  0.10652  0.088318  0  1.001196  0
H  H19  1  0.86191261  0.12397544  0.01635106  1  0  0.076591  0  0.931743  0  0.063179  0  0.089225  0  1.00044  0  0  0.090242  0  0.999752  0  0  0.106529  0.088332  0  1.001167  0
H  H20  1  0.24527759  0.40290711  0.52557596  1  0  0.073207  0  0.945261  0  0.0939  0  0.089546  0  1.012847  0  0  0.08976  0  1.012854  0  0  0.10283  0.089278  0  1.012986  0
H  H21  1  0.59709481  0.75472158  0.97442446  1  0  0.073237  0  0.945225  0  0.093892  0  0.089591  0  1.012808  0  0  0.089807  0  1.012813  0  0  0.102852  0.089323  0  1.012947  0
H  H22  1  0.75472176  0.59709417  0.47442463  1  0  0.073228  0  0.945246  0  0.093897  0  0.089578  0  1.01282  0  0  0.089792  0  1.012827  0  0  0.102848  0.089309  0  1.012959  0
H  H23  1  0.40290650  0.24527713  0.02557475  1  0  0.073213  0  0.945223  0  0.093918  0  0.089563  0  1.012802  0  0  0.089779  0  1.012808  0  0  0.10284  0.089295  0  1.012941  0
H  H24  1  0.26785026  0.45006547  0.39883470  1  0  0.087034  0  0.933382  0  0.093765  0  0.104084  0  0.99241  0  0  0.104663  0  0.99243  0  0  0.110384  0.103585  0  0.992514  0
H  H25  1  0.54993447  0.73214996  0.10116477  1  0  0.08703  0  0.933383  0  0.093779  0  0.104107  0  0.992403  0  0  0.104687  0  0.992422  0  0  0.1104  0.103608  0  0.992506  0
H  H26  1  0.73214945  0.54993452  0.60116525  1  0  0.08706  0  0.933343  0  0.093768  0  0.104093  0  0.992408  0  0  0.104671  0  0.992427  0  0  0.110397  0.103593  0  0.99251  0
H  H27  1  0.45006609  0.26785132  0.89883431  1  0  0.087085  0  0.933292  0  0.093751  0  0.104116  0  0.992354  0  0  0.104694  0  0.992375  0  0  0.110395  0.103618  0  0.992456  0
H  H28  1  0.87186034  0.77998775  0.56241098  1  0  0.099231  0  0.915152  0  0.122818  0  0.116797  0  0.972622  0  0  0.117651  0  0.972483  0  0  0.113003  0.116104  0  0.972807  0
H  H29  1  0.22001295  0.12813911  0.93758798  1  0  0.099249  0  0.915134  0  0.122823  0  0.116827  0  0.972595  0  0  0.117679  0  0.97246  0  0  0.11301  0.116134  0  0.97278  0
H  H30  1  0.12814060  0.22001225  0.43758888  1  0  0.099227  0  0.91513  0  0.122816  0  0.116801  0  0.972615  0  0  0.117654  0  0.972476  0  0  0.113002  0.116107  0  0.9728  0
H  H31  1  0.77998799  0.87186088  0.06241117  1  0  0.099244  0  0.915147  0  0.122817  0  0.116817  0  0.972617  0  0  0.11767  0  0.97248  0  0  0.113002  0.116124  0  0.972801  0
H  H32  1  0.00850534  0.59765870  0.62218473  1  0  0.079133  0  0.943525  0  0.08336  0  0.093156  0  1.01244  0  0  0.093974  0  1.011674  0  0  0.103505  0.092468  0  1.013106  0
H  H33  1  0.40234252  0.99149334  0.87781450  1  0  0.079186  0  0.943494  0  0.083337  0  0.093214  0  1.012404  0  0  0.094033  0  1.011638  0  0  0.103539  0.092528  0  1.013069  0
H  H34  1  0.99149437  0.40234129  0.37781521  1  0  0.07913  0  0.943507  0  0.08336  0  0.093162  0  1.01243  0  0  0.09398  0  1.011663  0  0  0.103499  0.092475  0  1.013096  0
H  H35  1  0.59765841  0.00850665  0.12218465  1  0  0.079202  0  0.943473  0  0.083361  0  0.093239  0  1.012377  0  0  0.094058  0  1.01161  0  0  0.103539  0.092552  0  1.013042  0
H  H36  1  0.78024056  0.58360334  0.24361568  1  0  0.410712  0  0.89749  0  0.647256  0  0.374602  0  0.970507  0  0  0.38664  0  0.952859  0  0  0.286567  0.366059  0  0.982999  0
H  H37  1  0.41639577  0.21975787  0.25638526  1  0  0.410711  0  0.89749  0  0.647242  0  0.374605  0  0.970495  0  0  0.386646  0  0.952849  0  0  0.286588  0.366062  0  0.982986  0
H  H38  1  0.21975916  0.41639665  0.75638427  1  0  0.410707  0  0.89749  0  0.647199  0  0.374616  0  0.970479  0  0  0.386654  0  0.95283  0  0  0.286587  0.366075  0  0.982968  0
H  H39  1  0.58360433  0.78024086  0.74361617  1  0  0.410734  0  0.897458  0  0.647265  0  0.374623  0  0.970476  0  0  0.386663  0  0.952825  0  0  0.286582  0.366079  0  0.982969  0
H  H40  1  0.63008607  0.72814152  0.29211680  1  0  0.421901  0  0.884626  0  0.658017  0  0.389395  0  0.950312  0  0  0.401217  0  0.93351  0  0  0.284674  0.381009  0  0.962209  0
H  H41  1  0.27185717  0.36991371  0.20788418  1  0  0.421873  0  0.884664  0  0.65801  0  0.389367  0  0.950352  0  0  0.401188  0  0.933551  0  0  0.284666  0.38098  0  0.962251  0
H  H42  1  0.36991280  0.27185719  0.70788400  1  0  0.421873  0  0.88466  0  0.658015  0  0.389373  0  0.950338  0  0  0.401193  0  0.93354  0  0  0.28467  0.380986  0  0.962239  0
H  H43  1  0.72814133  0.63008629  0.79211727  1  0  0.42189  0  0.884637  0  0.658013  0  0.389381  0  0.950333  0  0  0.401203  0  0.933533  0  0  0.284664  0.380992  0  0.962236  0
C  C44  1  0.31196164  0.84648412  0.34126826  1  0  0.709946  0  3.815528  0  1.557622  0  0.655675  0  4.115478  0  0  0.690225  0  4.109615  0  0  0.205752  0.63215  0  4.1186  0
C  C45  1  0.15351359  0.68804300  0.15873049  1  0  0.709946  0  3.815296  0  1.55761  0  0.655657  0  4.115279  0  0  0.690204  0  4.10942  0  0  0.205734  0.632135  0  4.118401  0
C  C46  1  0.68804052  0.15351589  0.65873081  1  0  0.709893  0  3.815469  0  1.557643  0  0.655631  0  4.115432  0  0  0.690176  0  4.109575  0  0  0.20573  0.632108  0  4.118555  0
C  C47  1  0.84648378  0.31196083  0.84126936  1  0  0.709895  0  3.815499  0  1.557692  0  0.655623  0  4.115463  0  0  0.690173  0  4.109604  0  0  0.205711  0.632099  0  4.118588  0
C  C48  1  0.35357021  0.73446393  0.43311336  1  0  -0.302509  0  3.678779  0  -0.049333  0  -0.341392  0  3.931143  0  0  -0.348427  0  3.93878  0  0  -0.1677  -0.336408  0  3.925658  0
C  C49  1  0.26553484  0.64643008  0.06688698  1  0  -0.302484  0  3.678776  0  -0.049337  0  -0.341353  0  3.931136  0  0  -0.348389  0  3.938785  0  0  -0.167681  -0.336363  0  3.925639  0
C  C50  1  0.64642866  0.26553477  0.56688744  1  0  -0.302529  0  3.678818  0  -0.049338  0  -0.34142  0  3.931192  0  0  -0.348459  0  3.938844  0  0  -0.167717  -0.336431  0  3.925693  0
C  C51  1  0.73446328  0.35357119  0.93311370  1  0  -0.302498  0  3.678842  0  -0.049345  0  -0.341393  0  3.931215  0  0  -0.348425  0  3.938851  0  0  -0.167714  -0.336409  0  3.925725  0
C  C52  1  0.20004854  0.73027004  0.50374866  1  0  0.011697  0  3.65026  0  0.26553  0  -0.049291  0  3.916734  0  0  -0.044625  0  3.929514  0  0  -0.077475  -0.052324  0  3.907899  0
C  C53  1  0.26973106  0.79995163  0.99625045  1  0  0.011663  0  3.650307  0  0.265756  0  -0.049339  0  3.916798  0  0  -0.044675  0  3.929573  0  0  -0.077494  -0.052371  0  3.907966  0
C  C54  1  0.79995117  0.26972996  0.49625128  1  0  0.011697  0  3.65027  0  0.265532  0  -0.049298  0  3.916764  0  0  -0.044634  0  3.929543  0  0  -0.077474  -0.052327  0  3.90793  0
C  C55  1  0.73026950  0.20004964  0.00374863  1  0  0.01167  0  3.650317  0  0.265531  0  -0.049323  0  3.916811  0  0  -0.04466  0  3.929592  0  0  -0.077482  -0.052345  0  3.907965  0
C  C56  1  0.17445846  0.45734577  0.46141068  1  0  -0.038928  0  3.649116  0  0.209019  0  -0.09955  0  3.909635  0  0  -0.096592  0  3.923643  0  0  -0.080098  -0.101417  0  3.899947  0
C  C57  1  0.54265487  0.82554144  0.03858880  1  0  -0.038929  0  3.648989  0  0.209013  0  -0.099651  0  3.909628  0  0  -0.096695  0  3.923638  0  0  -0.080155  -0.101517  0  3.899939  0
C  C58  1  0.82554088  0.54265551  0.53858920  1  0  -0.038927  0  3.648983  0  0.209056  0  -0.099594  0  3.909553  0  0  -0.096636  0  3.92356  0  0  -0.080145  -0.101464  0  3.899874  0
C  C59  1  0.45734605  0.17445854  0.96140963  1  0  -0.038938  0  3.648929  0  0.209055  0  -0.09959  0  3.909504  0  0  -0.096637  0  3.923518  0  0  -0.080127  -0.101457  0  3.899821  0
C  C60  1  0.94583040  0.64572447  0.55478711  1  0  -0.040456  0  3.630134  0  0.217853  0  -0.098503  0  3.887655  0  0  -0.095422  0  3.900513  0  0  -0.076961  -0.100407  0  3.878714  0
C  C61  1  0.35427597  0.05416998  0.94521173  1  0  -0.040588  0  3.630096  0  0.217855  0  -0.098653  0  3.887634  0  0  -0.09557  0  3.900491  0  0  -0.077023  -0.100555  0  3.87869  0
C  C62  1  0.05417054  0.35427553  0.44521275  1  0  -0.040421  0  3.63009  0  0.217857  0  -0.098528  0  3.88768  0  0  -0.095446  0  3.900537  0  0  -0.076972  -0.100433  0  3.878742  0
C  C63  1  0.64572495  0.94583001  0.05478671  1  0  -0.040557  0  3.630101  0  0.217823  0  -0.09863  0  3.887668  0  0  -0.095547  0  3.900526  0  0  -0.076989  -0.100533  0  3.878725  0
N  N64  1  0.08105770  0.64004866  0.47421626  1  0  -0.247448  0  3.215397  0  -1.047505  0  -0.140437  0  3.450031  0  0  -0.162539  0  3.475233  0  0  -0.338585  -0.125082  0  3.432141  0
N  N65  1  0.35995253  0.91894156  0.02578333  1  0  -0.247395  0  3.215299  0  -1.0477  0  -0.140358  0  3.449961  0  0  -0.162458  0  3.475165  0  0  -0.338554  -0.125006  0  3.432079  0
N  N66  1  0.91894202  0.35995133  0.52578368  1  0  -0.247483  0  3.215341  0  -1.047479  0  -0.14045  0  3.45  0  0  -0.162551  0  3.475201  0  0  -0.338585  -0.125097  0  3.432111  0
N  N67  1  0.64004841  0.08105843  0.97421582  1  0  -0.247442  0  3.215385  0  -1.04746  0  -0.140416  0  3.450035  0  0  -0.162517  0  3.475239  0  0  -0.338592  -0.125066  0  3.432149  0
N  N68  1  0.64296037  0.05886054  0.35538618  1  0  0.692441  0  4.119712  0  0.840892  0  0.724819  0  4.407095  0  0  0.754135  0  4.414307  0  0  0.09382  0.705253  0  4.401604  0
N  N69  1  0.94113576  0.35704176  0.14461312  1  0  0.692214  0  4.119982  0  0.840879  0  0.724752  0  4.407211  0  0  0.754064  0  4.414432  0  0  0.093778  0.705189  0  4.401716  0
N  N70  1  0.35703886  0.94113687  0.64461397  1  0  0.692451  0  4.11976  0  0.840891  0  0.724832  0  4.40714  0  0  0.754149  0  4.414355  0  0  0.093806  0.705266  0  4.401648  0
N  N71  1  0.05886443  0.64296080  0.85538590  1  0  0.692249  0  4.120007  0  0.840874  0  0.724784  0  4.407214  0  0  0.754096  0  4.414435  0  0  0.093782  0.705223  0  4.401717  0
O  O72  1  0.42976139  0.84500468  0.27371851  1  0  -0.645125  0  1.977421  0  -1.204702  0  -0.574273  0  2.205233  0  0  -0.604062  0  2.197026  0  0  -0.316084  -0.553538  0  2.210293  0
O  O73  1  0.15499386  0.57023796  0.22628263  1  0  -0.645113  0  1.977107  0  -1.204597  0  -0.574259  0  2.204931  0  0  -0.604041  0  2.196723  0  0  -0.31607  -0.553522  0  2.20999  0
O  O74  1  0.57023674  0.15499660  0.72628288  1  0  -0.645132  0  1.977204  0  -1.204583  0  -0.574284  0  2.205002  0  0  -0.604064  0  2.196794  0  0  -0.316101  -0.55355  0  2.210061  0
O  O75  1  0.84500266  0.42976459  0.77371807  1  0  -0.645135  0  1.977317  0  -1.204657  0  -0.574241  0  2.205081  0  0  -0.604016  0  2.196848  0  0  -0.316057  -0.553504  0  2.210141  0
O  O76  1  0.15866533  0.94340422  0.33232606  1  0  -0.658966  0  2.018248  0  -1.198881  0  -0.578884  0  2.27078  0  0  -0.610672  0  2.260001  0  0  -0.325367  -0.55655  0  2.277388  0
O  O77  1  0.05659558  0.84133526  0.16767291  1  0  -0.659004  0  2.018299  0  -1.198371  0  -0.578914  0  2.27084  0  0  -0.610701  0  2.260064  0  0  -0.325383  -0.556582  0  2.277449  0
O  O78  1  0.84133155  0.05659703  0.66767399  1  0  -0.658939  0  2.018376  0  -1.199006  0  -0.578863  0  2.270909  0  0  -0.610652  0  2.260137  0  0  -0.325349  -0.556519  0  2.277485  0
O  O79  1  0.94340424  0.15866859  0.83232605  1  0  -0.658921  0  2.018327  0  -1.198344  0  -0.578851  0  2.270868  0  0  -0.610641  0  2.260093  0  0  -0.325334  -0.556511  0  2.277459  0
O  O80  1  0.70623504  0.95924334  0.42735817  1  0  -0.476821  0  1.776734  0  -0.562838  0  -0.451108  0  1.999735  0  0  -0.471414  0  1.993928  0  0  -0.187597  -0.437171  0  2.003544  0
O  O81  1  0.04075317  0.29377047  0.07264121  1  0  -0.476696  0  1.776742  0  -0.562813  0  -0.451065  0  1.99972  0  0  -0.47137  0  1.993914  0  0  -0.187555  -0.437134  0  2.003534  0
O  O82  1  0.29376542  0.04075408  0.57264190  1  0  -0.476833  0  1.776761  0  -0.562802  0  -0.451111  0  1.999754  0  0  -0.471419  0  1.993949  0  0  -0.187575  -0.437172  0  2.003563  0
O  O83  1  0.95924777  0.70622954  0.92735865  1  0  -0.476755  0  1.776797  0  -0.562787  0  -0.451069  0  1.999726  0  0  -0.471376  0  1.993926  0  0  -0.187533  -0.437143  0  2.003552  0
O  O84  1  0.72376690  0.03998259  0.27316871  1  0  -0.449431  0  1.789313  0  -0.536219  0  -0.431424  0  2.009413  0  0  -0.449177  0  2.002801  0  0  -0.176979  -0.419026  0  2.013541  0
O  O85  1  0.96001605  0.27623537  0.22683110  1  0  -0.449355  0  1.789345  0  -0.535973  0  -0.431395  0  2.009398  0  0  -0.449151  0  2.002792  0  0  -0.176963  -0.418993  0  2.013519  0
O  O86  1  0.27623726  0.96001489  0.72683253  1  0  -0.4494  0  1.789299  0  -0.536018  0  -0.431434  0  2.009443  0  0  -0.449184  0  2.002826  0  0  -0.176969  -0.419035  0  2.013566  0
O  O87  1  0.03998416  0.72376721  0.77316935  1  0  -0.449351  0  1.789366  0  -0.536207  0  -0.431391  0  2.009409  0  0  -0.449157  0  2.002823  0  0  -0.176967  -0.418989  0  2.013529  0
O  O88  1  0.50213441  0.17303990  0.36701412  1  0  -0.435074  0  1.782541  0  -0.546059  0  -0.417173  0  1.983901  0  0  -0.432489  0  1.97672  0  0  -0.165781  -0.406645  0  1.988751  0
O  O89  1  0.82695696  0.49786507  0.13298541  1  0  -0.435034  0  1.782674  0  -0.546131  0  -0.417171  0  1.983988  0  0  -0.432482  0  1.976797  0  0  -0.165807  -0.406648  0  1.988843  0
O  O90  1  0.49786603  0.82695752  0.63298523  1  0  -0.435102  0  1.782516  0  -0.546086  0  -0.417181  0  1.98387  0  0  -0.432497  0  1.976681  0  0  -0.1658  -0.406656  0  1.988722  0
O  O91  1  0.17304815  0.50213754  0.86701328  1  0  -0.43501  0  1.782602  0  -0.546082  0  -0.417215  0  1.983962  0  0  -0.432528  0  1.976777  0  0  -0.165835  -0.406699  0  1.988822  0
O  O92  1  0.74777813  0.64912953  0.30204751  1  0  -0.844526  0  1.901384  0  -1.283078  0  -0.784022  0  2.110924  0  0  -0.807596  0  2.074606  0  0  -0.592694  -0.76726  0  2.136161  0
O  O93  1  0.35086912  0.25222321  0.19795330  1  0  -0.844504  0  1.901407  0  -1.28307  0  -0.783998  0  2.110956  0  0  -0.807579  0  2.074624  0  0  -0.59272  -0.767239  0  2.136195  0
O  O94  1  0.25222111  0.35086789  0.69795335  1  0  -0.844508  0  1.901413  0  -1.283081  0  -0.784009  0  2.110923  0  0  -0.807582  0  2.074608  0  0  -0.592724  -0.767249  0  2.136161  0
O  O95  1  0.64913147  0.74777810  0.80204793  1  0  -0.844539  0  1.901366  0  -1.283088  0  -0.78404  0  2.110907  0  0  -0.807617  0  2.074586  0  0  -0.592713  -0.767277  0  2.136145  0
