# generated using pymatgen
data_MnH22C24(NO2)2
_symmetry_space_group_name_H-M   'P 1'
_cell_length_a   13.44351911
_cell_length_b   13.79247248
_cell_length_c   16.31343752
_cell_angle_alpha   108.98548251
_cell_angle_beta   89.94303023
_cell_angle_gamma   119.16921825
_symmetry_Int_Tables_number   1
_chemical_formula_structural   MnH22C24(NO2)2
_chemical_formula_sum   'Mn4 H88 C96 N8 O16'
_cell_volume   2451.65195892
_cell_formula_units_Z   4
loop_
 _symmetry_equiv_pos_site_id
 _symmetry_equiv_pos_as_xyz
  1  'x, y, z'
loop_
 _atom_site_type_symbol
 _atom_site_label
 _atom_site_symmetry_multiplicity
 _atom_site_fract_x
 _atom_site_fract_y
 _atom_site_fract_z
 _atom_site_occupancy
 _atom_site_pbe_bader_charge
 _atom_site_pbe_bader_spin_density
 _atom_site_pbe_cm5_charge
 _atom_site_pbe_ddec_charge
 _atom_site_pbe_ddec_spin_density
 _atom_site_pbe_ddec_sum_bond_order
 _atom_site_pbe_magmom
Mn  Mn0  1  0.97039706  0.41159669  0.86667712  1  1.49953  4.489828  0.61644  0.882799  4.634631  2.451439  4.407
Mn  Mn1  1  0.55839762  0.58859854  0.63343532  1  1.495292  4.489981  0.616214  0.88206  4.643528  2.453443  4.407
Mn  Mn2  1  0.02963483  0.58851576  0.13340801  1  1.499607  4.490039  0.6163  0.882732  4.635879  2.451231  4.407
Mn  Mn3  1  0.44153178  0.41135641  0.36654080  1  1.495516  4.489717  0.616247  0.882028  4.643414  2.453739  4.406
H  H4  1  0.02622697  0.38190024  0.31120820  1  0.03614  4.4e-05  0.091715  0.132379  -6.4e-05  0.991059  0.0
H  H5  1  0.00538331  0.23567273  0.27814806  1  0.043092  0.000121  0.086564  0.120914  4.8e-05  1.00353  0.0
H  H6  1  0.89720427  0.25714898  0.23920144  1  0.029388  7.9e-05  0.079996  0.110974  8e-06  1.047315  0.0
H  H7  1  0.79209647  0.33237824  0.44812376  1  -0.008299  5.5e-05  0.081709  0.111094  -9e-06  1.022736  0.0
H  H8  1  0.90600620  0.44028703  0.41505728  1  0.04271  4.5e-05  0.08489  0.124414  1.9e-05  1.034625  0.0
H  H9  1  0.78161881  0.31823683  0.33556321  1  0.019983  7.7e-05  0.084146  0.118801  9e-06  1.006524  0.0
H  H10  1  0.74378585  0.10711589  0.29122132  1  0.009687  0.000102  0.083313  0.114847  7e-05  1.017489  0.0
H  H11  1  0.84719960  0.08067727  0.33234763  1  0.00862  4.2e-05  0.087159  0.12192  1.7e-05  1.00038  0.0
H  H12  1  0.76229638  0.12088510  0.40354328  1  0.00807  0.000134  0.078949  0.102362  8.2e-05  1.037197  0.0
H  H13  1  0.19895919  0.40816170  0.67160702  1  0.094744  0.000415  0.107477  0.115179  -0.000218  1.012135  0.0
H  H14  1  0.13778772  0.34805378  0.39669327  1  0.11215  9.2e-05  0.105284  0.108826  -0.000385  1.039866  0.0
H  H15  1  0.85733938  0.28064630  0.54191709  1  0.075559  0.000495  0.099227  0.096716  0.00026  1.032631  0.0
H  H16  1  0.22057865  0.49492530  0.84530807  1  0.11497  0.000932  0.122264  0.094031  0.000285  1.01171  0.0
H  H17  1  0.40246526  0.67005078  0.84261349  1  0.149389  0.000594  0.110073  0.135645  -4.7e-05  1.039419  0.0
H  H18  1  0.23431261  0.87665656  0.92764340  1  0.090564  0.000721  0.106668  0.112496  0.000362  0.99614  0.0
H  H19  1  0.05852294  0.69030138  0.92402658  1  0.113402  0.001234  0.120172  0.087854  0.00034  1.010149  0.0
H  H20  1  0.42570164  0.97813543  0.90732973  1  0.054416  0.000257  0.097995  0.089184  0.0001  1.03259  0.0
H  H21  1  0.55057396  0.83668295  0.84626503  1  0.122063  0.00038  0.107452  0.117841  -8.9e-05  1.021218  0.0
H  H22  1  0.70797948  0.29923531  0.86363288  1  0.132989  0.001216  0.120813  0.092623  0.000363  1.014727  0.001
H  H23  1  0.53670413  0.11407857  0.86591346  1  0.05949  0.000713  0.104868  0.108565  0.000353  1.030932  0.0
H  H24  1  0.76003884  0.96893537  0.85908202  1  0.093771  0.000888  0.1133  0.126054  0.00042  0.980612  0.0
H  H25  1  0.92334573  0.16352211  0.85844808  1  0.105387  0.001317  0.125251  0.098433  0.00045  0.97537  0.0
H  H26  1  0.64363188  0.61827419  0.18866946  1  0.055307  4.4e-05  0.091452  0.131809  -6.5e-05  0.991447  0.0
H  H27  1  0.76907597  0.76441345  0.22160593  1  0.054909  0.000119  0.086727  0.121165  4.7e-05  1.002229  0.0
H  H28  1  0.63943013  0.74316113  0.26065169  1  0.015069  7.9e-05  0.080079  0.110775  7e-06  1.04709  0.0
H  H29  1  0.45943388  0.66810448  0.05192477  1  0.016822  5.6e-05  0.081737  0.11109  -8e-06  1.023486  0.0
H  H30  1  0.46526172  0.56013230  0.08495444  1  0.00323  4.6e-05  0.085244  0.124556  1.8e-05  1.035166  0.0
H  H31  1  0.46300557  0.68230832  0.16451471  1  0.033077  7.6e-05  0.084637  0.119646  8e-06  1.005948  0.0
H  H32  1  0.63665219  0.89334031  0.20869475  1  0.013787  0.000103  0.083106  0.114591  7.2e-05  1.018192  0.0
H  H33  1  0.76640555  0.91933772  0.16735181  1  0.027315  4.2e-05  0.08695  0.121465  1.8e-05  1.00043  0.0
H  H34  1  0.64148821  0.87952044  0.09634349  1  -0.000569  0.000134  0.078893  0.101983  8.1e-05  1.037623  0.0
H  H35  1  0.79043994  0.59125450  0.82811493  1  0.120224  0.000387  0.107107  0.114786  -0.000222  1.013109  0.0
H  H36  1  0.78880966  0.65155798  0.10303890  1  0.084415  0.000108  0.105107  0.108399  -0.000384  1.040711  0.0
H  H37  1  0.57648401  0.71938813  0.95786393  1  0.058672  0.000519  0.099075  0.096216  0.000265  1.032733  0.0
H  H38  1  0.72597395  0.50588057  0.65557596  1  0.102742  0.000923  0.12175  0.093237  0.000275  1.012559  0.0
H  H39  1  0.73266780  0.33049949  0.65792890  1  0.169311  0.000582  0.110417  0.137011  -5.4e-05  1.039464  0.0
H  H40  1  0.35824714  0.12379678  0.57192093  1  0.076085  0.000714  0.107308  0.113615  0.000358  0.994962  0.0
H  H41  1  0.36887838  0.31028772  0.57587317  1  0.114147  0.00124  0.120191  0.08803  0.000352  1.009841  0.0
H  H42  1  0.44791910  0.02235357  0.59240138  1  0.024332  0.00027  0.097911  0.089461  0.000102  1.031771  0.0
H  H43  1  0.71405821  0.16358610  0.65378885  1  0.118911  0.000388  0.107537  0.118502  -8.9e-05  1.020989  0.0
H  H44  1  0.40823702  0.70120219  0.63653947  1  0.114631  0.001217  0.120781  0.093158  0.000359  1.013584  0.001
H  H45  1  0.42240861  0.88635305  0.63396083  1  0.093505  0.000705  0.104791  0.107981  0.000355  1.032002  0.0
H  H46  1  0.79082927  0.03095837  0.64089023  1  0.100325  0.00088  0.113471  0.12667  0.000417  0.980588  0.0
H  H47  1  0.75928329  0.83647474  0.64190225  1  0.086241  0.001348  0.125215  0.098581  0.000452  0.975446  0.0
H  H48  1  0.97378563  0.61807384  0.68879815  1  0.036414  4.3e-05  0.091718  0.132488  -6.4e-05  0.990968  0.0
H  H49  1  0.99463300  0.76430137  0.72185891  1  0.043635  0.000121  0.086658  0.121102  4.8e-05  1.003613  0.0
H  H50  1  0.10280861  0.74282419  0.76080282  1  0.029313  7.9e-05  0.079992  0.110949  8e-06  1.047343  0.0
H  H51  1  0.20789230  0.66759725  0.55185539  1  -0.008232  5.6e-05  0.081643  0.110931  -9e-06  1.022681  0.0
H  H52  1  0.09399018  0.55968139  0.58492610  1  0.042582  4.5e-05  0.084814  0.124184  1.9e-05  1.034725  0.0
H  H53  1  0.21838882  0.68172431  0.66440963  1  0.020241  7.7e-05  0.084151  0.118779  8e-06  1.006455  0.0
H  H54  1  0.25622108  0.89287212  0.70876118  1  0.009918  0.000102  0.08326  0.114709  7.1e-05  1.01754  0.0
H  H55  1  0.15278983  0.91929211  0.66764091  1  0.008575  4.2e-05  0.087167  0.121859  1.7e-05  1.000399  0.0
H  H56  1  0.23768986  0.87908236  0.59643556  1  0.008553  0.000134  0.078943  0.102248  8.2e-05  1.037199  0.0
H  H57  1  0.80098769  0.59176425  0.32839810  1  0.094885  0.000414  0.107409  0.115077  -0.000218  1.012335  0.0
H  H58  1  0.86220941  0.65191170  0.60333468  1  0.112225  9.3e-05  0.105265  0.108785  -0.000385  1.040084  0.0
H  H59  1  0.14262201  0.71932505  0.45808425  1  0.075553  0.000497  0.099233  0.096662  0.000262  1.032798  0.0
H  H60  1  0.77947619  0.50512287  0.15470709  1  0.114804  0.000932  0.122224  0.093913  0.000286  1.011746  0.0
H  H61  1  0.59756623  0.32997744  0.15737672  1  0.14957  0.000593  0.110127  0.135763  -4.7e-05  1.03927  0.0
H  H62  1  0.76571810  0.12336711  0.07234069  1  0.091136  0.000722  0.106783  0.112721  0.000362  0.996123  0.0
H  H63  1  0.94154007  0.30975870  0.07601139  1  0.112903  0.001233  0.120256  0.087811  0.000338  1.010269  0.0
H  H64  1  0.57434303  0.02190426  0.09265312  1  0.054681  0.000256  0.098017  0.089348  0.0001  1.032459  0.0
H  H65  1  0.44948921  0.16337591  0.15374993  1  0.121173  0.000381  0.107431  0.118026  -9e-05  1.020996  0.0
H  H66  1  0.29207046  0.70082092  0.13638506  1  0.133397  0.001214  0.120832  0.092722  0.000361  1.014852  0.001
H  H67  1  0.46332754  0.88595595  0.13408150  1  0.064239  0.000712  0.104862  0.108556  0.000353  1.031078  0.0
H  H68  1  0.24001277  0.03110631  0.14091547  1  0.094555  0.000886  0.113376  0.126164  0.00042  0.980752  0.0
H  H69  1  0.07670821  0.83654211  0.14156771  1  0.105171  0.001316  0.125231  0.098436  0.000451  0.975217  0.0
H  H70  1  0.35636518  0.38170153  0.81132630  1  0.055661  4.4e-05  0.091524  0.131979  -6.5e-05  0.991362  0.0
H  H71  1  0.23091441  0.23555784  0.77839171  1  0.055204  0.000119  0.086705  0.121101  4.7e-05  1.002182  0.0
H  H72  1  0.36056278  0.25681374  0.73934691  1  0.016114  7.9e-05  0.080151  0.110891  7e-06  1.047251  0.0
H  H73  1  0.54056200  0.33186592  0.94807263  1  0.016933  5.6e-05  0.081744  0.111017  -9e-06  1.02362  0.0
H  H74  1  0.53473772  0.43983630  0.91504247  1  0.002891  4.6e-05  0.085202  0.124491  1.8e-05  1.035354  0.0
H  H75  1  0.53699001  0.31766296  0.83548232  1  0.033207  7.6e-05  0.084608  0.119585  8e-06  1.005926  0.0
H  H76  1  0.36335884  0.10665147  0.79130224  1  0.013634  0.000103  0.08315  0.114659  7.2e-05  1.018123  0.0
H  H77  1  0.23360130  0.08063081  0.83263957  1  0.027743  4.2e-05  0.08693  0.121533  1.8e-05  1.000415  0.0
H  H78  1  0.35852010  0.12046143  0.90364595  1  -0.000369  0.000134  0.078878  0.101999  8.1e-05  1.037788  0.0
H  H79  1  0.20955406  0.40872850  0.17189136  1  0.119767  0.000387  0.106995  0.114642  -0.000222  1.013194  0.0
H  H80  1  0.21120869  0.34847224  0.89696656  1  0.084475  0.000109  0.105127  0.108399  -0.000384  1.040527  0.0
H  H81  1  0.42346700  0.28054011  0.04211421  1  0.056858  0.000518  0.099035  0.096205  0.000265  1.032897  0.0
H  H82  1  0.27395559  0.49411931  0.34442570  1  0.102308  0.000922  0.121791  0.093182  0.000275  1.01257  0.0
H  H83  1  0.26731681  0.66951083  0.34205591  1  0.169027  0.000583  0.110334  0.13676  -5.4e-05  1.039857  0.0
H  H84  1  0.64171946  0.87615673  0.42807931  1  0.077333  0.000714  0.107291  0.113397  0.000357  0.994997  0.0
H  H85  1  0.63104903  0.68967075  0.42416152  1  0.114792  0.001238  0.120118  0.088001  0.000351  1.010087  0.0
H  H86  1  0.55208702  0.97763877  0.40757247  1  0.02436  0.00027  0.097923  0.089494  0.000102  1.031794  0.0
H  H87  1  0.28595228  0.83644622  0.34617610  1  0.12185  0.000383  0.1076  0.118528  -8.8e-05  1.021021  0.0
H  H88  1  0.59175505  0.29883496  0.36345193  1  0.109748  0.001217  0.120874  0.093223  0.000359  1.013818  0.001
H  H89  1  0.57762382  0.11369491  0.36603896  1  0.093304  0.000705  0.104751  0.108071  0.000355  1.031825  0.0
H  H90  1  0.20917160  0.96902941  0.35907566  1  0.099764  0.00088  0.113453  0.12673  0.000417  0.980449  0.0
H  H91  1  0.24071362  0.16352298  0.35807367  1  0.086225  0.001348  0.125185  0.098542  0.000452  0.97548  0.0
C  C92  1  0.96170117  0.28721004  0.29680093  1  -0.102339  0.000105  -0.245366  -0.417064  4.7e-05  3.900694  0.0
C  C93  1  0.84169812  0.34457390  0.39500537  1  -0.025335  3.4e-05  -0.243856  -0.411647  -3e-05  3.87718  0.0
C  C94  1  0.80805039  0.13674525  0.34904291  1  -0.053342  4.7e-05  -0.242526  -0.414375  4.5e-05  3.909439  0.0
C  C95  1  0.02211466  0.33908833  0.61329535  1  -0.04783  -0.001318  -0.021287  -0.029347  -0.002459  4.015822  -0.002
C  C96  1  0.13957273  0.37928407  0.61187622  1  -0.004687  0.007987  -0.081775  -0.116394  0.005833  3.944921  0.005
C  C97  1  0.18009272  0.38406194  0.53370193  1  -0.056728  0.001921  -0.022998  -0.039826  0.000428  4.021273  0.0
C  C98  1  0.10300905  0.34589217  0.45676240  1  -0.081542  0.00778  -0.084625  -0.147268  0.005823  3.928621  0.005
C  C99  1  0.98587277  0.30840048  0.45738212  1  0.029239  -0.001421  -0.004599  0.064463  -0.001655  3.884382  -0.001
C  C100  1  0.94722222  0.30664026  0.53716059  1  -0.073774  0.008995  -0.084443  -0.145513  0.007011  3.937399  0.005
C  C101  1  0.98018809  0.34054421  0.69835707  1  1.533125  0.008277  0.194225  0.548699  0.010484  4.234529  0.006
C  C102  1  0.30600162  0.43093444  0.53139644  1  1.575113  0.02301  0.223855  0.586117  0.023091  4.198192  0.021
C  C103  1  0.90093693  0.27005889  0.37499781  1  0.059874  0.000112  -0.013219  0.237527  5e-05  3.801654  0.0
C  C104  1  0.22814754  0.58190488  0.86373028  1  0.429392  0.010294  0.05048  0.098038  0.007554  3.937342  0.006
C  C105  1  0.32949113  0.68049422  0.86240087  1  -0.01292  0.000111  -0.081075  -0.173495  -0.000909  3.889437  0.0
C  C106  1  0.33485202  0.79100642  0.88587249  1  -0.036551  0.011415  0.00207  0.138682  0.008732  4.046828  0.007
C  C107  1  0.23502770  0.79356154  0.90876434  1  -0.043144  0.000418  -0.08401  -0.184286  -0.000562  3.968007  0.0
C  C108  1  0.13680621  0.69005098  0.90730580  1  0.454405  0.011776  0.051508  0.099671  0.009131  3.966316  0.007
C  C109  1  0.43572927  0.90009673  0.88667884  1  -0.103405  0.00542  -0.084413  -0.120498  0.004329  3.979787  0.002
C  C110  1  0.53748028  0.91284963  0.86501197  1  -0.022198  0.011352  -0.082251  -0.126868  0.008951  3.941328  0.006
C  C111  1  0.71534057  0.22397874  0.86386689  1  0.463264  0.007998  0.050264  0.091777  0.006374  3.957048  0.005
C  C112  1  0.62079385  0.12067363  0.86601562  1  -0.037352  0.002626  -0.084376  -0.178592  0.001476  3.939299  0.001
C  C113  1  0.63367795  0.02479791  0.86478044  1  0.042422  0.008496  0.006232  0.147915  0.006433  4.03432  0.005
C  C114  1  0.74506712  0.04074790  0.86163852  1  -0.101139  0.002148  -0.083136  -0.187824  0.001009  3.944807  0.001
C  C115  1  0.83573736  0.14781880  0.86041236  1  0.525145  0.009791  0.052856  0.093849  0.007407  3.959507  0.006
C  C116  1  0.67388325  0.71297153  0.20302303  1  -0.113588  0.000104  -0.24554  -0.416693  4.5e-05  3.899833  0.0
C  C117  1  0.49673414  0.65587714  0.10500813  1  -0.03056  3.5e-05  -0.244888  -0.41296  -2.9e-05  3.878672  0.0
C  C118  1  0.67120058  0.86352536  0.15077786  1  -0.068627  4.9e-05  -0.242066  -0.413318  4.7e-05  3.910963  0.0
C  C119  1  0.68270218  0.66052029  0.88645483  1  -0.069036  -0.001265  -0.021161  -0.028904  -0.002422  4.016303  -0.002
C  C120  1  0.75983346  0.62018995  0.88785655  1  -0.052227  0.007917  -0.081208  -0.116614  0.005756  3.946896  0.005
C  C121  1  0.79543506  0.61546888  0.96604666  1  -0.042579  0.001944  -0.022984  -0.039253  0.000477  4.020826  0.001
C  C122  1  0.75639293  0.65374302  0.04295955  1  -0.0274  0.007651  -0.084565  -0.146611  0.005741  3.930764  0.005
C  C123  1  0.67692251  0.69145813  0.04237040  1  -0.013181  -0.001375  -0.004946  0.062691  -0.001626  3.886126  -0.001
C  C124  1  0.64021594  0.69321011  0.96260722  1  -0.011687  0.008826  -0.084425  -0.144162  0.006916  3.936975  0.005
C  C125  1  0.63970020  0.65924280  0.80143436  1  1.534687  0.008157  0.193636  0.546434  0.010338  4.237845  0.006
C  C126  1  0.87464057  0.56874811  0.96844214  1  1.558107  0.022759  0.2233  0.585796  0.022847  4.198334  0.021
C  C127  1  0.63044433  0.73014249  0.12484243  1  0.063912  0.000111  -0.012938  0.238119  4.9e-05  3.802426  0.0
C  C128  1  0.64664572  0.41880275  0.63685530  1  0.464389  0.010163  0.051106  0.099482  0.007489  3.938687  0.006
C  C129  1  0.64935788  0.32010835  0.63799912  1  -0.042388  0.000228  -0.081687  -0.176686  -0.00084  3.89111  0.0
C  C130  1  0.54426395  0.20952833  0.61414818  1  -0.032649  0.011256  0.002589  0.141605  0.008615  4.044942  0.007
C  C131  1  0.44199849  0.20695849  0.59106697  1  -0.036214  0.00046  -0.08484  -0.18695  -0.000497  3.968817  0.0
C  C132  1  0.44733108  0.31054465  0.59274398  1  0.470061  0.011631  0.05146  0.099809  0.009049  3.96754  0.007
C  C133  1  0.53596757  0.10037873  0.61320142  1  -0.061106  0.00564  -0.084464  -0.121519  0.004498  3.978968  0.002
C  C134  1  0.62477960  0.08749913  0.63497298  1  -0.03082  0.011194  -0.083003  -0.127155  0.008844  3.939582  0.006
C  C135  1  0.49093521  0.77638790  0.63631808  1  0.43949  0.008095  0.050543  0.091035  0.006404  3.956158  0.005
C  C136  1  0.49982707  0.87966265  0.63399536  1  -0.019164  0.002572  -0.084408  -0.177256  0.001463  3.93814  0.001
C  C137  1  0.60872198  0.97546074  0.63522401  1  0.007853  0.008697  0.006153  0.146763  0.00658  4.033765  0.005
C  C138  1  0.70401058  0.95929901  0.63842648  1  -0.076919  0.002092  -0.083283  -0.188631  0.00096  3.945836  0.001
C  C139  1  0.68744743  0.85224766  0.63983950  1  0.540844  0.009886  0.05352  0.094608  0.007496  3.958986  0.006
C  C140  1  0.03830946  0.71276310  0.70320149  1  -0.103197  0.000106  -0.245515  -0.417454  4.7e-05  3.900792  0.0
C  C141  1  0.15829917  0.65540081  0.60498153  1  -0.025956  3.4e-05  -0.243802  -0.411238  -3e-05  3.877047  0.0
C  C142  1  0.19193499  0.86322049  0.65094037  1  -0.054312  4.7e-05  -0.242467  -0.414057  4.5e-05  3.909613  0.0
C  C143  1  0.97782381  0.66085354  0.38670055  1  -0.050706  -0.001321  -0.021552  -0.029799  -0.002467  4.015504  -0.002
C  C144  1  0.86036852  0.62064999  0.38813475  1  -0.003796  0.007995  -0.081546  -0.116139  0.005839  3.944341  0.005
C  C145  1  0.81984922  0.61588392  0.46632447  1  -0.056656  0.001923  -0.022991  -0.039622  0.00043  4.020567  0.0
C  C146  1  0.89695241  0.65405700  0.54324649  1  -0.08312  0.007794  -0.08451  -0.147381  0.005835  3.928307  0.005
C  C147  1  0.01410167  0.69154934  0.54260915  1  0.030859  -0.001424  -0.004575  0.064922  -0.001658  3.883884  -0.001
C  C148  1  0.05273340  0.69330616  0.46284204  1  -0.074099  0.009001  -0.084388  -0.145523  0.007015  3.937675  0.005
C  C149  1  0.01977329  0.65948515  0.30165003  1  1.535993  0.008292  0.194011  0.548202  0.010515  4.235338  0.006
C  C150  1  0.69394441  0.56904638  0.46864424  1  1.574068  0.023043  0.223841  0.586516  0.023105  4.198313  0.021
C  C151  1  0.09905700  0.72991504  0.62499747  1  0.060565  0.000112  -0.013073  0.23754  5e-05  3.801521  0.0
C  C152  1  0.77188953  0.41813155  0.13627316  1  0.428601  0.010292  0.050517  0.098196  0.007553  3.937249  0.006
C  C153  1  0.67054874  0.31954928  0.13759895  1  -0.01063  9.6e-05  -0.081209  -0.173956  -0.000921  3.88934  0.0
C  C154  1  0.66519065  0.20903077  0.11412196  1  -0.039287  0.011415  0.002034  0.139118  0.00873  4.046625  0.007
C  C155  1  0.76501088  0.20647046  0.09124098  1  -0.042948  0.000398  -0.084156  -0.184938  -0.00058  3.968104  0.0
C  C156  1  0.86324179  0.30999539  0.09270828  1  0.454708  0.011781  0.051667  0.100127  0.009133  3.966435  0.007
C  C157  1  0.56431903  0.09994577  0.11331335  1  -0.104292  0.005373  -0.084324  -0.120658  0.004294  3.97954  0.002
C  C158  1  0.46257315  0.08720463  0.13499319  1  -0.021102  0.011347  -0.08229  -0.126849  0.008947  3.940803  0.006
C  C159  1  0.28470244  0.77606213  0.13613590  1  0.463893  0.007993  0.050283  0.091777  0.00637  3.956828  0.005
C  C160  1  0.37925334  0.87936813  0.13398741  1  -0.042375  0.002619  -0.084327  -0.178536  0.00147  3.938985  0.001
C  C161  1  0.36637163  0.97525013  0.13522550  1  0.041953  0.008468  0.006288  0.147814  0.006413  4.034133  0.005
C  C162  1  0.25497963  0.95930193  0.13836852  1  -0.102043  0.002151  -0.083209  -0.188125  0.001011  3.944962  0.001
C  C163  1  0.16430585  0.85222841  0.13959764  1  0.526554  0.00978  0.053075  0.094255  0.007402  3.959098  0.006
C  C164  1  0.32611501  0.28700511  0.79697482  1  -0.115107  0.000103  -0.245722  -0.417028  4.5e-05  3.90018  0.0
C  C165  1  0.50325774  0.34409864  0.89499133  1  -0.030315  3.5e-05  -0.244783  -0.41271  -2.9e-05  3.878644  0.0
C  C166  1  0.32880347  0.13645394  0.84921885  1  -0.06921  4.9e-05  -0.242208  -0.413678  4.7e-05  3.911149  0.0
C  C167  1  0.31727588  0.33945019  0.11354812  1  -0.066414  -0.00127  -0.021114  -0.028982  -0.002428  4.016698  -0.002
C  C168  1  0.24016020  0.37979833  0.11214503  1  -0.0542  0.00792  -0.081043  -0.116402  0.005759  3.94693  0.005
C  C169  1  0.20456622  0.38454804  0.03396321  1  -0.041379  0.001948  -0.023037  -0.039303  0.000481  4.020611  0.001
C  C170  1  0.24360879  0.34626138  0.95704758  1  -0.029209  0.007657  -0.084653  -0.146752  0.005746  3.930576  0.005
C  C171  1  0.32305854  0.30852130  0.95763494  1  -0.020672  -0.001377  -0.004871  0.062673  -0.001629  3.886103  -0.001
C  C172  1  0.35974723  0.30674693  0.03739029  1  -0.0021  0.008827  -0.084437  -0.144168  0.006918  3.937341  0.005
C  C173  1  0.36028218  0.34073035  0.19856869  1  1.534698  0.008181  0.193892  0.546755  0.010359  4.237342  0.006
C  C174  1  0.12540160  0.43131342  0.03157171  1  1.55868  0.02273  0.223439  0.586341  0.022819  4.198068  0.021
C  C175  1  0.36954724  0.26983862  0.87515662  1  0.06405  0.000111  -0.012799  0.238468  4.9e-05  3.802016  0.0
C  C176  1  0.35328958  0.58118185  0.36313735  1  0.464901  0.010179  0.050989  0.099346  0.007501  3.93838  0.006
C  C177  1  0.35060083  0.67987695  0.36198022  1  -0.041533  0.000227  -0.08156  -0.176364  -0.00084  3.891326  0.0
C  C178  1  0.45571722  0.79045875  0.38583163  1  -0.033347  0.011298  0.002584  0.141405  0.008648  4.044861  0.007
C  C179  1  0.55796169  0.79300299  0.40892928  1  -0.037401  0.000465  -0.084686  -0.186176  -0.000496  3.96829  0.0
C  C180  1  0.55260721  0.68940729  0.40727118  1  0.471279  0.011656  0.051419  0.099338  0.009075  3.967534  0.007
C  C181  1  0.46403853  0.89961804  0.38677055  1  -0.060669  0.005648  -0.08447  -0.121527  0.004504  3.979299  0.002
C  C182  1  0.37523259  0.91251278  0.36499877  1  -0.033973  0.011253  -0.083184  -0.127378  0.008889  3.939733  0.006
C  C183  1  0.50907250  0.22364038  0.36367645  1  0.444495  0.0081  0.050374  0.091004  0.006406  3.956429  0.005
C  C184  1  0.50018779  0.12036655  0.36600125  1  -0.019287  0.002583  -0.084287  -0.177287  0.001471  3.938297  0.001
C  C185  1  0.39130143  0.02456471  0.36475932  1  0.007064  0.008704  0.006273  0.146834  0.006584  4.033871  0.005
C  C186  1  0.29599659  0.04069691  0.36154895  1  -0.076451  0.002106  -0.083264  -0.18858  0.000972  3.945584  0.001
C  C187  1  0.31254430  0.14774119  0.36013955  1  0.540965  0.009891  0.053464  0.094578  0.0075  3.958857  0.006
N  N188  1  0.13225474  0.58495169  0.88559315  1  -1.247212  0.051375  -0.318041  -0.247982  0.032622  3.486433  0.016
N  N189  1  0.82167223  0.23814949  0.86081021  1  -1.261286  0.05348  -0.318945  -0.238202  0.034445  3.506639  0.018
N  N190  1  0.54781433  0.41573373  0.61482256  1  -1.268698  0.051102  -0.318435  -0.247941  0.032529  3.488816  0.016
N  N191  1  0.58301385  0.76210166  0.63956688  1  -1.2685  0.05337  -0.319772  -0.238932  0.034461  3.506666  0.018
N  N192  1  0.86778652  0.41508122  0.11441425  1  -1.247416  0.051317  -0.318165  -0.248245  0.03261  3.48674  0.016
N  N193  1  0.17836188  0.76189141  0.13919504  1  -1.261177  0.053475  -0.319135  -0.238511  0.034442  3.506806  0.018
N  N194  1  0.45211828  0.58422618  0.38518861  1  -1.270798  0.051134  -0.318461  -0.247704  0.032528  3.487637  0.016
N  N195  1  0.41698046  0.23789980  0.36042169  1  -1.267848  0.053402  -0.319734  -0.239008  0.034465  3.50693  0.018
O  O196  1  0.03693012  0.33406344  0.75764208  1  -1.197379  0.059261  -0.329164  -0.567226  0.04067  2.21932  0.031
O  O197  1  0.89393641  0.35456160  0.71212479  1  -1.186556  0.046919  -0.316553  -0.562489  0.034196  2.170961  0.029
O  O198  1  0.33237322  0.39029604  0.45852779  1  -1.216279  0.078457  -0.310395  -0.573842  0.05702  2.431408  0.037
O  O199  1  0.37826179  0.50724949  0.60333681  1  -1.206055  0.073693  -0.30903  -0.546584  0.050992  2.35135  0.031
O  O200  1  0.70352009  0.66692140  0.74251339  1  -1.185435  0.058307  -0.328776  -0.566742  0.040251  2.217018  0.031
O  O201  1  0.53898330  0.64414274  0.78736060  1  -1.186542  0.047705  -0.316695  -0.561223  0.03466  2.170879  0.029
O  O202  1  0.94108377  0.60909930  0.04145184  1  -1.219995  0.078494  -0.310235  -0.573698  0.057018  2.432057  0.037
O  O203  1  0.87125015  0.49285127  0.89644583  1  -1.203012  0.073765  -0.308872  -0.54731  0.050736  2.350226  0.031
O  O204  1  0.96306917  0.66603581  0.24239171  1  -1.198467  0.059326  -0.328957  -0.566893  0.040685  2.219721  0.031
O  O205  1  0.10602432  0.64547089  0.28785127  1  -1.18551  0.04705  -0.316358  -0.561962  0.034282  2.171211  0.029
O  O206  1  0.66760503  0.60967785  0.54152695  1  -1.215432  0.078437  -0.310458  -0.573958  0.057027  2.432323  0.037
O  O207  1  0.62166338  0.49277146  0.39670482  1  -1.206292  0.073707  -0.309114  -0.546976  0.051002  2.351506  0.031
O  O208  1  0.29646442  0.33306348  0.25749954  1  -1.185615  0.058351  -0.328996  -0.566952  0.040279  2.216984  0.031
O  O209  1  0.46099297  0.35581968  0.21263957  1  -1.186557  0.04772  -0.316706  -0.561166  0.034685  2.170858  0.029
O  O210  1  0.05898438  0.39098886  0.95855565  1  -1.220076  0.078499  -0.310433  -0.574042  0.057035  2.432457  0.037
O  O211  1  0.12878562  0.50720040  0.10356477  1  -1.203134  0.073693  -0.308832  -0.547541  0.050728  2.349657  0.031
