# generated using pymatgen
data_AlH21(C5O)6
_symmetry_space_group_name_H-M   'P 1'
_cell_length_a   4.00378829
_cell_length_b   15.96709264
_cell_length_c   16.07325477
_cell_angle_alpha   119.86629888
_cell_angle_beta   88.42815861
_cell_angle_gamma   91.21254678
_symmetry_Int_Tables_number   1
_chemical_formula_structural   AlH21(C5O)6
_chemical_formula_sum   'Al1 H21 C30 O6'
_cell_volume   890.70775170
_cell_formula_units_Z   1
loop_
 _symmetry_equiv_pos_site_id
 _symmetry_equiv_pos_as_xyz
  1  'x, y, z'
loop_
 _atom_site_type_symbol
 _atom_site_label
 _atom_site_symmetry_multiplicity
 _atom_site_fract_x
 _atom_site_fract_y
 _atom_site_fract_z
 _atom_site_occupancy
 _atom_site_pbe_bader_charge
 _atom_site_pbe_bader_spin_density
 _atom_site_pbe_cm5_charge
 _atom_site_pbe_ddec_charge
 _atom_site_pbe_ddec_spin_density
 _atom_site_pbe_ddec_sum_bond_order
 _atom_site_pbe_magmom
Al  Al0  1  0.00644784  0.50188698  0.50137530  1  2.505522  0  0.428276  1.595636  0  2.574653  0
H  H1  1  0.50302264  0.92539339  0.07983888  1  0.053654  0  0.097358  0.09304  0  1.034183  0
H  H2  1  0.45969605  0.65375784  0.07484790  1  0.045454  0  0.096834  0.092709  0  1.033122  0
H  H3  1  0.51636650  0.91920518  0.34394672  1  0.082443  0  0.096889  0.09307  0  1.032853  0
H  H4  1  0.78119372  0.23729409  0.25736648  1  0.060437  0  0.105197  0.109013  0  0.987988  0
H  H5  1  0.79250460  0.05865025  0.16593590  1  0.052804  0  0.098478  0.098681  0  1.008945  0
H  H6  1  0.22233658  0.05146012  0.39357518  1  0.02149  0  0.098114  0.101629  0  1.009955  0
H  H7  1  0.23749725  0.84265837  0.94721841  1  0.065071  0  0.098476  0.101752  0  1.009669  0
H  H8  1  0.75722565  0.51993574  0.76574060  1  0.04357  0  0.105954  0.110449  0  0.984718  0
H  H9  1  0.76319207  0.60807072  0.94315178  1  0.051626  0  0.097816  0.097443  0  1.011612  0
H  H10  1  0.75195236  0.60377436  0.15406743  1  0.035729  0  0.097938  0.099516  0  1.018393  0
H  H11  1  0.22916856  0.73814053  0.47688296  1  0.078397  0  0.106849  0.110855  0  0.993032  0
H  H12  1  0.21148824  0.83163408  0.39165773  1  0.063218  0  0.099207  0.100242  0  1.00698  0
H  H13  1  0.31348307  0.22231901  0.56409240  1  0.0382  0  0.087875  0.120388  0  0.999554  0
H  H14  1  0.19343290  0.32100992  0.55025018  1  0.066102  0  0.096418  0.143087  0  1.012219  0
H  H15  1  0.92440041  0.21979350  0.51252130  1  0.041013  0  0.090774  0.131278  0  1.022712  0
H  H16  1  0.31306183  0.84764747  0.78728954  1  0.015768  0  0.088283  0.120505  0  0.999874  0
H  H17  1  0.27109276  0.73509832  0.67968348  1  0.074387  0  0.096171  0.14287  0  1.007113  0
H  H18  1  0.94112573  0.77792738  0.76575347  1  0.035779  0  0.092104  0.135983  0  1.02605  0
H  H19  1  0.05724264  0.48277017  0.24677707  1  0.085663  0  0.094057  0.137582  0  1.023372  0
H  H20  1  0.66016271  0.42811972  0.22960271  1  0.070378  0  0.09465  0.137537  0  0.995371  0
H  H21  1  0.82953966  0.45715362  0.14308436  1  0.045847  0  0.086636  0.118483  0  1.003676  0
C  C22  1  0.49853643  0.57660903  0.64946700  1  1.553317  0  0.28302  0.67431  0  4.049019  0
C  C23  1  0.51603453  0.57208130  0.42377838  1  1.528275  0  0.275039  0.656509  0  4.0552  0
C  C24  1  0.50083174  0.35264564  0.42966391  1  1.556132  0  0.281485  0.672997  0  4.056249  0
C  C25  1  0.49040384  0.78335204  0.06473615  1  0.067544  0  -0.005574  0.083493  0  4.012633  0
C  C26  1  0.49804797  0.88457621  0.11768466  1  -0.154251  0  -0.088335  -0.174064  0  3.922796  0
C  C27  1  0.49920505  0.93474827  0.21827562  1  0.067414  0  -0.005736  0.083967  0  4.013373  0
C  C28  1  0.49774658  0.88136774  0.26601473  1  -0.146387  0  -0.089488  -0.177172  0  3.93103  0
C  C29  1  0.48796144  0.78012955  0.21530992  1  0.067909  0  -0.007877  0.077688  0  4.01871  0
C  C30  1  0.48136810  0.73227508  0.11482669  1  -0.074554  0  -0.089308  -0.175801  0  3.92962  0
C  C31  1  0.65513560  0.19579521  0.28627399  1  -0.026166  0  -0.087772  -0.096982  0  4.015806  0
C  C32  1  0.65871588  0.09546584  0.23475679  1  0.002304  0  -0.093841  -0.138073  0  4.008968  0
C  C33  1  0.50398047  0.04154502  0.27269797  1  -0.080511  0  -0.008965  0.069285  0  4.021036  0
C  C34  1  0.35226115  0.09192808  0.36398787  1  0.051445  0  -0.09184  -0.192958  0  3.940095  0
C  C35  1  0.34914653  0.19286047  0.41790259  1  -0.060042  0  -0.003833  0.153656  0  3.963835  0
C  C36  1  0.49991514  0.24456630  0.37710458  1  -0.014265  0  -0.009783  -0.093289  0  3.922817  0
C  C37  1  0.35647395  0.77212888  0.90769507  1  -0.114099  0  -0.091821  -0.191301  0  3.937674  0
C  C38  1  0.35771267  0.72474735  0.80734874  1  0.029811  0  -0.003118  0.152746  0  3.966194  0
C  C39  1  0.49504294  0.63179556  0.75684383  1  0.013006  0  -0.010608  -0.09568  0  3.92608  0
C  C40  1  0.63742069  0.59011601  0.80614079  1  0.013262  0  -0.087136  -0.094603  0  4.013688  0
C  C41  1  0.63761019  0.63938406  0.90581823  1  0.008011  0  -0.094597  -0.139713  0  4.010348  0
C  C42  1  0.49222061  0.73117828  0.95861091  1  -0.018174  0  -0.008605  0.069889  0  4.020524  0
C  C43  1  0.63607214  0.63379897  0.22538349  1  0.087248  0  -0.092524  -0.199185  0  3.926632  0
C  C44  1  0.65157020  0.58016981  0.27227299  1  -0.058133  0  0.006189  0.178049  0  3.930996  0
C  C45  1  0.50866948  0.62072819  0.36571424  1  0.059038  0  -0.015654  -0.118454  0  3.924933  0
C  C46  1  0.34968592  0.71063929  0.40663446  1  -0.088227  0  -0.080913  -0.075461  0  4.003545  0
C  C47  1  0.34264141  0.76297379  0.35907627  1  -0.051611  0  -0.094689  -0.145684  0  4.004508  0
C  C48  1  0.48912910  0.72533991  0.26702956  1  -0.0301  0  -0.000471  0.088851  0  4.001971  0
C  C49  1  0.18747836  0.24215459  0.51641433  1  -0.074865  0  -0.239574  -0.414748  0  3.954124  0
C  C50  1  0.21424798  0.77358658  0.75692472  1  -0.052074  0  -0.240805  -0.417947  0  3.956989  0
C  C51  1  0.80705301  0.48166531  0.22005230  1  -0.137486  0  -0.240761  -0.415749  0  3.968262  0
O  O52  1  0.27014473  0.39405010  0.41063407  1  -1.26043  0  -0.23651  -0.597605  0  2.348349  0
O  O53  1  0.26163580  0.51633988  0.60830122  1  -1.258373  0  -0.236936  -0.598814  0  2.351787  0
O  O54  1  0.28392204  0.59244949  0.48743823  1  -1.267743  0  -0.245764  -0.61894  0  2.388066  0
O  O55  1  0.73333284  0.39616979  0.48905967  1  -1.26197  0  -0.232251  -0.593933  0  2.374719  0
O  O56  1  0.75364445  0.51372302  0.40872966  1  -1.252747  0  -0.233535  -0.593927  0  2.396934  0
O  O57  1  0.73995527  0.59341658  0.60639220  1  -1.255058  0  -0.231464  -0.593109  0  2.378472  0
