# generated using pymatgen
data_Zn3H10C47Br5O12
_symmetry_space_group_name_H-M   'P 1'
_cell_length_a   17.03690316
_cell_length_b   17.03691703
_cell_length_c   17.36657901
_cell_angle_alpha   65.25452354
_cell_angle_beta   65.25548091
_cell_angle_gamma   65.92097716
_symmetry_Int_Tables_number   1
_chemical_formula_structural   Zn3H10C47Br5O12
_chemical_formula_sum   'Zn6 H20 C94 Br10 O24'
_cell_volume   3988.54213361
_cell_formula_units_Z   2
loop_
 _symmetry_equiv_pos_site_id
 _symmetry_equiv_pos_as_xyz
  1  'x, y, z'
loop_
 _atom_site_type_symbol
 _atom_site_label
 _atom_site_symmetry_multiplicity
 _atom_site_fract_x
 _atom_site_fract_y
 _atom_site_fract_z
 _atom_site_occupancy
 _atom_site_pbe_bader_charge
 _atom_site_pbe_bader_spin_density
 _atom_site_pbe_cm5_charge
 _atom_site_pbe_ddec_charge
 _atom_site_pbe_ddec_spin_density
 _atom_site_pbe_ddec_sum_bond_order
 _atom_site_pbe_magmom
Zn  Zn0  1  0.57779706  0.99493749  0.49855565  1  1.301365  0  0.735819  0.973348  0  2.094622  0
Zn  Zn1  1  0.42219959  0.00508444  0.50141634  1  1.301951  0  0.735704  0.9732  0  2.095088  0
Zn  Zn2  1  0.00508225  0.42219910  0.50143291  1  1.30148  0  0.735799  0.973407  0  2.09488  0
Zn  Zn3  1  0.99492117  0.57780010  0.49857781  1  1.302057  0  0.73584  0.973381  0  2.09478  0
Zn  Zn4  1  0.99922908  0.99922845  0.07388400  1  1.29067  0  0.732977  0.967961  0  2.081895  0
Zn  Zn5  1  0.00077849  0.00076778  0.92610666  1  1.291708  0  0.732889  0.967838  0  2.081989  0
H  H6  1  0.78452907  0.42014140  0.54278653  1  0.1724  0  0.093538  0.117141  0  1.104855  0
H  H7  1  0.21546351  0.57985937  0.45724407  1  0.172513  0  0.093559  0.117057  0  1.104877  0
H  H8  1  0.57985963  0.21547217  0.45723604  1  0.172672  0  0.09356  0.117068  0  1.104756  0
H  H9  1  0.42015377  0.78454438  0.54275322  1  0.172373  0  0.093497  0.117054  0  1.105031  0
H  H10  1  0.26954257  0.99259423  0.76703922  1  0.133664  0  0.10983  0.12735  0  1.003571  0
H  H11  1  0.73045541  0.00742600  0.23293810  1  0.133745  0  0.109761  0.127279  0  1.003558  0
H  H12  1  0.00739636  0.73046069  0.23295800  1  0.133836  0  0.109868  0.127449  0  1.003491  0
H  H13  1  0.99258489  0.26954138  0.76705363  1  0.133744  0  0.109805  0.127377  0  1.003352  0
H  H14  1  0.24810050  0.89517693  0.07490692  1  0.098202  0  0.107963  0.124214  0  0.995942  0
H  H15  1  0.75190102  0.10482620  0.92507303  1  0.097983  0  0.107971  0.124231  0  0.995898  0
H  H16  1  0.10481013  0.75190295  0.92509462  1  0.098208  0  0.107904  0.124222  0  0.995867  0
H  H17  1  0.89517995  0.24808634  0.07492265  1  0.097818  0  0.107949  0.12419  0  0.995933  0
H  H18  1  0.33847284  0.88697143  0.15576451  1  0.097488  0  0.087878  0.097495  0  1.075159  0
H  H19  1  0.66154094  0.11301544  0.84421246  1  0.097145  0  0.08793  0.097712  0  1.075083  0
H  H20  1  0.11301853  0.66152828  0.84424224  1  0.097587  0  0.087902  0.097475  0  1.075087  0
H  H21  1  0.88697362  0.33845266  0.15578277  1  0.097172  0  0.087965  0.097763  0  1.075066  0
H  H22  1  0.55611363  0.03738656  0.69351754  1  0.123612  0  0.103003  0.132399  0  1.047461  0
H  H23  1  0.44390097  0.96258785  0.30645666  1  0.123498  0  0.103025  0.132439  0  1.04741  0
H  H24  1  0.96258125  0.44389046  0.30648755  1  0.123376  0  0.103032  0.132442  0  1.047279  0
H  H25  1  0.03739657  0.55611052  0.69354262  1  0.123813  0  0.103022  0.132479  0  1.047521  0
C  C26  1  0.43373297  0.99915708  0.66510067  1  1.538486  0  0.220529  0.602247  0  4.13273  0
C  C27  1  0.56626850  0.00085515  0.33486928  1  1.538653  0  0.220684  0.602606  0  4.133216  0
C  C28  1  0.00084101  0.56627052  0.33489419  1  1.538181  0  0.22055  0.602253  0  4.133081  0
C  C29  1  0.99916102  0.43373226  0.66511852  1  1.538864  0  0.22065  0.602522  0  4.133666  0
C  C30  1  0.40923454  0.40923558  0.47403076  1  -0.057809  0  -0.000195  -0.0148  0  3.932922  0
C  C31  1  0.59076746  0.59076913  0.52598521  1  -0.05744  0  -0.000235  -0.0147  0  3.932694  0
C  C32  1  0.71803095  0.45464130  0.53468994  1  0.007043  0  -0.089728  -0.161284  0  3.901605  0
C  C33  1  0.28196836  0.54536023  0.46533475  1  0.008303  0  -0.089767  -0.161312  0  3.901614  0
C  C34  1  0.54535961  0.28197473  0.46532887  1  0.008082  0  -0.089738  -0.16124  0  3.901429  0
C  C35  1  0.45465108  0.71803993  0.53467031  1  0.00775  0  -0.08977  -0.161409  0  3.901765  0
C  C36  1  0.45559106  0.99340028  0.94929988  1  0.004642  0  0.006763  0.013224  0  3.894602  0
C  C37  1  0.54443158  0.00657645  0.05066954  1  0.004702  0  0.006751  0.013116  0  3.89453  0
C  C38  1  0.00657538  0.54441537  0.05070081  1  0.004086  0  0.006796  0.013016  0  3.894801  0
C  C39  1  0.99340722  0.45557654  0.94933110  1  0.004628  0  0.006775  0.013219  0  3.894384  0
C  C40  1  0.53631906  0.02233701  0.90420377  1  0.020426  0  -0.000537  -0.010207  0  3.938231  0
C  C41  1  0.46369751  0.97764203  0.09576948  1  0.020947  0  -0.000747  -0.01043  0  3.938509  0
C  C42  1  0.97764206  0.46368782  0.09579213  1  0.020602  0  -0.000438  -0.009901  0  3.938413  0
C  C43  1  0.02234324  0.53630727  0.90422990  1  0.022085  0  -0.000617  -0.010265  0  3.93834  0
C  C44  1  0.57687876  0.03325993  0.95529931  1  -0.008801  0  0.00011  0.046594  0  3.957577  0
C  C45  1  0.42314249  0.96672106  0.04467126  1  -0.008823  0  9.9e-05  0.04636  0  3.957935  0
C  C46  1  0.96672105  0.42312834  0.04469656  1  -0.008666  0  4e-05  0.046371  0  3.957733  0
C  C47  1  0.03326493  0.57686527  0.95532695  1  -0.009849  0  -5e-06  0.046259  0  3.957989  0
C  C48  1  0.32409246  0.96554517  0.94629661  1  0.022926  0  0.010506  0.086755  0  3.972  0
C  C49  1  0.67591321  0.03444651  0.05368169  1  0.023344  0  0.010554  0.087234  0  3.972142  0
C  C50  1  0.03443405  0.67591377  0.05370529  1  0.021988  0  0.010476  0.086706  0  3.971902  0
C  C51  1  0.96554587  0.32408542  0.94631093  1  0.023293  0  0.010632  0.087108  0  3.972134  0
C  C52  1  0.27074594  0.97619915  0.89571543  1  -0.016769  0  -0.015284  -0.089555  0  3.927516  0
C  C53  1  0.72926160  0.02380947  0.10425409  1  -0.016095  0  -0.015177  -0.089878  0  3.927459  0
C  C54  1  0.02378363  0.72926711  0.10428172  1  -0.016171  0  -0.015266  -0.089777  0  3.927581  0
C  C55  1  0.97619425  0.27073327  0.89573772  1  -0.016183  0  -0.015215  -0.089752  0  3.92762  0
C  C56  1  0.30866935  0.99007708  0.80439693  1  -0.018542  0  -0.071798  -0.085397  0  3.964589  0
C  C57  1  0.69132940  0.00993782  0.19557418  1  -0.018846  0  -0.071823  -0.085224  0  3.964262  0
C  C58  1  0.00990759  0.69133387  0.19560480  1  -0.018149  0  -0.071811  -0.085426  0  3.964148  0
C  C59  1  0.99006890  0.30867075  0.80441637  1  -0.019032  0  -0.071847  -0.08538  0  3.964416  0
C  C60  1  0.39541938  0.99963124  0.75955473  1  0.000731  0  -0.017399  -0.095137  0  3.917668  0
C  C61  1  0.60457539  0.00037634  0.24042270  1  -7.1e-05  0  -0.017268  -0.095212  0  3.917955  0
C  C62  1  0.00035453  0.60457895  0.24045092  1  0.000267  0  -0.017385  -0.095099  0  3.917741  0
C  C63  1  0.99963343  0.39541930  0.75956760  1  -0.000252  0  -0.017305  -0.095218  0  3.917849  0
C  C64  1  0.44290335  0.00667971  0.80648659  1  0.007771  0  0.009836  0.101047  0  3.968568  0
C  C65  1  0.55710698  0.99331782  0.19348399  1  0.009094  0  0.00975  0.101109  0  3.969416  0
C  C66  1  0.99330270  0.55710206  0.19351365  1  0.007695  0  0.009776  0.101016  0  3.96893  0
C  C67  1  0.00668190  0.44289582  0.80650696  1  0.009124  0  0.009743  0.101163  0  3.969143  0
C  C68  1  0.55970714  0.82717552  0.52959361  1  1.55491  0  0.217403  0.609779  0  4.137251  0
C  C69  1  0.44030764  0.17283876  0.47039025  1  1.554752  0  0.217439  0.609668  0  4.137147  0
C  C70  1  0.17283167  0.44030685  0.47039983  1  1.554402  0  0.217458  0.609721  0  4.137064  0
C  C71  1  0.82717238  0.55969668  0.52961060  1  1.55474  0  0.21744  0.609731  0  4.137019  0
C  C72  1  0.40736758  0.98889765  0.90075705  1  -0.04204  0  0.001978  -0.014369  0  3.888949  0
C  C73  1  0.59264352  0.01108998  0.09921608  1  -0.042497  0  0.001905  -0.014649  0  3.88978  0
C  C74  1  0.01108055  0.59263725  0.09924519  1  -0.041361  0  0.002002  -0.014256  0  3.888818  0
C  C75  1  0.98890072  0.40735896  0.90077630  1  -0.042631  0  0.001893  -0.01464  0  3.889163  0
C  C76  1  0.30300499  0.92612060  0.03994828  1  -0.056424  0  -0.088188  -0.11631  0  3.984169  0
C  C77  1  0.69700472  0.07386801  0.96003366  1  -0.056962  0  -0.088258  -0.116451  0  3.984036  0
C  C78  1  0.07386211  0.69699804  0.96005597  1  -0.05754  0  -0.088157  -0.11632  0  3.983984  0
C  C79  1  0.92612462  0.30299088  0.03996281  1  -0.056519  0  -0.088278  -0.116442  0  3.984027  0
C  C80  1  0.35291945  0.92374646  0.08564419  1  -0.0086  0  -0.093539  -0.117659  0  4.01277  0
C  C81  1  0.64709775  0.07623561  0.91433046  1  -0.007881  0  -0.093596  -0.118015  0  4.012746  0
C  C82  1  0.07623750  0.64708538  0.91435407  1  -0.007663  0  -0.093571  -0.117586  0  4.012731  0
C  C83  1  0.92374853  0.35290565  0.08566586  1  -0.00832  0  -0.093632  -0.117968  0  4.012546  0
C  C84  1  0.52607669  0.02827593  0.76417295  1  0.137607  0  -0.101475  -0.187244  0  3.982458  0
C  C85  1  0.47393774  0.97171532  0.23579794  1  0.137394  0  -0.101303  -0.187017  0  3.982552  0
C  C86  1  0.97170080  0.47392825  0.23582686  1  0.138547  0  -0.101475  -0.187248  0  3.982483  0
C  C87  1  0.02827506  0.52607073  0.76419744  1  0.137406  0  -0.101392  -0.187211  0  3.982831  0
C  C88  1  0.57089987  0.03452661  0.81000945  1  -0.185484  0  -0.004174  0.086991  0  3.894169  0
C  C89  1  0.42911261  0.96545676  0.18996600  1  -0.185993  0  -0.004306  0.086782  0  3.894384  0
C  C90  1  0.96545470  0.42910536  0.18998755  1  -0.186168  0  -0.004155  0.086868  0  3.894399  0
C  C91  1  0.03452789  0.57089308  0.81003250  1  -0.186019  0  -0.004229  0.08688  0  3.894211  0
C  C92  1  0.97795606  0.17370060  0.93468986  1  1.537564  0  0.219522  0.600511  0  4.147052  0
C  C93  1  0.02203325  0.82629401  0.06533651  1  1.537796  0  0.219603  0.6004  0  4.146792  0
C  C94  1  0.82629952  0.02204751  0.06530303  1  1.538028  0  0.219509  0.600505  0  4.147226  0
C  C95  1  0.17371015  0.97795217  0.93466235  1  1.537117  0  0.219694  0.600254  0  4.146696  0
C  C96  1  0.40994440  0.67577623  0.52030885  1  0.031936  0  -0.00986  0.046983  0  4.040973  0
C  C97  1  0.59006090  0.32423795  0.47969559  1  0.031768  0  -0.0099  0.046922  0  4.04145  0
C  C98  1  0.32423465  0.59006354  0.47969535  1  0.031653  0  -0.009971  0.046796  0  4.041521  0
C  C99  1  0.67576731  0.40994507  0.52031848  1  0.033025  0  -0.009937  0.046766  0  4.041486  0
C  C100  1  0.31973902  0.71944094  0.51175990  1  -0.015403  0  -0.018848  0.013989  0  3.937114  0
C  C101  1  0.68026964  0.28057427  0.48824046  1  -0.079825  0  -0.018903  0.013898  0  3.937065  0
C  C102  1  0.28057010  0.68027572  0.48823574  1  -0.080165  0  -0.018874  0.013934  0  3.937206  0
C  C103  1  0.71943453  0.31973800  0.51176859  1  -0.016012  0  -0.018786  0.014053  0  3.937006  0
C  C104  1  0.41224285  0.54468597  0.49126743  1  -0.043699  0  0.003232  0.008082  0  3.973527  0
C  C105  1  0.58775582  0.45531383  0.50875245  1  0.023588  0  0.003227  0.008075  0  3.973359  0
C  C106  1  0.45531260  0.58775725  0.50875183  1  0.024042  0  0.003253  0.007996  0  3.972989  0
C  C107  1  0.54468535  0.41224725  0.49126874  1  -0.043259  0  0.003145  0.007896  0  3.973464  0
C  C108  1  0.45563826  0.45564280  0.48387637  1  -0.043566  0  0.003107  0.007244  0  3.97596  0
C  C109  1  0.54436036  0.54436022  0.51614741  1  -0.043336  0  0.003052  0.007262  0  3.975513  0
C  C110  1  0.45295670  0.31883338  0.46939411  1  0.021347  0  0.008845  0.096743  0  3.968024  0
C  C111  1  0.54704733  0.68117340  0.53061328  1  0.020748  0  0.008928  0.0969  0  3.968147  0
C  C112  1  0.68116884  0.54704272  0.53062216  1  0.02079  0  0.008898  0.096871  0  3.968101  0
C  C113  1  0.31883049  0.45295819  0.46939700  1  0.021242  0  0.008887  0.096877  0  3.967924  0
C  C114  1  0.40004431  0.26671540  0.47799635  1  0.009739  0  -0.015825  -0.13378  0  3.860847  0
C  C115  1  0.59995971  0.73329530  0.52200312  1  0.010395  0  -0.015861  -0.133956  0  3.860939  0
C  C116  1  0.73329058  0.59995845  0.52200841  1  0.010334  0  -0.015876  -0.134074  0  3.860905  0
C  C117  1  0.26670808  0.40004657  0.47800303  1  0.009954  0  -0.015826  -0.133786  0  3.860773  0
C  C118  1  0.30589818  0.30590028  0.49665327  1  -0.032985  0  0.013792  0.111549  0  3.860269  0
C  C119  1  0.69410587  0.69410784  0.50334609  1  -0.033369  0  0.013808  0.111733  0  3.860316  0
Br  Br120  1  0.83346295  0.25783144  0.53210067  1  -0.036367  0  0.039989  -0.039578  0  1.516973  0
Br  Br121  1  0.16654166  0.74217899  0.46791710  1  -0.036331  0  0.040007  -0.039558  0  1.517135  0
Br  Br122  1  0.74218363  0.16654686  0.46790990  1  -0.036505  0  0.039974  -0.039608  0  1.517018  0
Br  Br123  1  0.25782773  0.83346436  0.53209617  1  -0.036395  0  0.039989  -0.039596  0  1.517081  0
Br  Br124  1  0.22906327  0.22905385  0.56955044  1  0.020596  0  0.049342  -0.008899  0  1.536323  0
Br  Br125  1  0.77094899  0.77094367  0.43043952  1  0.02065  0  0.04931  -0.008965  0  1.536187  0
Br  Br126  1  0.68843032  0.04870591  0.73444389  1  -0.065035  0  0.03472  -0.0702  0  1.472509  0
Br  Br127  1  0.31159445  0.95125273  0.26554237  1  -0.064929  0  0.034828  -0.070063  0  1.472436  0
Br  Br128  1  0.95127395  0.31157427  0.26555483  1  -0.065086  0  0.034737  -0.070159  0  1.47252  0
Br  Br129  1  0.04869039  0.68843366  0.73447395  1  -0.065274  0  0.034807  -0.070083  0  1.472281  0
O  O130  1  0.51754970  0.99279334  0.62664543  1  -1.152859  0  -0.306454  -0.530654  0  2.347531  0
O  O131  1  0.48243822  0.00723231  0.37332226  1  -1.152422  0  -0.306516  -0.530844  0  2.347286  0
O  O132  1  0.00722467  0.48243874  0.37334475  1  -1.152157  0  -0.306511  -0.530755  0  2.347276  0
O  O133  1  0.99279092  0.51754933  0.62666899  1  -1.152783  0  -0.306425  -0.530759  0  2.347988  0
O  O134  1  0.47868674  0.86975889  0.52682500  1  -1.164312  0  -0.311117  -0.54902  0  2.363011  0
O  O135  1  0.52132069  0.13026074  0.47314298  1  -1.164616  0  -0.31105  -0.54886  0  2.363307  0
O  O136  1  0.13024908  0.52131378  0.47316680  1  -1.16444  0  -0.311104  -0.548989  0  2.363464  0
O  O137  1  0.86975379  0.47867460  0.52684450  1  -1.164553  0  -0.311119  -0.549051  0  2.362838  0
O  O138  1  0.60857186  0.85950444  0.54045425  1  -1.141239  0  -0.319153  -0.548317  0  2.359307  0
O  O139  1  0.39143285  0.14051067  0.45953106  1  -1.140846  0  -0.31926  -0.548315  0  2.358988  0
O  O140  1  0.14051074  0.39142782  0.45953613  1  -1.140707  0  -0.319282  -0.548393  0  2.358809  0
O  O141  1  0.85949477  0.60856435  0.54047428  1  -1.141127  0  -0.319215  -0.548253  0  2.359342  0
O  O142  1  0.38004024  0.00261938  0.62852568  1  -1.149225  0  -0.318255  -0.564161  0  2.316094  0
O  O143  1  0.61995130  0.99737553  0.37145474  1  -1.149783  0  -0.318376  -0.564363  0  2.316811  0
O  O144  1  0.99736850  0.61995626  0.37147373  1  -1.149486  0  -0.318231  -0.564112  0  2.316538  0
O  O145  1  0.00263491  0.38004423  0.62853589  1  -1.149537  0  -0.318394  -0.56437  0  2.31674  0
O  O146  1  0.98136710  0.13355673  0.01467487  1  -1.155335  0  -0.309937  -0.550838  0  2.320329  0
O  O147  1  0.01866319  0.86643893  0.98533444  1  -1.155492  0  -0.31004  -0.550823  0  2.31958  0
O  O148  1  0.86643853  0.01864942  0.98531394  1  -1.155538  0  -0.309934  -0.55081  0  2.320251  0
O  O149  1  0.13356543  0.98131501  0.01466344  1  -1.15523  0  -0.310012  -0.550707  0  2.319719  0
O  O150  1  0.86448806  0.01984133  0.11635170  1  -1.153144  0  -0.319115  -0.551996  0  2.277286  0
O  O151  1  0.13551662  0.98019271  0.88359657  1  -1.153391  0  -0.319291  -0.55196  0  2.277217  0
O  O152  1  0.98016797  0.13550806  0.88363852  1  -1.153143  0  -0.319166  -0.55201  0  2.277062  0
O  O153  1  0.01980588  0.86448887  0.11638915  1  -1.153365  0  -0.319222  -0.551903  0  2.277341  0
