# generated using pymatgen
data_ZnH7C11(NO)5
_symmetry_space_group_name_H-M   'P 1'
_cell_length_a   14.58472086
_cell_length_b   18.14209861
_cell_length_c   18.42148954
_cell_angle_alpha   90.42488916
_cell_angle_beta   91.84513722
_cell_angle_gamma   90.71799455
_symmetry_Int_Tables_number   1
_chemical_formula_structural   ZnH7C11(NO)5
_chemical_formula_sum   'Zn8 H56 C88 N40 O40'
_cell_volume   4871.22015056
_cell_formula_units_Z   8
loop_
 _symmetry_equiv_pos_site_id
 _symmetry_equiv_pos_as_xyz
  1  'x, y, z'
loop_
 _atom_site_type_symbol
 _atom_site_label
 _atom_site_symmetry_multiplicity
 _atom_site_fract_x
 _atom_site_fract_y
 _atom_site_fract_z
 _atom_site_occupancy
 _atom_site_pbe_bader_charge
 _atom_site_pbe_bader_spin_density
 _atom_site_pbe_cm5_charge
 _atom_site_pbe_ddec_charge
 _atom_site_pbe_ddec_spin_density
 _atom_site_pbe_ddec_sum_bond_order
 _atom_site_pbe_magmom
Zn  Zn0  1  0.98184521  0.98113833  0.38517781  1  1.207162  0  0.746781  0.696226  0  2.348699  0
Zn  Zn1  1  0.02661076  0.98072800  0.62431768  1  1.205035  0  0.746511  0.694165  0  2.356454  0
Zn  Zn2  1  0.47327666  0.47996683  0.87918041  1  1.206992  0  0.746835  0.696387  0  2.348685  0
Zn  Zn3  1  0.51835527  0.48692979  0.11660563  1  1.204214  0  0.749072  0.691637  0  2.37487  0
Zn  Zn4  1  0.83675086  0.99309670  0.51793074  1  1.197171  0  0.758938  0.668333  0  2.416921  0
Zn  Zn5  1  0.17195836  0.99522663  0.49014804  1  1.198303  0  0.756581  0.666128  0  2.414836  0
Zn  Zn6  1  0.32799416  0.49538450  0.01307535  1  1.200721  0  0.757619  0.666083  0  2.419089  0
Zn  Zn7  1  0.66488244  0.49568900  0.98430444  1  1.199541  0  0.757416  0.670385  0  2.40114  0
H  H8  1  0.68884956  0.05281200  0.63792056  1  0.126562  0  0.125206  0.115124  0  0.979714  0
H  H9  1  0.22438586  0.82726120  0.50400960  1  0.091718  0  0.120626  0.114099  0  0.987682  0
H  H10  1  0.32024637  0.05771233  0.36842489  1  0.12969  0  0.125757  0.115856  0  0.978578  0
H  H11  1  0.78246115  0.82615301  0.50015857  1  0.095781  0  0.121108  0.115355  0  0.98744  0
H  H12  1  0.17894562  0.55270983  0.13651314  1  0.081415  0  0.126226  0.118178  0  0.979078  0
H  H13  1  0.71635530  0.32974616  0.00034099  1  0.10476  0  0.120897  0.114872  0  0.986902  0
H  H14  1  0.81270381  0.55406282  0.86281513  1  0.110641  0  0.125541  0.115571  0  0.979176  0
H  H15  1  0.27504572  0.32519771  0.00044122  1  0.098652  0  0.119961  0.112863  0  0.988272  0
H  H16  1  0.12936038  0.18774185  0.21033515  1  0.043211  0  0.101009  0.098153  0  1.013412  0
H  H17  1  0.95306212  0.65762151  0.64171290  1  0.063208  0  0.102837  0.104072  0  0.999222  0
H  H18  1  0.87391025  0.18961399  0.80066243  1  0.064611  0  0.099307  0.095993  0  1.020574  0
H  H19  1  0.04595993  0.65762743  0.36215786  1  0.049432  0  0.102271  0.103031  0  0.998914  0
H  H20  1  0.62744759  0.68810838  0.70514274  1  0.034773  0  0.100664  0.098424  0  1.018566  0
H  H21  1  0.45496109  0.16444900  0.14443813  1  0.041414  0  0.103246  0.104031  0  0.997643  0
H  H22  1  0.36945607  0.69164715  0.29256839  1  0.062379  0  0.100974  0.098092  0  1.019494  0
H  H23  1  0.54439420  0.15872714  0.85436477  1  0.034839  0  0.102376  0.102425  0  1.000138  0
H  H24  1  0.69824411  0.77567069  0.62330478  1  0.081172  0  0.105363  0.109979  0  0.996007  0
H  H25  1  0.38770636  0.07477484  0.22858879  1  0.071838  0  0.104882  0.108597  0  0.98908  0
H  H26  1  0.30338788  0.77763079  0.37832347  1  0.088485  0  0.104817  0.109222  0  0.996661  0
H  H27  1  0.61777982  0.06889377  0.77392803  1  0.068894  0  0.103728  0.106737  0  0.991671  0
H  H28  1  0.19562487  0.27559609  0.12583668  1  0.067164  0  0.105154  0.109073  0  0.989685  0
H  H29  1  0.88084203  0.56794092  0.72348206  1  0.078952  0  0.103838  0.107597  0  0.990517  0
H  H30  1  0.80177563  0.27759878  0.88089436  1  0.092958  0  0.104523  0.108626  0  0.99879  0
H  H31  1  0.11382875  0.56882886  0.27718933  1  0.093061  0  0.104344  0.110881  0  0.995384  0
H  H32  1  0.72624258  0.88203882  0.18576298  1  0.164707  0  0.114508  0.131367  0  1.023305  0
H  H33  1  0.04665913  0.27714746  0.68039676  1  0.159301  0  0.114916  0.131474  0  1.038489  0
H  H34  1  0.28423851  0.87958715  0.81772873  1  0.172105  0  0.115334  0.13207  0  1.020066  0
H  H35  1  0.94207665  0.28909487  0.33184483  1  0.167599  0  0.114286  0.136098  0  1.017117  0
H  H36  1  0.21265408  0.38326161  0.68299287  1  0.158978  0  0.115255  0.131708  0  1.017756  0
H  H37  1  0.55629705  0.77993852  0.17887752  1  0.203878  0  0.114524  0.131566  0  1.043034  0
H  H38  1  0.74895698  0.34521037  0.29354550  1  0.14138  0  0.109979  0.123142  0  1.081456  0
H  H39  1  0.44794475  0.77431949  0.81761758  1  0.158688  0  0.114152  0.1312  0  1.039885  0
H  H40  1  0.97696407  0.11569372  0.28998317  1  0.653893  0  0.314312  0.35342  0  0.967882  0
H  H41  1  0.10006924  0.85833476  0.72580249  1  0.643125  0  0.314152  0.361192  0  0.955392  0
H  H42  1  0.02908652  0.11657824  0.71565632  1  0.633726  0  0.316779  0.355193  0  0.961961  0
H  H43  1  0.90728483  0.85940636  0.27925638  1  0.658291  0  0.314596  0.361441  0  0.954145  0
H  H44  1  0.47174612  0.61346551  0.78628773  1  0.650975  0  0.315983  0.353641  0  0.964902  0
H  H45  1  0.58721429  0.37712646  0.22920572  1  0.634839  0  0.31767  0.360644  0  0.944631  0
H  H46  1  0.52337232  0.62075979  0.20895131  1  0.6657  0  0.315843  0.354032  0  0.965456  0
H  H47  1  0.39581385  0.35689416  0.77650178  1  0.657488  0  0.314912  0.361312  0  0.952038  0
H  H48  1  0.93560886  0.08554302  0.81890687  1  0.623906  0  0.349371  0.387949  0  0.856173  0
H  H49  1  0.01583149  0.76201978  0.30834379  1  0.627882  0  0.336175  0.370263  0  0.890956  0
H  H50  1  0.06988111  0.08170619  0.19017412  1  0.642269  0  0.349275  0.386801  0  0.856502  0
H  H51  1  0.98502683  0.76217331  0.69845402  1  0.632169  0  0.337299  0.371456  0  0.88759  0
H  H52  1  0.43160375  0.58972545  0.31145863  1  0.621593  0  0.348612  0.386431  0  0.858548  0
H  H53  1  0.51296771  0.26247679  0.80090344  1  0.623532  0  0.337669  0.371907  0  0.887495  0
H  H54  1  0.56416441  0.58286461  0.68430197  1  0.612474  0  0.349213  0.387019  0  0.857678  0
H  H55  1  0.48441828  0.27127398  0.19774012  1  0.632693  0  0.336697  0.371033  0  0.887608  0
H  H56  1  0.19977357  0.22130094  0.45682677  1  0.658584  0  0.313934  0.360828  0  0.970682  0
H  H57  1  0.57955041  0.92711440  0.41382555  1  0.65133  0  0.309545  0.361492  0  0.970339  0
H  H58  1  0.79024430  0.22069046  0.54170844  1  0.671383  0  0.314607  0.360212  0  0.972434  0
H  H59  1  0.42685110  0.93114417  0.58956979  1  0.652695  0  0.309547  0.361858  0  0.969391  0
H  H60  1  0.71544478  0.72151679  0.95860469  1  0.647904  0  0.31276  0.359637  0  0.972398  0
H  H61  1  0.07049553  0.43279840  0.91160102  1  0.643468  0  0.309861  0.361428  0  0.96913  0
H  H62  1  0.29600599  0.72013736  0.04260275  1  0.646548  0  0.313967  0.360268  0  0.969459  0
H  H63  1  0.92531380  0.45274180  0.10530777  1  0.654416  0  0.305628  0.358367  0  0.98494  0
C  C64  1  0.92355719  0.14415149  0.38199644  1  1.137342  0  0.205459  0.420584  0  4.088339  0
C  C65  1  0.20444721  0.91094560  0.69196988  1  1.098423  0  0.193071  0.396801  0  4.120273  0
C  C66  1  0.07565599  0.14642151  0.62154844  1  1.153804  0  0.204712  0.418776  0  4.078664  0
C  C67  1  0.80366755  0.91041418  0.31370745  1  1.116274  0  0.19261  0.395713  0  4.117164  0
C  C68  1  0.42377738  0.64472192  0.87963166  1  1.149394  0  0.205127  0.41881  0  4.076951  0
C  C69  1  0.69314316  0.42437360  0.19178094  1  1.126276  0  0.190188  0.38708  0  4.115429  0
C  C70  1  0.57592015  0.65041720  0.11682529  1  1.143555  0  0.204792  0.418723  0  4.075606  0
C  C71  1  0.29306331  0.40978773  0.81050292  1  1.125677  0  0.193695  0.397394  0  4.116505  0
C  C72  1  0.75745630  0.04636104  0.66157089  1  0.437881  0  0.019594  -0.013837  0  3.995307  0
C  C73  1  0.16386708  0.83406423  0.46879428  1  0.412526  0  0.00946  -0.027391  0  3.987507  0
C  C74  1  0.25106984  0.04979553  0.34582025  1  0.479042  0  0.019606  -0.014939  0  3.994733  0
C  C75  1  0.84226287  0.83325625  0.53643449  1  0.405856  0  0.009961  -0.027226  0  3.987924  0
C  C76  1  0.24884202  0.54812988  0.15806669  1  0.505138  0  0.022231  -0.010193  0  3.986302  0
C  C77  1  0.65651577  0.33561121  0.96421474  1  0.43097  0  0.009386  -0.0268  0  3.987349  0
C  C78  1  0.74361646  0.54670665  0.83985587  1  0.429806  0  0.020085  -0.01357  0  3.997997  0
C  C79  1  0.33550306  0.33441592  0.03558090  1  0.455883  0  0.008499  -0.029563  0  3.992667  0
C  C80  1  0.88573895  0.05121698  0.72653236  1  0.981497  0  0.175756  0.332177  0  4.122882  0
C  C81  1  0.05051800  0.82551424  0.38769129  1  0.967154  0  0.18124  0.35138  0  4.078606  0
C  C82  1  0.12140415  0.05134368  0.28267169  1  0.951933  0  0.176167  0.331825  0  4.120949  0
C  C83  1  0.95343513  0.82507455  0.61913075  1  0.979472  0  0.181394  0.350257  0  4.082388  0
C  C84  1  0.37940121  0.55501774  0.22001831  1  0.992444  0  0.176137  0.332264  0  4.125287  0
C  C85  1  0.54510041  0.32529599  0.88156711  1  0.99811  0  0.180184  0.349227  0  4.080867  0
C  C86  1  0.61449485  0.54950217  0.77603132  1  0.980184  0  0.175953  0.332967  0  4.124464  0
C  C87  1  0.44911954  0.33068830  0.11674993  1  0.967349  0  0.181176  0.352293  0  4.077309  0
C  C88  1  0.12916580  0.15603670  0.50995038  1  1.14459  0  0.197163  0.395348  0  4.115205  0
C  C89  1  0.70080266  0.94813480  0.39179457  1  1.135504  0  0.189792  0.384076  0  4.159179  0
C  C90  1  0.86054822  0.15327392  0.49046810  1  1.131262  0  0.196846  0.393508  0  4.122198  0
C  C91  1  0.30680900  0.95137750  0.61435683  1  1.1312  0  0.190162  0.383753  0  4.158529  0
C  C92  1  0.63641458  0.65904381  0.00752774  1  1.136876  0  0.19675  0.394331  0  4.117744  0
C  C93  1  0.19194203  0.45135765  0.88818624  1  1.117947  0  0.190632  0.384846  0  4.158533  0
C  C94  1  0.36935081  0.65621207  0.99081079  1  1.125922  0  0.19672  0.392719  0  4.116607  0
C  C95  1  0.79844474  0.45283019  0.11188145  1  1.158736  0  0.188307  0.381396  0  4.163797  0
C  C96  1  0.87233298  0.19428944  0.42510141  1  0.077928  0  -0.053024  -0.294045  0  4.039044  0
C  C97  1  0.30107397  0.91142113  0.68089575  1  0.043227  0  -0.059058  -0.301133  0  4.066579  0
C  C98  1  0.11474967  0.19976556  0.57380227  1  0.013624  0  -0.051263  -0.290767  0  4.024667  0
C  C99  1  0.70679928  0.91053574  0.32347826  1  0.018347  0  -0.05874  -0.301754  0  4.066789  0
C  C100  1  0.38302297  0.69823237  0.92617378  1  0.046928  0  -0.051609  -0.289835  0  4.023594  0
C  C101  1  0.79032291  0.42268381  0.18339250  1  0.008939  0  -0.06108  -0.304248  0  4.036132  0
C  C102  1  0.62219245  0.70244359  0.07172481  1  0.054276  0  -0.052718  -0.293712  0  4.024174  0
C  C103  1  0.19634078  0.41183108  0.82082292  1  0.035562  0  -0.059322  -0.302632  0  4.070971  0
C  C104  1  0.79401430  0.07389340  0.72811812  1  0.031151  0  -0.04862  -0.172511  0  4.107643  0
C  C105  1  0.12773221  0.78692660  0.41387405  1  0.062974  0  -0.053741  -0.183573  0  4.112456  0
C  C106  1  0.21299606  0.07586470  0.27985797  1  0.010711  0  -0.048621  -0.173301  0  4.111157  0
C  C107  1  0.87557348  0.78640350  0.59134018  1  0.052996  0  -0.053508  -0.182887  0  4.115476  0
C  C108  1  0.28724442  0.57587708  0.22391715  1  0.003629  0  -0.047719  -0.171976  0  4.110465  0
C  C109  1  0.62302010  0.28804258  0.90860937  1  -0.021982  0  -0.053643  -0.183614  0  4.112465  0
C  C110  1  0.70653702  0.57290256  0.77366976  1  0.048887  0  -0.049452  -0.17511  0  4.115842  0
C  C111  1  0.37164444  0.28984743  0.09137649  1  0.039428  0  -0.053644  -0.184857  0  4.112696  0
C  C112  1  0.19965500  0.17960414  0.19336304  1  -0.06675  0  -0.099316  -0.154895  0  4.014903  0
C  C113  1  0.88170591  0.66501886  0.65645783  1  -0.173378  0  -0.103729  -0.17104  0  4.034175  0
C  C114  1  0.80257328  0.17977842  0.81474815  1  -0.08358  0  -0.098395  -0.152291  0  4.009497  0
C  C115  1  0.11695551  0.66569755  0.34622525  1  -0.055539  0  -0.102767  -0.169655  0  4.029746  0
C  C116  1  0.69756425  0.67819927  0.68859883  1  -0.054607  0  -0.098009  -0.152241  0  4.008394  0
C  C117  1  0.38355179  0.17037214  0.15964844  1  -0.072368  0  -0.101356  -0.166696  0  4.024933  0
C  C118  1  0.29992506  0.68082981  0.31056730  1  -0.076284  0  -0.098264  -0.153805  0  4.010997  0
C  C119  1  0.61657493  0.16644937  0.84158528  1  -0.033923  0  -0.103401  -0.169088  0  4.029686  0
C  C120  1  0.73788464  0.72887549  0.64299252  1  -0.050175  0  -0.088558  -0.113834  0  3.97023  0
C  C121  1  0.34548612  0.11906784  0.20649970  1  -0.039  0  -0.090869  -0.121863  0  3.981797  0
C  C122  1  0.26223869  0.73069360  0.35827978  1  -0.0623  0  -0.089644  -0.115703  0  3.977562  0
C  C123  1  0.65806666  0.11499915  0.79696725  1  -0.093426  0  -0.09299  -0.123089  0  3.986037  0
C  C124  1  0.23726652  0.23026043  0.14629660  1  -0.014764  0  -0.08925  -0.115131  0  3.979103  0
C  C125  1  0.84086795  0.61374618  0.70181836  1  -0.040042  0  -0.092803  -0.124816  0  3.987607  0
C  C126  1  0.76150464  0.23073220  0.85954718  1  -0.020718  0  -0.088692  -0.113451  0  3.969753  0
C  C127  1  0.15523371  0.61495219  0.29893707  1  -0.078486  0  -0.091117  -0.122462  0  3.975157  0
C  C128  1  0.83150759  0.72446095  0.62737541  1  0.051439  0  -0.014324  0.097519  0  4.061042  0
C  C129  1  0.25316802  0.12363574  0.22560020  1  -0.002558  0  -0.013387  0.098474  0  4.065174  0
C  C130  1  0.16917356  0.72534069  0.37572858  1  0.012942  0  -0.014404  0.09817  0  4.061804  0
C  C131  1  0.75147400  0.12163405  0.78120766  1  0.018359  0  -0.014156  0.097893  0  4.065084  0
C  C132  1  0.33072386  0.22793948  0.12971808  1  -0.005419  0  -0.013599  0.098349  0  4.062041  0
C  C133  1  0.74850918  0.62037532  0.72012850  1  0.051659  0  -0.013014  0.099744  0  4.066632  0
C  C134  1  0.66696527  0.22636762  0.87251502  1  -0.004974  0  -0.01328  0.098809  0  4.059511  0
C  C135  1  0.24701398  0.62263340  0.27890003  1  0.016622  0  -0.012728  0.100798  0  4.063648  0
C  C136  1  0.13651409  0.27465018  0.59400310  1  0.259173  0  0.089745  0.093091  0  3.887759  0
C  C137  1  0.63876710  0.87925248  0.27354113  1  0.24258  0  0.084425  0.082346  0  3.913958  0
C  C138  1  0.83289224  0.26023277  0.39663566  1  0.190115  0  0.089302  0.09411  0  3.918791  0
C  C139  1  0.36884311  0.87798090  0.72825937  1  0.248653  0  0.083659  0.079541  0  3.914402  0
C  C140  1  0.64826858  0.77593748  0.09407356  1  0.229987  0  0.0896  0.093417  0  3.887684  0
C  C141  1  0.12734402  0.38010376  0.77211754  1  0.254551  0  0.084515  0.081476  0  3.914552  0
C  C142  1  0.35975470  0.77175652  0.90492396  1  0.195372  0  0.089665  0.092808  0  3.887179  0
C  C143  1  0.85504056  0.38994391  0.23498030  1  0.241944  0  0.083735  0.082693  0  3.903119  0
C  C144  1  0.10454076  0.30604122  0.65768561  1  -0.030737  0  -0.080579  -0.115833  0  3.95755  0
C  C145  1  0.66061488  0.86017702  0.20259049  1  0.035766  0  -0.075248  -0.103456  0  3.9475  0
C  C146  1  0.86994306  0.29973646  0.33975565  1  0.007406  0  -0.091416  -0.136311  0  3.995258  0
C  C147  1  0.34795742  0.85708188  0.79872361  1  0.037239  0  -0.076074  -0.103547  0  3.946654  0
C  C148  1  0.61609881  0.80748258  0.15766367  1  -0.004492  0  -0.081768  -0.119072  0  3.955987  0
C  C149  1  0.14812348  0.36041089  0.70110887  1  0.065139  0  -0.074874  -0.103415  0  3.948644  0
C  C150  1  0.39083097  0.80284350  0.84096970  1  0.05488  0  -0.081183  -0.118085  0  3.954458  0
C  C151  1  0.82331181  0.34637398  0.29120429  1  0.047364  0  -0.087619  -0.119786  0  3.964272  0
N  N152  1  0.93847673  0.08165112  0.41742707  1  -0.834654  0  -0.296478  -0.319194  0  3.547996  0
N  N153  1  0.15971613  0.94814654  0.64020431  1  -0.850061  0  -0.293994  -0.320695  0  3.518533  0
N  N154  1  0.06803357  0.08076738  0.58948968  1  -0.848096  0  -0.300806  -0.324417  0  3.576079  0
N  N155  1  0.84847113  0.94560150  0.36795705  1  -0.841617  0  -0.295195  -0.323247  0  3.517449  0
N  N156  1  0.43289266  0.58046616  0.91298374  1  -0.845241  0  -0.299079  -0.321337  0  3.566385  0
N  N157  1  0.65063637  0.45397874  0.13446482  1  -0.842053  0  -0.29728  -0.318102  0  3.550305  0
N  N158  1  0.56411442  0.58605198  0.08296703  1  -0.850639  0  -0.30005  -0.319269  0  3.57213  0
N  N159  1  0.33920565  0.44594204  0.86341282  1  -0.83691  0  -0.294357  -0.323213  0  3.515458  0
N  N160  1  0.82199656  0.01144617  0.62449592  1  -0.79661  0  -0.278612  -0.172772  0  3.553073  0
N  N161  1  0.11209387  0.89484608  0.47404535  1  -0.789368  0  -0.289217  -0.203452  0  3.599063  0
N  N162  1  0.18734411  0.01400503  0.38370068  1  -0.793214  0  -0.276142  -0.171643  0  3.553421  0
N  N163  1  0.89615047  0.89397841  0.53263868  1  -0.780327  0  -0.289083  -0.203651  0  3.601123  0
N  N164  1  0.31304158  0.51481259  0.11917824  1  -0.801047  0  -0.278302  -0.173602  0  3.561614  0
N  N165  1  0.60289753  0.39536280  0.96901706  1  -0.782664  0  -0.287152  -0.203468  0  3.59088  0
N  N166  1  0.67896260  0.51184419  0.87750186  1  -0.783759  0  -0.277155  -0.170946  0  3.553342  0
N  N167  1  0.38754916  0.39583330  0.02895650  1  -0.79778  0  -0.287637  -0.202776  0  3.591719  0
N  N168  1  0.90295090  0.01410375  0.66579127  1  -0.824655  0  -0.283694  -0.298223  0  3.482379  0
N  N169  1  0.04155469  0.88953713  0.42308000  1  -0.813651  0  -0.29104  -0.285614  0  3.557381  0
N  N170  1  0.10561472  0.01466499  0.34349934  1  -0.820355  0  -0.283371  -0.29362  0  3.48979  0
N  N171  1  0.96527284  0.88891623  0.58460938  1  -0.800746  0  -0.290654  -0.282283  0  3.555354  0
N  N172  1  0.39533249  0.51885288  0.15859914  1  -0.821732  0  -0.285111  -0.296419  0  3.49694  0
N  N173  1  0.53356357  0.38888309  0.91715261  1  -0.791745  0  -0.291485  -0.283703  0  3.558386  0
N  N174  1  0.59746729  0.51325201  0.83692947  1  -0.838639  0  -0.283825  -0.298836  0  3.481642  0
N  N175  1  0.45817529  0.39344428  0.07986481  1  -0.813983  0  -0.291084  -0.283886  0  3.560238  0
N  N176  1  0.10308376  0.08600207  0.52020688  1  -0.817453  0  -0.298149  -0.30008  0  3.512335  0
N  N177  1  0.78394569  0.96818439  0.41772473  1  -0.839636  0  -0.292027  -0.281639  0  3.490196  0
N  N178  1  0.89888537  0.08693914  0.48530570  1  -0.830746  0  -0.299858  -0.300735  0  3.494606  0
N  N179  1  0.22386612  0.97254506  0.59060975  1  -0.807645  0  -0.291856  -0.280689  0  3.480888  0
N  N180  1  0.60343035  0.59045637  0.01513392  1  -0.815054  0  -0.296009  -0.299974  0  3.495034  0
N  N181  1  0.27573039  0.47097487  0.91297809  1  -0.81614  0  -0.292023  -0.278078  0  3.489256  0
N  N182  1  0.39737849  0.58684079  0.98207279  1  -0.814544  0  -0.298637  -0.302571  0  3.506236  0
N  N183  1  0.71631109  0.47136648  0.08391204  1  -0.835228  0  -0.294061  -0.280831  0  3.502814  0
N  N184  1  0.54882972  0.86035144  0.29935438  1  0.337015  0  0.040139  0.498821  0  4.152208  0
N  N185  1  0.20188465  0.31737111  0.55227122  1  0.353393  0  0.050691  0.506974  0  4.143322  0
N  N186  1  0.45723633  0.85919108  0.70021846  1  0.320986  0  0.041717  0.501448  0  4.151902  0
N  N187  1  0.74639464  0.28460135  0.42717959  1  0.376688  0  0.056763  0.508326  0  4.149424  0
N  N188  1  0.03789550  0.36147763  0.79902198  1  0.298995  0  0.041052  0.5011  0  4.152469  0
N  N189  1  0.71781220  0.81670287  0.05468617  1  0.33058  0  0.051143  0.508053  0  4.145746  0
N  N190  1  0.95257509  0.40291308  0.22950200  1  0.291556  0  0.042384  0.497729  0  4.154934  0
N  N191  1  0.29408627  0.81347473  0.94674975  1  0.344818  0  0.050987  0.507744  0  4.145218  0
O  O192  1  0.94918791  0.15835670  0.31432567  1  -1.178664  0  -0.338527  -0.447229  0  2.329519  0
O  O193  1  0.15970925  0.87744684  0.74578746  1  -1.165585  0  -0.348972  -0.459589  0  2.297686  0
O  O194  1  0.05199365  0.16039050  0.69001394  1  -1.160414  0  -0.335978  -0.44362  0  2.340798  0
O  O195  1  0.84874780  0.87888216  0.25898315  1  -1.180944  0  -0.348695  -0.458225  0  2.295812  0
O  O196  1  0.44758419  0.65729374  0.81106840  1  -1.174312  0  -0.335838  -0.442819  0  2.340273  0
O  O197  1  0.64418802  0.40117595  0.24864780  1  -1.157998  0  -0.346736  -0.448471  0  2.317695  0
O  O198  1  0.54982919  0.66416997  0.18468695  1  -1.188224  0  -0.336322  -0.44377  0  2.342422  0
O  O199  1  0.33660708  0.37542102  0.75661956  1  -1.177911  0  -0.348349  -0.457519  0  2.292823  0
O  O200  1  0.95805485  0.06160805  0.77539548  1  -1.155375  0  -0.339801  -0.464537  0  2.293729  0
O  O201  1  0.99238605  0.80714865  0.33028448  1  -1.169572  0  -0.335213  -0.460351  0  2.330448  0
O  O202  1  0.04812621  0.05938999  0.23463299  1  -1.171525  0  -0.338011  -0.462595  0  2.300854  0
O  O203  1  0.00993581  0.80716975  0.67704019  1  -1.180933  0  -0.334535  -0.459881  0  2.330205  0
O  O204  1  0.45295464  0.56580082  0.26754263  1  -1.147882  0  -0.337991  -0.46099  0  2.301922  0
O  O205  1  0.48804321  0.30661901  0.82354160  1  -1.164171  0  -0.336254  -0.461995  0  2.324527  0
O  O206  1  0.54194645  0.55835092  0.72749705  1  -1.142981  0  -0.339466  -0.463095  0  2.295497  0
O  O207  1  0.50749510  0.31588769  0.17444224  1  -1.167872  0  -0.335232  -0.460497  0  2.31995  0
O  O208  1  0.16236621  0.17556901  0.44611092  1  -1.170568  0  -0.341726  -0.445755  0  2.304306  0
O  O209  1  0.62754340  0.96410110  0.43063049  1  -1.168478  0  -0.360262  -0.466963  0  2.258686  0
O  O210  1  0.81975435  0.17212727  0.55154405  1  -1.172453  0  -0.337587  -0.439505  0  2.305546  0
O  O211  1  0.37965137  0.96851824  0.57514781  1  -1.17417  0  -0.359562  -0.466595  0  2.258394  0
O  O212  1  0.67559904  0.67766811  0.94564788  1  -1.159709  0  -0.343344  -0.446415  0  2.294277  0
O  O213  1  0.11951571  0.46939190  0.92709713  1  -1.158257  0  -0.358217  -0.464072  0  2.258975  0
O  O214  1  0.33514057  0.67654924  0.05415991  1  -1.1563  0  -0.340456  -0.442314  0  2.298114  0
O  O215  1  0.87147223  0.46086323  0.07066011  1  -1.174079  0  -0.361851  -0.470746  0  2.272513  0
O  O216  1  0.53745438  0.85764339  0.36751321  1  -0.564639  0  -0.1801  -0.407882  0  1.946258  0
O  O217  1  0.48444464  0.84669232  0.25518330  1  -0.47136  0  -0.135107  -0.326808  0  1.904384  0
O  O218  1  0.25016381  0.28442854  0.50662252  1  -0.527185  0  -0.164026  -0.384575  0  1.951832  0
O  O219  1  0.20856243  0.38484975  0.56245657  1  -0.45018  0  -0.127493  -0.316866  0  1.898698  0
O  O220  1  0.46752883  0.86008082  0.63189589  1  -0.565358  0  -0.179265  -0.406938  0  1.947895  0
O  O221  1  0.52146811  0.84228116  0.74270560  1  -0.464023  0  -0.134964  -0.328036  0  1.906264  0
O  O222  1  0.74056030  0.28575734  0.49538448  1  -0.52419  0  -0.148071  -0.364616  0  1.943196  0
O  O223  1  0.68329799  0.30533398  0.38627115  1  -0.428324  0  -0.110396  -0.292954  0  1.923232  0
O  O224  1  0.02674040  0.36203291  0.86724991  1  -0.56091  0  -0.1793  -0.407715  0  1.946582  0
O  O225  1  0.97357400  0.34514280  0.75563205  1  -0.447885  0  -0.135349  -0.328635  0  1.904871  0
O  O226  1  0.76681756  0.78237335  0.01051291  1  -0.525144  0  -0.164393  -0.385311  0  1.953657  0
O  O227  1  0.72737993  0.88390822  0.06546143  1  -0.440473  0  -0.129231  -0.318738  0  1.898854  0
O  O228  1  0.00669407  0.37891140  0.27694716  1  -0.456569  0  -0.139377  -0.331555  0  1.912216  0
O  O229  1  0.98283735  0.44084262  0.17723694  1  -0.55373  0  -0.174616  -0.400371  0  1.970011  0
O  O230  1  0.24433590  0.77963904  0.99094941  1  -0.528773  0  -0.163903  -0.384748  0  1.953541  0
O  O231  1  0.28855974  0.88091408  0.93780771  1  -0.44551  0  -0.127634  -0.317019  0  1.899584  0
