# generated using pymatgen
data_ZnH9C12NO3
_symmetry_space_group_name_H-M   'P 1'
_cell_length_a   5.11028287
_cell_length_b   9.31247149
_cell_length_c   21.30200000
_cell_angle_alpha   90.00000000
_cell_angle_beta   90.00000000
_cell_angle_gamma   90.00000000
_symmetry_Int_Tables_number   1
_chemical_formula_structural   ZnH9C12NO3
_chemical_formula_sum   'Zn4 H36 C48 N4 O12'
_cell_volume   1013.74862228
_cell_formula_units_Z   4
loop_
 _symmetry_equiv_pos_site_id
 _symmetry_equiv_pos_as_xyz
  1  'x, y, z'
loop_
 _atom_site_type_symbol
 _atom_site_label
 _atom_site_symmetry_multiplicity
 _atom_site_fract_x
 _atom_site_fract_y
 _atom_site_fract_z
 _atom_site_occupancy
 _atom_site_hle17_bader_spin_density
 _atom_site_hle17_ddec_charge
 _atom_site_hle17_ddec_spin_density
 _atom_site_hle17_ddec_sum_bond_order
 _atom_site_hle17_magmom
 _atom_site_hse06_10hf_bader_spin_density
 _atom_site_hse06_10hf_ddec_charge
 _atom_site_hse06_10hf_ddec_spin_density
 _atom_site_hse06_10hf_ddec_sum_bond_order
 _atom_site_hse06_10hf_magmom
 _atom_site_hse06_bader_spin_density
 _atom_site_hse06_ddec_charge
 _atom_site_hse06_ddec_spin_density
 _atom_site_hse06_ddec_sum_bond_order
 _atom_site_hse06_magmom
 _atom_site_pbe_bader_charge
 _atom_site_pbe_bader_spin_density
 _atom_site_pbe_cm5_charge
 _atom_site_pbe_ddec_charge
 _atom_site_pbe_ddec_spin_density
 _atom_site_pbe_ddec_sum_bond_order
 _atom_site_pbe_magmom
Zn  Zn0  1  0.76286579  0.15337926  0.47558023  1  0  1.088206  0  1.862614  0  0  0.910531  0  2.340899  0  0  0.95782  0  2.279825  0  1.261132  0  0.649978  0.87728  0  2.383056  0
Zn  Zn1  1  0.73714119  0.84661950  0.97558023  1  0  1.088229  0  1.862604  0  0  0.910594  0  2.340913  0  0  0.957861  0  2.279831  0  1.261114  0  0.650006  0.877327  0  2.383073  0
Zn  Zn2  1  0.23713560  0.65337435  0.02441790  1  0  1.088204  0  1.862687  0  0  0.910552  0  2.340994  0  0  0.957824  0  2.27992  0  1.261069  0  0.649977  0.877285  0  2.383155  0
Zn  Zn3  1  0.26287195  0.34662442  0.52441977  1  0  1.088175  0  1.862677  0  0  0.910513  0  2.34098  0  0  0.957802  0  2.279901  0  1.261225  0  0.649974  0.877262  0  2.383133  0
H  H4  1  0.74331697  0.33343780  0.56094874  1  0  0.398431  0  0.917527  0  0  0.369832  0  0.979481  0  0  0.379703  0  0.965222  0  0.598431  0  0.270554  0.362769  0  0.989665  0
H  H5  1  0.75669588  0.66656204  0.06094686  1  0  0.398449  0  0.917529  0  0  0.369869  0  0.97945  0  0  0.379737  0  0.965196  0  0.598467  0  0.270574  0.362805  0  0.989636  0
H  H6  1  0.25669616  0.83343181  0.93905314  1  0  0.398502  0  0.917456  0  0  0.369911  0  0.979398  0  0  0.379782  0  0.96514  0  0.598523  0  0.270593  0.362847  0  0.989586  0
H  H7  1  0.24331530  0.16656803  0.43905267  1  0  0.398452  0  0.917511  0  0  0.369885  0  0.97942  0  0  0.379758  0  0.965159  0  0.598479  0  0.270587  0.362821  0  0.989606  0
H  H8  1  0.08335938  0.92649841  0.08507135  1  0  0.081908  0  0.960682  0  0  0.088785  0  1.032454  0  0  0.09214  0  1.028499  0  0.079572  0  0.116555  0.08631  0  1.035347  0
H  H9  1  0.41666382  0.07350465  0.58507182  1  0  0.081828  0  0.960796  0  0  0.088709  0  1.032572  0  0  0.092067  0  1.028611  0  0.079662  0  0.116515  0.086237  0  1.035459  0
H  H10  1  0.91665767  0.42649580  0.41492395  1  0  0.081863  0  0.960691  0  0  0.088675  0  1.032569  0  0  0.092031  0  1.028609  0  0.079608  0  0.1165  0.086203  0  1.035456  0
H  H11  1  0.58336301  0.57349437  0.91492724  1  0  0.081881  0  0.960722  0  0  0.088736  0  1.03252  0  0  0.092095  0  1.02856  0  0.07963  0  0.116537  0.086261  0  1.035413  0
H  H12  1  0.76399880  0.32329656  0.15790630  1  0  0.10674  0  0.947793  0  0  0.118069  0  1.006254  0  0  0.120785  0  1.004572  0  0.086962  0  0.112875  0.115984  0  1.007653  0
H  H13  1  0.73599644  0.67669576  0.65790677  1  0  0.106733  0  0.947813  0  0  0.118047  0  1.006301  0  0  0.120774  0  1.004603  0  0.08692  0  0.11289  0.115961  0  1.0077  0
H  H14  1  0.23595563  0.82330883  0.34209323  1  0  0.106724  0  0.947797  0  0  0.117974  0  1.006364  0  0  0.120754  0  1.004595  0  0.086921  0  0.112856  0.115893  0  1.007752  0
H  H15  1  0.26400691  0.17670282  0.84209276  1  0  0.10673  0  0.947944  0  0  0.118012  0  1.006479  0  0  0.120722  0  1.004801  0  0.087037  0  0.112869  0.115927  0  1.007877  0
H  H16  1  0.44798499  0.32067534  0.07047366  1  0  0.11168  0  0.976158  0  0  0.118327  0  1.041073  0  0  0.121163  0  1.04117  0  0.147382  0  0.106321  0.11638  0  1.041129  0
H  H17  1  0.05201669  0.67931698  0.57047366  1  0  0.111638  0  0.976127  0  0  0.11834  0  1.041006  0  0  0.121179  0  1.041096  0  0.147662  0  0.106319  0.11639  0  1.041061  0
H  H18  1  0.55198510  0.82068761  0.42952399  1  0  0.11171  0  0.976157  0  0  0.118346  0  1.041086  0  0  0.121184  0  1.041177  0  0.147279  0  0.106307  0.116394  0  1.041141  0
H  H19  1  0.94799253  0.17932189  0.92952493  1  0  0.111646  0  0.976217  0  0  0.118306  0  1.041134  0  0  0.121142  0  1.041229  0  0.147225  0  0.106318  0.116356  0  1.041186  0
H  H20  1  0.46677847  0.11769271  0.99159140  1  0  0.078751  0  0.958709  0  0  0.085241  0  1.027507  0  0  0.087677  0  1.025986  0  0.117537  0  0.113865  0.083654  0  1.028183  0
H  H21  1  0.03323104  0.88230498  0.49159328  1  0  0.078735  0  0.958739  0  0  0.08524  0  1.027553  0  0  0.087676  0  1.026031  0  0.117354  0  0.113874  0.08366  0  1.02821  0
H  H22  1  0.53323271  0.61769639  0.50840250  1  0  0.078789  0  0.958684  0  0  0.085282  0  1.027493  0  0  0.08771  0  1.025998  0  0.11782  0  0.113895  0.083701  0  1.028152  0
H  H23  1  0.96677231  0.38230560  0.00840719  1  0  0.078775  0  0.958734  0  0  0.085287  0  1.027517  0  0  0.087721  0  1.026006  0  0.117558  0  0.113885  0.083704  0  1.028179  0
H  H24  1  0.38138006  0.94720290  0.15007887  1  0  0.097009  0  0.964481  0  0  0.106626  0  1.028102  0  0  0.109169  0  1.028031  0  0.075164  0  0.099344  0.104784  0  1.028275  0
H  H25  1  0.11862944  0.05279909  0.65007464  1  0  0.097007  0  0.964455  0  0  0.106612  0  1.0281  0  0  0.109144  0  1.028067  0  0.075039  0  0.099342  0.104763  0  1.028268  0
H  H26  1  0.61860372  0.44720674  0.34992630  1  0  0.097008  0  0.964512  0  0  0.106643  0  1.028098  0  0  0.109178  0  1.028058  0  0.075016  0  0.099374  0.104797  0  1.028266  0
H  H27  1  0.88138957  0.55278773  0.84992536  1  0  0.097034  0  0.964517  0  0  0.106654  0  1.02812  0  0  0.109185  0  1.02809  0  0.07511  0  0.099367  0.104811  0  1.028289  0
H  H28  1  0.65002664  0.93102030  0.24590790  1  0  0.092724  0  0.987934  0  0  0.100351  0  1.05596  0  0  0.102754  0  1.055725  0  0.100229  0  0.098727  0.098553  0  1.056259  0
H  H29  1  0.84997643  0.06898169  0.74590273  1  0  0.092804  0  0.987889  0  0  0.100417  0  1.055913  0  0  0.102808  0  1.055713  0  0.100592  0  0.098741  0.09859  0  1.05624  0
H  H30  1  0.34994345  0.43101447  0.25410008  1  0  0.092797  0  0.987808  0  0  0.100434  0  1.055802  0  0  0.102827  0  1.055594  0  0.100422  0  0.098714  0.098619  0  1.056121  0
H  H31  1  0.15005432  0.56898322  0.75410149  1  0  0.092779  0  0.987839  0  0  0.100415  0  1.055826  0  0  0.102809  0  1.055617  0  0.100509  0  0.098709  0.098598  0  1.056144  0
H  H32  1  0.17426237  0.25012372  0.33542766  1  0  0.091085  0  0.954318  0  0  0.101982  0  1.016253  0  0  0.104552  0  1.014961  0  0.072915  0  0.102358  0.100038  0  1.017451  0
H  H33  1  0.32573735  0.74988471  0.83542766  1  0  0.091094  0  0.954289  0  0  0.101958  0  1.016269  0  0  0.104528  0  1.014977  0  0.073022  0  0.102338  0.100013  0  1.017468  0
H  H34  1  0.82569206  0.75011558  0.16457328  1  0  0.091101  0  0.954373  0  0  0.102008  0  1.016291  0  0  0.104575  0  1.015005  0  0.072891  0  0.10239  0.100064  0  1.017489  0
H  H35  1  0.67429535  0.24988533  0.66457140  1  0  0.091089  0  0.954368  0  0  0.101951  0  1.016336  0  0  0.10452  0  1.015047  0  0.072846  0  0.10239  0.100009  0  1.017532  0
H  H36  1  0.89902851  0.26724055  0.24165384  1  0  0.08936  0  0.972614  0  0  0.098953  0  1.036908  0  0  0.101091  0  1.037423  0  0.082145  0  0.100838  0.09755  0  1.036463  0
H  H37  1  0.60096869  0.73276788  0.74165430  1  0  0.089418  0  0.972655  0  0  0.099011  0  1.036939  0  0  0.101149  0  1.037454  0  0.082182  0  0.100846  0.097606  0  1.036494  0
H  H38  1  0.10093766  0.76723671  0.25834523  1  0  0.089213  0  0.972662  0  0  0.098822  0  1.036959  0  0  0.100959  0  1.037488  0  0.082364  0  0.100756  0.097412  0  1.036509  0
H  H39  1  0.39904053  0.23276420  0.75834335  1  0  0.089327  0  0.972597  0  0  0.098904  0  1.036911  0  0  0.101044  0  1.037424  0  0.082257  0  0.100817  0.097498  0  1.036464  0
C  C40  1  0.94804341  0.01694394  0.08420289  1  0  0.085309  0  3.653557  0  0  0.047932  0  3.90161  0  0  0.054594  0  3.918582  0  0.494356  0  0.051168  0.043563  0  3.890204  0
C  C41  1  0.55197140  0.98305482  0.58420336  1  0  0.085439  0  3.653984  0  0  0.048047  0  3.902028  0  0  0.054715  0  3.918997  0  0.494323  0  0.051218  0.043681  0  3.890611  0
C  C42  1  0.05195798  0.51694440  0.41579476  1  0  0.085523  0  3.653662  0  0  0.048194  0  3.901738  0  0  0.054866  0  3.918698  0  0.494238  0  0.051276  0.043825  0  3.890326  0
C  C43  1  0.44803782  0.48305007  0.91579523  1  0  0.085445  0  3.653561  0  0  0.048086  0  3.901562  0  0  0.054756  0  3.918526  0  0.494385  0  0.051208  0.043711  0  3.890154  0
C  C44  1  0.94821366  0.12204172  0.13154399  1  0  0.007828  0  3.742803  0  0  0.027314  0  3.973079  0  0  0.02266  0  3.997389  0  0.020316  0  0.005458  0.029937  0  3.956835  0
C  C45  1  0.55178159  0.87796135  0.63154211  1  0  0.007787  0  3.742666  0  0  0.027259  0  3.972986  0  0  0.022602  0  3.997292  0  0.020337  0  0.005416  0.029882  0  3.956745  0
C  C46  1  0.05176426  0.62204003  0.36845742  1  0  0.007763  0  3.742649  0  0  0.027176  0  3.973067  0  0  0.022519  0  3.99738  0  0.019757  0  0.005426  0.029799  0  3.956829  0
C  C47  1  0.44821785  0.37795337  0.86845554  1  0  0.007774  0  3.742603  0  0  0.027273  0  3.972895  0  0  0.022619  0  3.997194  0  0.019762  0  0.005518  0.029896  0  3.956655  0
C  C48  1  0.76860129  0.23529629  0.12436156  1  0  -0.013329  0  3.634519  0  0  -0.039338  0  3.87796  0  0  -0.034697  0  3.893409  0  0.017582  0  -0.050905  -0.042149  0  3.867435  0
C  C49  1  0.73140178  0.76469925  0.62436156  1  0  -0.013277  0  3.634353  0  0  -0.039283  0  3.877825  0  0  -0.034646  0  3.89327  0  0.017629  0  -0.05086  -0.042097  0  3.867301  0
C  C50  1  0.23137467  0.73530534  0.37563750  1  0  -0.013456  0  3.634501  0  0  -0.039377  0  3.877939  0  0  -0.034778  0  3.893365  0  0.018104  0  -0.050893  -0.042189  0  3.867415  0
C  C51  1  0.26860744  0.26469558  0.87563562  1  0  -0.013479  0  3.634651  0  0  -0.039473  0  3.878103  0  0  -0.034827  0  3.893554  0  0.017995  0  -0.05099  -0.042285  0  3.867578  0
C  C52  1  0.59369903  0.23591267  0.07435311  1  0  -0.118177  0  3.738945  0  0  -0.128958  0  3.988771  0  0  -0.13645  0  4.010765  0  -0.05854  0  -0.082675  -0.124184  0  3.973809  0
C  C53  1  0.90630404  0.76408825  0.57435358  1  0  -0.118131  0  3.739201  0  0  -0.128927  0  3.989012  0  0  -0.13642  0  4.011004  0  -0.058941  0  -0.082661  -0.124148  0  3.974048  0
C  C54  1  0.40629453  0.73591098  0.42564407  1  0  -0.118056  0  3.739095  0  0  -0.128799  0  3.98886  0  0  -0.136293  0  4.01087  0  -0.058358  0  -0.082593  -0.12402  0  3.973896  0
C  C55  1  0.09370714  0.26408349  0.92564407  1  0  -0.117851  0  3.738939  0  0  -0.128639  0  3.988725  0  0  -0.136128  0  4.010712  0  -0.058424  0  -0.082532  -0.123859  0  3.973759  0
C  C56  1  0.60298619  0.12501085  0.03081307  1  0  0.117289  0  3.706974  0  0  0.086243  0  3.956726  0  0  0.093009  0  3.975306  0  0.434494  0  0.042842  0.082061  0  3.943858  0
C  C57  1  0.89702666  0.87498147  0.53081542  1  0  0.117225  0  3.707325  0  0  0.086081  0  3.957135  0  0  0.092853  0  3.97571  0  0.434814  0  0.042764  0.081901  0  3.944268  0
C  C58  1  0.39701520  0.62501560  0.46918130  1  0  0.117111  0  3.707155  0  0  0.086014  0  3.956931  0  0  0.092782  0  3.975503  0  0.434096  0  0.042738  0.081835  0  3.94406  0
C  C59  1  0.10299430  0.37498209  0.96918458  1  0  0.117118  0  3.707098  0  0  0.086042  0  3.956843  0  0  0.092812  0  3.975419  0  0.434769  0  0.042769  0.081857  0  3.943972  0
C  C60  1  0.11826351  0.11039926  0.18751901  1  0  0.062904  0  3.759058  0  0  0.075194  0  3.989134  0  0  0.076935  0  4.013524  0  -0.033674  0  -0.001363  0.074301  0  3.972416  0
C  C61  1  0.38173425  0.88960809  0.68751760  1  0  0.062961  0  3.758928  0  0  0.075243  0  3.989009  0  0  0.076991  0  4.013391  0  -0.033405  0  -0.001373  0.074349  0  3.972295  0
C  C62  1  0.88170462  0.61039972  0.31248240  1  0  0.063108  0  3.758657  0  0  0.075377  0  3.98879  0  0  0.077125  0  4.013175  0  -0.033829  0  -0.001294  0.074486  0  3.972073  0
C  C63  1  0.61828280  0.38960012  0.81248005  1  0  0.063156  0  3.758777  0  0  0.075409  0  3.988868  0  0  0.077156  0  4.013249  0  -0.0334  0  -0.001335  0.074515  0  3.972153  0
C  C64  1  0.33131434  0.01453105  0.19023096  1  0  -0.119756  0  3.725969  0  0  -0.136771  0  3.97406  0  0  -0.142157  0  3.997473  0  -0.051559  0  -0.089412  -0.133088  0  3.957938  0
C  C65  1  0.16869321  0.98547094  0.69022815  1  0  -0.119756  0  3.725964  0  0  -0.136756  0  3.97405  0  0  -0.142147  0  3.997449  0  -0.051609  0  -0.089419  -0.133061  0  3.957911  0
C  C66  1  0.66867531  0.51453258  0.30977326  1  0  -0.119894  0  3.725925  0  0  -0.136904  0  3.974014  0  0  -0.142293  0  3.997412  0  -0.051061  0  -0.089498  -0.133214  0  3.957881  0
C  C67  1  0.83131797  0.48546726  0.80977185  1  0  -0.119874  0  3.725987  0  0  -0.136886  0  3.974092  0  0  -0.142276  0  3.997492  0  -0.051517  0  -0.089462  -0.1332  0  3.957963  0
C  C68  1  0.48489488  0.00457881  0.24404985  1  0  -0.069918  0  3.750849  0  0  -0.093524  0  4.000238  0  0  -0.093027  0  4.021718  0  -0.06123  0  -0.085994  -0.093604  0  3.985496  0
C  C69  1  0.01510093  0.99542748  0.74404798  1  0  -0.070085  0  3.750802  0  0  -0.093669  0  4.000152  0  0  -0.093168  0  4.02161  0  -0.061584  0  -0.086058  -0.093726  0  3.985427  0
C  C70  1  0.51507129  0.50457604  0.25595437  1  0  -0.070105  0  3.750875  0  0  -0.09371  0  4.000287  0  0  -0.093212  0  4.021751  0  -0.061882  0  -0.086024  -0.09378  0  3.985553  0
C  C71  1  0.98491808  0.49542809  0.75595343  1  0  -0.070112  0  3.750987  0  0  -0.09371  0  4.000372  0  0  -0.093211  0  4.021837  0  -0.061899  0  -0.086014  -0.093775  0  3.985641  0
C  C72  1  0.43254748  0.08962390  0.29682988  1  0  -0.068833  0  3.749924  0  0  -0.04427  0  3.980159  0  0  -0.053195  0  4.003984  0  -0.049697  0  -0.018432  -0.038517  0  3.963973  0
C  C73  1  0.06745419  0.91037594  0.79682753  1  0  -0.068919  0  3.7501  0  0  -0.044374  0  3.980326  0  0  -0.053297  0  4.004138  0  -0.049691  0  -0.018458  -0.038618  0  3.964136  0
C  C74  1  0.56742456  0.58961362  0.20317482  1  0  -0.068895  0  3.750343  0  0  -0.044418  0  3.980622  0  0  -0.053339  0  4.004441  0  -0.049203  0  -0.018599  -0.038659  0  3.96443  0
C  C75  1  0.93257264  0.41038730  0.70317435  1  0  -0.06889  0  3.750149  0  0  -0.04439  0  3.980393  0  0  -0.053311  0  4.004213  0  -0.049219  0  -0.018607  -0.038634  0  3.964203  0
C  C76  1  0.21941838  0.18414338  0.29461177  1  0  -0.05239  0  3.730426  0  0  -0.074994  0  3.976769  0  0  -0.073905  0  3.99682  0  -0.018831  0  -0.081243  -0.075624  0  3.963337  0
C  C77  1  0.28057155  0.81586075  0.79461083  1  0  -0.052295  0  3.73036  0  0  -0.074877  0  3.97669  0  0  -0.073786  0  3.996739  0  -0.018518  0  -0.081204  -0.075507  0  3.963259  0
C  C78  1  0.78053605  0.68414277  0.20539104  1  0  -0.05242  0  3.730691  0  0  -0.075015  0  3.97701  0  0  -0.073932  0  3.997072  0  -0.018114  0  -0.081193  -0.075642  0  3.963568  0
C  C79  1  0.71944745  0.31586030  0.70538917  1  0  -0.052319  0  3.730513  0  0  -0.074882  0  3.97681  0  0  -0.073794  0  3.996863  0  -0.017982  0  -0.081192  -0.07551  0  3.963369  0
C  C80  1  0.06496901  0.19392811  0.24109192  1  0  -0.094758  0  3.706631  0  0  -0.113481  0  3.956094  0  0  -0.117163  0  3.976277  0  -0.028302  0  -0.082179  -0.111047  0  3.942275  0
C  C81  1  0.43503658  0.80607388  0.74109098  1  0  -0.094834  0  3.706507  0  0  -0.113543  0  3.955945  0  0  -0.117227  0  3.976126  0  -0.028857  0  -0.082168  -0.111108  0  3.942126  0
C  C82  1  0.93499717  0.69393286  0.25890761  1  0  -0.09447  0  3.706427  0  0  -0.11315  0  3.955809  0  0  -0.116841  0  3.976004  0  -0.02906  0  -0.082067  -0.110708  0  3.941983  0
C  C83  1  0.56499612  0.30606268  0.75890761  1  0  -0.094729  0  3.70664  0  0  -0.113394  0  3.956036  0  0  -0.117073  0  3.976212  0  -0.029172  0  -0.08213  -0.110954  0  3.942213  0
C  C84  1  0.60144616  0.07677983  0.35421979  1  0  0.631219  0  3.922037  0  0  0.582364  0  4.212326  0  0  0.615856  0  4.20584  0  1.54108  0  0.202536  0.559603  0  4.215931  0
C  C85  1  0.89854713  0.92322216  0.85421651  1  0  0.631364  0  3.921987  0  0  0.58255  0  4.212221  0  0  0.616049  0  4.205722  0  1.541052  0  0.202655  0.559787  0  4.215833  0
C  C86  1  0.39853567  0.57675989  0.14578115  1  0  0.631386  0  3.921801  0  0  0.582643  0  4.211926  0  0  0.616142  0  4.205429  0  1.540694  0  0.202624  0.55988  0  4.215539  0
C  C87  1  0.10146796  0.42323781  0.64578303  1  0  0.631228  0  3.921907  0  0  0.582485  0  4.212055  0  0  0.615981  0  4.205564  0  1.540666  0  0.202528  0.559723  0  4.215664  0
N  N88  1  0.78093916  0.01853321  0.03537320  1  0  -0.338879  0  3.331645  0  0  -0.253805  0  3.611031  0  0  -0.2729  0  3.625009  0  -1.255038  0  -0.330812  -0.240943  0  3.601452  0
N  N89  1  0.71907957  0.98146448  0.53537367  1  0  -0.338867  0  3.331812  0  0  -0.25369  0  3.611115  0  0  -0.272801  0  3.625111  0  -1.255185  0  -0.330753  -0.240829  0  3.601532  0
N  N90  1  0.21906811  0.51853474  0.46462445  1  0  -0.338915  0  3.331626  0  0  -0.253764  0  3.610913  0  0  -0.272884  0  3.624921  0  -1.254814  0  -0.330798  -0.240899  0  3.601328  0
N  N91  1  0.28093748  0.48146402  0.96462727  1  0  -0.339001  0  3.331708  0  0  -0.253885  0  3.61105  0  0  -0.272999  0  3.625046  0  -1.2552  0  -0.330845  -0.241009  0  3.601459  0
O  O92  1  0.64109954  0.32513496  0.52213454  1  0  -0.982157  0  1.863355  0  0  -0.881052  0  2.159151  0  0  -0.91272  0  2.119906  0  -1.235828  0  -0.600816  -0.858841  0  2.186084  0
O  O93  1  0.85890940  0.67486488  0.02213313  1  0  -0.98214  0  1.863338  0  0  -0.88112  0  2.159208  0  0  -0.912776  0  2.119958  0  -1.235849  0  -0.600835  -0.858875  0  2.186082  0
O  O94  1  0.35891360  0.82512897  0.97786734  1  0  -0.982244  0  1.863347  0  0  -0.881155  0  2.159134  0  0  -0.912813  0  2.119884  0  -1.235886  0  -0.600832  -0.858909  0  2.186001  0
O  O95  1  0.14109982  0.17486872  0.47786687  1  0  -0.982154  0  1.863342  0  0  -0.881124  0  2.159141  0  0  -0.912792  0  2.119897  0  -1.235843  0  -0.60083  -0.858906  0  2.186065  0
O  O96  1  0.55937217  0.17513074  0.39727584  1  0  -0.686232  0  2.083235  0  0  -0.599492  0  2.350812  0  0  -0.629245  0  2.33399  0  -1.177467  0  -0.335202  -0.57852  0  2.361746  0
O  O97  1  0.94063678  0.82487769  0.89727490  1  0  -0.686246  0  2.083221  0  0  -0.599531  0  2.350805  0  0  -0.629282  0  2.333979  0  -1.177306  0  -0.335267  -0.578561  0  2.361739  0
O  O98  1  0.44061749  0.67511079  0.10272557  1  0  -0.686327  0  2.083039  0  0  -0.599637  0  2.350624  0  0  -0.629379  0  2.333764  0  -1.177116  0  -0.335315  -0.578669  0  2.36156  0
O  O99  1  0.05938223  0.32488905  0.60272463  1  0  -0.686224  0  2.08312  0  0  -0.599551  0  2.350711  0  0  -0.629292  0  2.333855  0  -1.177183  0  -0.335253  -0.578577  0  2.361641  0
O  O100  1  0.76574235  0.97884649  0.35986292  1  0  -0.596014  0  1.911779  0  0  -0.552042  0  2.137774  0  0  -0.574428  0  2.131236  0  -1.159126  0  -0.314408  -0.536257  0  2.141596  0
O  O101  1  0.73423137  0.02115121  0.85985635  1  0  -0.596115  0  1.91172  0  0  -0.552154  0  2.137699  0  0  -0.57454  0  2.131159  0  -1.159239  0  -0.314425  -0.536363  0  2.141513  0
O  O102  1  0.23423361  0.47883100  0.14014130  1  0  -0.596047  0  1.911915  0  0  -0.552136  0  2.137894  0  0  -0.574518  0  2.13134  0  -1.159542  0  -0.31432  -0.536351  0  2.141721  0
O  O103  1  0.26577002  0.52116777  0.64014271  1  0  -0.595993  0  1.911902  0  0  -0.552076  0  2.137878  0  0  -0.574459  0  2.13133  0  -1.159537  0  -0.314284  -0.53629  0  2.1417  0
