# generated using pymatgen
data_CdH16C19N2O5
_symmetry_space_group_name_H-M   'P 1'
_cell_length_a   7.81721568
_cell_length_b   10.30943571
_cell_length_c   11.55651480
_cell_angle_alpha   98.40500320
_cell_angle_beta   91.49299452
_cell_angle_gamma   98.77940312
_symmetry_Int_Tables_number   1
_chemical_formula_structural   CdH16C19N2O5
_chemical_formula_sum   'Cd2 H32 C38 N4 O10'
_cell_volume   909.43891942
_cell_formula_units_Z   2
loop_
 _symmetry_equiv_pos_site_id
 _symmetry_equiv_pos_as_xyz
  1  'x, y, z'
loop_
 _atom_site_type_symbol
 _atom_site_label
 _atom_site_symmetry_multiplicity
 _atom_site_fract_x
 _atom_site_fract_y
 _atom_site_fract_z
 _atom_site_occupancy
 _atom_site_hle17_bader_spin_density
 _atom_site_hle17_ddec_charge
 _atom_site_hle17_ddec_spin_density
 _atom_site_hle17_ddec_sum_bond_order
 _atom_site_hle17_magmom
 _atom_site_hse06_10hf_bader_spin_density
 _atom_site_hse06_10hf_ddec_charge
 _atom_site_hse06_10hf_ddec_spin_density
 _atom_site_hse06_10hf_ddec_sum_bond_order
 _atom_site_hse06_10hf_magmom
 _atom_site_hse06_bader_spin_density
 _atom_site_hse06_ddec_charge
 _atom_site_hse06_ddec_spin_density
 _atom_site_hse06_ddec_sum_bond_order
 _atom_site_hse06_magmom
 _atom_site_pbe_bader_spin_density
 _atom_site_pbe_cm5_charge
 _atom_site_pbe_ddec_charge
 _atom_site_pbe_ddec_spin_density
 _atom_site_pbe_ddec_sum_bond_order
 _atom_site_pbe_magmom
Cd  Cd0  1  0.28360978  0.76453198  0.37300259  1  0  1.132693  0  1.651276  0  0  0.940888  0  2.095638  0  0  1.00004  0  2.040814  0  0  0.771053  0.898825  0  2.13324  0
Cd  Cd1  1  0.71639488  0.23547145  0.62699995  1  0  1.13265  0  1.651332  0  0  0.940851  0  2.095702  0  0  1.000001  0  2.040876  0  0  0.771026  0.898788  0  2.133299  0
H  H2  1  0.13623381  0.98422658  0.41147634  1  0  0.414056  0  0.89941  0  0  0.378813  0  0.969644  0  0  0.391197  0  0.951913  0  0  0.279516  0.370261  0  0.981773  0
H  H3  1  0.86377165  0.01577478  0.58852252  1  0  0.414092  0  0.89935  0  0  0.378856  0  0.969582  0  0  0.391239  0  0.951851  0  0  0.279526  0.370303  0  0.981714  0
H  H4  1  0.28225574  0.02742339  0.52111302  1  0  0.443725  0  0.847411  0  0  0.409255  0  0.916405  0  0  0.421027  0  0.899307  0  0  0.290209  0.400894  0  0.928484  0
H  H5  1  0.71774650  0.97257512  0.47888978  1  0  0.443731  0  0.847412  0  0  0.409265  0  0.916396  0  0  0.421036  0  0.8993  0  0  0.290205  0.400904  0  0.928477  0
H  H6  1  0.06200398  0.52730693  0.19202254  1  0  0.089372  0  0.921367  0  0  0.100406  0  0.976166  0  0  0.103424  0  0.973184  0  0  0.120925  0.09775  0  0.979063  0
H  H7  1  0.93801654  0.47269304  0.80796779  1  0  0.089344  0  0.921277  0  0  0.100387  0  0.976067  0  0  0.103396  0  0.973089  0  0  0.120913  0.097739  0  0.978956  0
H  H8  1  0.92971636  0.28526551  0.17630115  1  0  0.099941  0  0.971178  0  0  0.109963  0  1.031707  0  0  0.112232  0  1.032621  0  0  0.10658  0.108375  0  1.031109  0
H  H9  1  0.07029803  0.71473561  0.82369179  1  0  0.099916  0  0.971221  0  0  0.109945  0  1.031723  0  0  0.112215  0  1.032639  0  0  0.106577  0.108364  0  1.031128  0
H  H10  1  0.97202270  0.16745814  0.34734431  1  0  0.118288  0  0.973439  0  0  0.125728  0  1.03581  0  0  0.129509  0  1.032322  0  0  0.111858  0.122334  0  1.039221  0
H  H11  1  0.02796386  0.83254449  0.65265433  1  0  0.118217  0  0.973438  0  0  0.125629  0  1.035884  0  0  0.129404  0  1.032403  0  0  0.111817  0.12224  0  1.039295  0
H  H12  1  0.14592620  0.29061230  0.52344108  1  0  0.113009  0  0.957082  0  0  0.122766  0  1.017352  0  0  0.125986  0  1.016179  0  0  0.10971  0.120628  0  1.017915  0
H  H13  1  0.85406569  0.70939121  0.47655517  1  0  0.113114  0  0.956974  0  0  0.122787  0  1.017337  0  0  0.126007  0  1.016164  0  0  0.109768  0.120649  0  1.017905  0
H  H14  1  0.51169553  0.86143130  0.61804401  1  0  0.09569  0  0.938695  0  0  0.104671  0  0.999638  0  0  0.107701  0  0.996465  0  0  0.120541  0.102656  0  1.001498  0
H  H15  1  0.48831460  0.13856820  0.38196423  1  0  0.09564  0  0.938844  0  0  0.104633  0  0.999776  0  0  0.107663  0  0.996601  0  0  0.12049  0.10261  0  1.001639  0
H  H16  1  0.60037634  0.77474157  0.79759729  1  0  0.100647  0  0.988842  0  0  0.109495  0  1.052189  0  0  0.111607  0  1.053403  0  0  0.106723  0.107959  0  1.051438  0
H  H17  1  0.39961387  0.22524936  0.20241479  1  0  0.100626  0  0.988993  0  0  0.109488  0  1.052316  0  0  0.111601  0  1.053532  0  0  0.106691  0.107949  0  1.051558  0
H  H18  1  0.49998533  0.53214667  0.81216809  1  0  0.105865  0  0.925354  0  0  0.118897  0  0.97782  0  0  0.121989  0  0.975443  0  0  0.11355  0.116673  0  0.979416  0
H  H19  1  0.49998783  0.46784235  0.18783566  1  0  0.105686  0  0.925364  0  0  0.118779  0  0.97778  0  0  0.121872  0  0.975401  0  0  0.113479  0.11655  0  0.979376  0
H  H20  1  0.31145232  0.39350034  0.65062985  1  0  0.109552  0  0.972679  0  0  0.119019  0  1.035162  0  0  0.121517  0  1.034717  0  0  0.109504  0.117266  0  1.0355  0
H  H21  1  0.68852381  0.60650151  0.34937111  1  0  0.109664  0  0.972651  0  0  0.1191  0  1.03517  0  0  0.1216  0  1.034726  0  0  0.109516  0.117344  0  1.035508  0
H  H22  1  0.65410849  0.05378243  0.22110373  1  0  0.085779  0  0.974133  0  0  0.095267  0  1.042194  0  0  0.09777  0  1.041478  0  0  0.095939  0.093584  0  1.04248  0
H  H23  1  0.34590464  0.94621896  0.77890219  1  0  0.085761  0  0.974179  0  0  0.095237  0  1.042247  0  0  0.09774  0  1.041533  0  0  0.095938  0.093553  0  1.042539  0
H  H24  1  0.64497025  0.20461911  0.07180504  1  0  0.076371  0  0.963987  0  0  0.088171  0  1.023901  0  0  0.09083  0  1.022905  0  0  0.093904  0.086403  0  1.024417  0
H  H25  1  0.35503997  0.79538637  0.92820476  1  0  0.076351  0  0.963971  0  0  0.08816  0  1.02388  0  0  0.090818  0  1.022886  0  0  0.093911  0.086395  0  1.024403  0
H  H26  1  0.74738395  0.14340157  0.87369486  1  0  0.090203  0  0.973678  0  0  0.100071  0  1.037497  0  0  0.10305  0  1.035825  0  0  0.093491  0.097871  0  1.038869  0
H  H27  1  0.25261524  0.85660597  0.12630978  1  0  0.090189  0  0.973733  0  0  0.100068  0  1.037533  0  0  0.103047  0  1.035862  0  0  0.093513  0.097881  0  1.038893  0
H  H28  1  0.85624605  0.92820023  0.82208272  1  0  0.086805  0  0.967438  0  0  0.097047  0  1.029777  0  0  0.099265  0  1.029739  0  0  0.097313  0.095444  0  1.029888  0
H  H29  1  0.14374479  0.07180431  0.17791536  1  0  0.086816  0  0.967401  0  0  0.097045  0  1.029762  0  0  0.099263  0  1.029724  0  0  0.097296  0.095404  0  1.029908  0
H  H30  1  0.85316130  0.77304065  0.96861641  1  0  0.078994  0  0.9626  0  0  0.091183  0  1.024159  0  0  0.093877  0  1.02327  0  0  0.093615  0.089351  0  1.024661  0
H  H31  1  0.14683395  0.22696077  0.03137793  1  0  0.078977  0  0.962679  0  0  0.091203  0  1.024195  0  0  0.093893  0  1.023308  0  0  0.093623  0.089362  0  1.024699  0
H  H32  1  0.76418858  0.70972260  0.14462119  1  0  0.10875  0  0.913304  0  0  0.119093  0  0.966517  0  0  0.123011  0  0.963406  0  0  0.108425  0.11644  0  0.968711  0
H  H33  1  0.23581364  0.29027575  0.85537379  1  0  0.108744  0  0.913185  0  0  0.119059  0  0.966429  0  0  0.122984  0  0.963309  0  0  0.108438  0.116387  0  0.968604  0
C  C34  1  0.07907386  0.46960371  0.26219785  1  0  0.137914  0  3.717272  0  0  0.107401  0  3.968715  0  0  0.11448  0  3.986752  0  0  0.051573  0.102628  0  3.957045  0
C  C35  1  0.92093565  0.53039845  0.73779425  1  0  0.137834  0  3.717329  0  0  0.107337  0  3.968766  0  0  0.114425  0  3.986793  0  0  0.051507  0.102555  0  3.957104  0
C  C36  1  0.00535055  0.33668699  0.25465268  1  0  -0.116693  0  3.722005  0  0  -0.128575  0  3.972606  0  0  -0.135836  0  3.995572  0  0  -0.081464  -0.124127  0  3.95726  0
C  C37  1  0.99465618  0.66331425  0.74534099  1  0  -0.116706  0  3.721973  0  0  -0.128582  0  3.972535  0  0  -0.13584  0  3.995495  0  0  -0.08145  -0.124138  0  3.957208  0
C  C38  1  0.02866114  0.27148041  0.35011151  1  0  -0.003722  0  3.687267  0  0  -0.023763  0  3.940732  0  0  -0.020539  0  3.958205  0  0  -0.065079  -0.025348  0  3.929069  0
C  C39  1  0.97133526  0.72852601  0.64988516  1  0  -0.003493  0  3.686981  0  0  -0.023553  0  3.940474  0  0  -0.020323  0  3.957937  0  0  -0.065  -0.025135  0  3.928824  0
C  C40  1  0.12693114  0.34053869  0.44853540  1  0  -0.130766  0  3.671002  0  0  -0.150869  0  3.923446  0  0  -0.157591  0  3.943666  0  0  -0.077579  -0.146262  0  3.909159  0
C  C41  1  0.87306422  0.65946881  0.55146484  1  0  -0.130845  0  3.670964  0  0  -0.150849  0  3.923422  0  0  -0.15757  0  3.943639  0  0  -0.077598  -0.146246  0  3.909147  0
C  C42  1  0.19893088  0.47385974  0.44946344  1  0  0.169174  0  3.774962  0  0  0.164021  0  4.017517  0  0  0.170681  0  4.039145  0  0  0.117459  0.159732  0  4.002506  0
C  C43  1  0.80106703  0.52614771  0.55053597  1  0  0.169131  0  3.774863  0  0  0.163941  0  4.017456  0  0  0.1706  0  4.039084  0  0  0.117439  0.159662  0  4.002443  0
C  C44  1  0.46612663  0.75882579  0.62998979  1  0  0.141426  0  3.68444  0  0  0.111888  0  3.935683  0  0  0.118987  0  3.953172  0  0  0.054955  0.107302  0  3.923456  0
C  C45  1  0.53387041  0.24116685  0.37001396  1  0  0.141544  0  3.684318  0  0  0.112003  0  3.935571  0  0  0.119102  0  3.953059  0  0  0.055017  0.107425  0  3.923325  0
C  C46  1  0.51731480  0.70937626  0.72923590  1  0  -0.113011  0  3.718518  0  0  -0.124993  0  3.967558  0  0  -0.131794  0  3.98979  0  0  -0.07834  -0.120757  0  3.952665  0
C  C47  1  0.48267436  0.29061561  0.27077281  1  0  -0.113215  0  3.718778  0  0  -0.125219  0  3.967861  0  0  -0.132023  0  3.990094  0  0  -0.078436  -0.120982  0  3.95295  0
C  C48  1  0.46076920  0.57629771  0.73751264  1  0  0.001403  0  3.709305  0  0  -0.018207  0  3.960331  0  0  -0.014838  0  3.978198  0  0  -0.06307  -0.020071  0  3.948046  0
C  C49  1  0.53921010  0.42369025  0.26249197  1  0  0.001813  0  3.709394  0  0  -0.017815  0  3.960406  0  0  -0.014441  0  3.978274  0  0  -0.062875  -0.019684  0  3.948113  0
C  C50  1  0.35528140  0.49779484  0.64680300  1  0  -0.130572  0  3.681066  0  0  -0.152335  0  3.935073  0  0  -0.158915  0  3.956404  0  0  -0.078449  -0.148269  0  3.920923  0
C  C51  1  0.64469786  0.50220389  0.35319332  1  0  -0.130859  0  3.681138  0  0  -0.152634  0  3.935189  0  0  -0.159218  0  3.956523  0  0  -0.078584  -0.148557  0  3.921039  0
C  C52  1  0.30792400  0.55380801  0.54995883  1  0  0.173592  0  3.769328  0  0  0.16891  0  4.01148  0  0  0.175537  0  4.033006  0  0  0.117739  0.164446  0  3.996889  0
C  C53  1  0.69206561  0.44618572  0.45004404  1  0  0.17364  0  3.769246  0  0  0.169018  0  4.011353  0  0  0.175649  0  4.032875  0  0  0.117807  0.164541  0  3.996775  0
C  C54  1  0.75348603  0.90327956  0.10437347  1  0  0.10669  0  3.732746  0  0  0.123884  0  3.965869  0  0  0.124035  0  3.991269  0  0  -0.007548  0.123665  0  3.948893  0
C  C55  1  0.24651793  0.09672077  0.89562264  1  0  0.106719  0  3.732678  0  0  0.12399  0  3.965679  0  0  0.124142  0  3.991078  0  0  -0.007524  0.12374  0  3.948679  0
C  C56  1  0.69735026  0.02607601  0.13329962  1  0  -0.116554  0  3.730435  0  0  -0.138704  0  3.9803  0  0  -0.141437  0  4.00244  0  0  -0.09486  -0.136728  0  3.965278  0
C  C57  1  0.30265776  0.97392538  0.86670275  1  0  -0.116554  0  3.730363  0  0  -0.138713  0  3.980191  0  0  -0.141445  0  4.002326  0  0  -0.094855  -0.136738  0  3.965191  0
C  C58  1  0.69422234  0.11106708  0.05002527  1  0  -0.072765  0  3.799354  0  0  -0.081952  0  4.046624  0  0  -0.083765  0  4.068479  0  0  -0.095017  -0.080657  0  4.031704  0
C  C59  1  0.30578637  0.88893735  0.94998005  1  0  -0.072701  0  3.799086  0  0  -0.0819  0  4.046377  0  0  -0.083712  0  4.068229  0  0  -0.095028  -0.080612  0  4.031472  0
C  C60  1  0.75031522  0.07610748  0.93774834  1  0  -0.068495  0  3.759774  0  0  -0.085061  0  4.007802  0  0  -0.087127  0  4.029332  0  0  -0.095854  -0.083701  0  3.993365  0
C  C61  1  0.24968561  0.92389603  0.06225500  1  0  -0.068505  0  3.759644  0  0  -0.085088  0  4.007688  0  0  -0.087152  0  4.029216  0  0  -0.095864  -0.083731  0  3.993229  0
C  C62  1  0.80850193  0.95460293  0.90876774  1  0  -0.074197  0  3.792868  0  0  -0.083423  0  4.039384  0  0  -0.085338  0  4.06175  0  0  -0.09718  -0.082042  0  4.024168  0
C  C63  1  0.19149506  0.04540055  0.09123119  1  0  -0.074119  0  3.792808  0  0  -0.083343  0  4.039309  0  0  -0.085257  0  4.061675  0  0  -0.097129  -0.081929  0  4.024081  0
C  C64  1  0.80813859  0.86832316  0.99123545  1  0  -0.125964  0  3.761851  0  0  -0.146243  0  4.008892  0  0  -0.14926  0  4.031108  0  0  -0.095238  -0.144118  0  3.993739  0
C  C65  1  0.19185817  0.13167929  0.00876163  1  0  -0.126018  0  3.761767  0  0  -0.146362  0  4.008796  0  0  -0.149376  0  4.031014  0  0  -0.095296  -0.144226  0  3.993628  0
C  C66  1  0.75976724  0.80893112  0.19298081  1  0  -0.294712  0  3.663014  0  0  -0.299771  0  3.889231  0  0  -0.309581  0  3.896579  0  0  -0.086832  -0.293367  0  3.884518  0
C  C67  1  0.24023452  0.19106528  0.80701567  1  0  -0.294772  0  3.663079  0  0  -0.299794  0  3.889223  0  0  -0.309609  0  3.896571  0  0  -0.086865  -0.293266  0  3.884331  0
C  C68  1  0.59355562  0.79727238  0.26103863  1  0  0.669971  0  3.874258  0  0  0.619209  0  4.176906  0  0  0.652962  0  4.171565  0  0  0.197537  0.596442  0  4.179546  0
C  C69  1  0.40644939  0.20272705  0.73896259  1  0  0.669996  0  3.874439  0  0  0.619194  0  4.177133  0  0  0.652947  0  4.171797  0  0  0.1975  0.596394  0  4.179769  0
C  C70  1  0.92473191  0.84749517  0.27470150  1  0  0.693285  0  3.845793  0  0  0.639328  0  4.153413  0  0  0.673981  0  4.145327  0  0  0.208876  0.615764  0  4.157822  0
C  C71  1  0.07527832  0.15249912  0.72529490  1  0  0.693497  0  3.845753  0  0  0.639569  0  4.153299  0  0  0.67422  0  4.145215  0  0  0.209013  0.615976  0  4.157704  0
N  N72  1  0.17284048  0.53581993  0.35713120  1  0  -0.366319  0  3.271992  0  0  -0.296302  0  3.534151  0  0  -0.316474  0  3.553931  0  0  -0.325614  -0.282425  0  3.520492  0
N  N73  1  0.82716094  0.46418055  0.64287007  1  0  -0.366294  0  3.271828  0  0  -0.296246  0  3.533915  0  0  -0.316416  0  3.553687  0  0  -0.325582  -0.282365  0  3.520255  0
N  N74  1  0.36324834  0.68315213  0.54329345  1  0  -0.37737  0  3.265476  0  0  -0.305789  0  3.528474  0  0  -0.326399  0  3.547926  0  0  -0.32583  -0.291766  0  3.515098  0
N  N75  1  0.63675562  0.31684838  0.45671134  1  0  -0.377311  0  3.265379  0  0  -0.305767  0  3.528414  0  0  -0.326376  0  3.547867  0  0  -0.325824  -0.291746  0  3.515037  0
O  O76  1  0.45835711  0.72595489  0.20867446  1  0  -0.639718  0  1.905228  0  0  -0.581429  0  2.140742  0  0  -0.609385  0  2.130515  0  0  -0.336674  -0.561879  0  2.146855  0
O  O77  1  0.54164348  0.27404754  0.79132442  1  0  -0.639629  0  1.905261  0  0  -0.581345  0  2.140813  0  0  -0.6093  0  2.130589  0  0  -0.336659  -0.561797  0  2.146937  0
O  O78  1  0.59351768  0.85593395  0.36612967  1  0  -0.654811  0  1.98749  0  0  -0.58858  0  2.229207  0  0  -0.617465  0  2.219455  0  0  -0.322932  -0.568332  0  2.234489  0
O  O79  1  0.40649917  0.14406139  0.63387476  1  0  -0.654904  0  1.987617  0  0  -0.588649  0  2.229358  0  0  -0.617535  0  2.219605  0  0  -0.322924  -0.56841  0  2.234673  0
O  O80  1  0.01861287  0.75614520  0.27518863  1  0  -0.674498  0  1.995133  0  0  -0.610317  0  2.25685  0  0  -0.6402  0  2.244821  0  0  -0.338941  -0.588954  0  2.264792  0
O  O81  1  0.98138544  0.24384734  0.72481081  1  0  -0.674611  0  1.995034  0  0  -0.610443  0  2.256744  0  0  -0.640325  0  2.244712  0  0  -0.338992  -0.589077  0  2.264689  0
O  O82  1  0.95532876  0.96212188  0.33412560  1  0  -0.628777  0  2.004571  0  0  -0.566665  0  2.225577  0  0  -0.591991  0  2.215672  0  0  -0.311048  -0.548603  0  2.231913  0
O  O83  1  0.04468144  0.03788324  0.66586599  1  0  -0.628804  0  2.004633  0  0  -0.566739  0  2.225693  0  0  -0.592067  0  2.215803  0  0  -0.311098  -0.548686  0  2.232052  0
O  O84  1  0.25830768  0.97988799  0.43996768  1  0  -0.854281  0  1.870955  0  0  -0.78242  0  2.073515  0  0  -0.80679  0  2.035561  0  0  -0.593441  -0.765315  0  2.099294  0
O  O85  1  0.74169756  0.02011241  0.56003279  1  0  -0.854324  0  1.870932  0  0  -0.782475  0  2.073474  0  0  -0.806846  0  2.035518  0  0  -0.593438  -0.765359  0  2.099237  0
