# generated using pymatgen
data_NaH8C6NO5
_symmetry_space_group_name_H-M   'P 1'
_cell_length_a   6.39340600
_cell_length_b   6.72207666
_cell_length_c   11.01966136
_cell_angle_alpha   107.64594318
_cell_angle_beta   106.85801470
_cell_angle_gamma   89.93430970
_symmetry_Int_Tables_number   1
_chemical_formula_structural   NaH8C6NO5
_chemical_formula_sum   'Na2 H16 C12 N2 O10'
_cell_volume   429.95477425
_cell_formula_units_Z   2
loop_
 _symmetry_equiv_pos_site_id
 _symmetry_equiv_pos_as_xyz
  1  'x, y, z'
loop_
 _atom_site_type_symbol
 _atom_site_label
 _atom_site_symmetry_multiplicity
 _atom_site_fract_x
 _atom_site_fract_y
 _atom_site_fract_z
 _atom_site_occupancy
 _atom_site_pbe_bader_spin_density
 _atom_site_pbe_cm5_charge
 _atom_site_pbe_ddec_charge
 _atom_site_pbe_ddec_spin_density
 _atom_site_pbe_ddec_sum_bond_order
 _atom_site_pbe_magmom
Na  Na0  1  0.14894613  0.97200318  0.44357497  1  0  0.664355  0.850095  0  0.555527  0
Na  Na1  1  0.70535174  0.02836138  0.55685909  1  0  0.664664  0.850374  0  0.555137  0
H  H2  1  0.13792732  0.37997384  0.25949457  1  0  0.111011  0.120637  0  1.005442  0
H  H3  1  0.87886243  0.61969677  0.74058571  1  0  0.111144  0.121108  0  1.005563  0
H  H4  1  0.93619821  0.25764450  0.01400231  1  0  0.111351  0.116217  0  1.018221  0
H  H5  1  0.92193654  0.74205025  0.98593404  1  0  0.111153  0.116046  0  1.018625  0
H  H6  1  0.54914630  0.21299548  0.92444826  1  0  0.114172  0.117822  0  1.007501  0
H  H7  1  0.62429513  0.78730951  0.07529101  1  0  0.113945  0.117312  0  1.008325  0
H  H8  1  0.75351281  0.33619445  0.17025854  1  0  0.106531  0.120506  0  1.011477  0
H  H9  1  0.58284157  0.66436502  0.82954172  1  0  0.106864  0.12071  0  1.011261  0
H  H10  1  0.78835299  0.29129436  0.41868930  1  0  0.290155  0.38079  0  0.961028  0
H  H11  1  0.78860344  0.62776528  0.41934224  1  0  0.290118  0.379322  0  0.962459  0
H  H12  1  0.36926143  0.37260451  0.58096906  1  0  0.289993  0.379703  0  0.962658  0
H  H13  1  0.36907289  0.70838006  0.58109302  1  0  0.289826  0.379363  0  0.963292  0
H  H14  1  0.00591233  0.35584685  0.53895948  1  0  0.286779  0.368598  0  0.982475  0
H  H15  1  0.00579095  0.68341489  0.53969352  1  0  0.286986  0.368633  0  0.982844  0
H  H16  1  0.46690244  0.31674998  0.46081947  1  0  0.287053  0.368805  0  0.982484  0
H  H17  1  0.46680600  0.64425801  0.46099083  1  0  0.287083  0.368689  0  0.982311  0
C  C18  1  0.45987665  0.36593921  0.23146809  1  0  0.100127  0.368555  0  4.101178  0
C  C19  1  0.22845181  0.63390947  0.76841717  1  0  0.099284  0.368605  0  4.097879  0
C  C20  1  0.22609158  0.34270980  0.18537037  1  0  -0.105733  -0.215316  0  3.96367  0
C  C21  1  0.04090802  0.65686338  0.81465586  1  0  -0.106181  -0.217271  0  3.966551  0
C  C22  1  0.11455045  0.27545711  0.05049731  1  0  -0.081102  -0.096641  0  4.008533  0
C  C23  1  0.06385447  0.72420304  0.94945365  1  0  -0.08071  -0.094816  0  4.00584  0
C  C24  1  0.23238352  0.22865625  0.95714843  1  0  0.063198  0.02265  0  3.995786  0
C  C25  1  0.27493546  0.77121151  0.04271434  1  0  0.064746  0.023233  0  3.997918  0
C  C26  1  0.46323239  0.25039863  0.99949263  1  0  -0.07683  -0.094955  0  4.013668  0
C  C27  1  0.46336313  0.74985355  0.00035842  1  0  -0.076418  -0.093861  0  4.01788  0
C  C28  1  0.57459695  0.31822145  0.13452119  1  0  -0.10381  -0.207777  0  3.940217  0
C  C29  1  0.43980291  0.68215362  0.86533176  1  0  -0.104933  -0.208872  0  3.941443  0
N  N30  1  0.11558650  0.15888591  0.81823452  1  0  0.034273  0.518044  0  4.223046  0
N  N31  1  0.29707948  0.84099803  0.18164822  1  0  0.032437  0.515138  0  4.225692  0
O  O32  1  0.56658098  0.42988975  0.36015306  1  0  -0.315301  -0.559612  0  2.279227  0
O  O33  1  0.20654900  0.56960817  0.63966148  1  0  -0.314492  -0.558756  0  2.277314  0
O  O34  1  0.90861294  0.14132230  0.78360832  1  0  -0.218117  -0.44246  0  1.96909  0
O  O35  1  0.12481250  0.85838840  0.21639803  1  0  -0.216518  -0.440714  0  1.968585  0
O  O36  1  0.21997232  0.11710067  0.73468306  1  0  -0.140272  -0.372105  0  1.92996  0
O  O37  1  0.48505192  0.88299172  0.26503789  1  0  -0.139621  -0.371166  0  1.930342  0
O  O38  1  0.90624538  0.23189942  0.47436172  1  0  -0.7093  -0.872506  0  1.992046  0
O  O39  1  0.90585250  0.74280289  0.47482857  1  0  -0.708911  -0.87068  0  1.993271  0
O  O40  1  0.43155022  0.25755721  0.52562100  1  0  -0.709876  -0.872087  0  1.992729  0
O  O41  1  0.43172606  0.76805591  0.52578162  1  0  -0.709122  -0.87136  0  1.993317  0
