# generated using pymatgen
data_TbH7(C3O4)2
_symmetry_space_group_name_H-M   'P 1'
_cell_length_a   9.38762944
_cell_length_b   12.15203665
_cell_length_c   12.15205166
_cell_angle_alpha   94.95783470
_cell_angle_beta   94.46049069
_cell_angle_gamma   94.45958464
_symmetry_Int_Tables_number   1
_chemical_formula_structural   TbH7(C3O4)2
_chemical_formula_sum   'Tb4 H28 C24 O32'
_cell_volume   1371.93261834
_cell_formula_units_Z   4
loop_
 _symmetry_equiv_pos_site_id
 _symmetry_equiv_pos_as_xyz
  1  'x, y, z'
loop_
 _atom_site_type_symbol
 _atom_site_label
 _atom_site_symmetry_multiplicity
 _atom_site_fract_x
 _atom_site_fract_y
 _atom_site_fract_z
 _atom_site_occupancy
 _atom_site_pbe_bader_charge
 _atom_site_pbe_bader_spin_density
 _atom_site_pbe_cm5_charge
 _atom_site_pbe_ddec_charge
 _atom_site_pbe_ddec_spin_density
 _atom_site_pbe_ddec_sum_bond_order
 _atom_site_pbe_magmom
Tb  Tb0  1  0.46197414  0.26294207  0.23277816  1  2.189104  0  1.502205  2.094724  0  2.143691  0
Tb  Tb1  1  0.03802298  0.76722718  0.73705570  1  2.189192  0  1.502198  2.094673  0  2.143781  0
Tb  Tb2  1  0.53802596  0.73705626  0.76722522  1  2.189147  0  1.50218  2.094663  0  2.143762  0
Tb  Tb3  1  0.96197536  0.23277449  0.26294376  1  2.189147  0  1.502199  2.094678  0  2.143788  0
H  H4  1  0.57401524  0.48663742  0.22577979  1  0.621191  0  0.324859  0.411533  0  0.881442  0
H  H5  1  0.70299842  0.42732275  0.17917305  1  0.642583  0  0.300821  0.407077  0  0.919201  0
H  H6  1  0.21684448  0.33680329  0.08320288  1  0.643192  0  0.303071  0.410847  0  0.919957  0
H  H7  1  0.36443784  0.40203127  0.05693789  1  0.612763  0  0.329968  0.418494  0  0.868786  0
H  H8  1  0.40307971  0.07120222  0.56868717  1  0.110255  0  0.116775  0.134065  0  0.978455  0
H  H9  1  0.59144279  0.42103348  0.50266097  1  0.102603  0  0.115107  0.135351  0  1.001842  0
H  H10  1  0.58620975  0.01951172  0.93235991  1  0.1066  0  0.117955  0.135891  0  1.001864  0
H  H11  1  0.92598163  0.77422113  0.51335792  1  0.621161  0  0.324854  0.41151  0  0.881482  0
H  H12  1  0.79699853  0.82082605  0.57267255  1  0.642557  0  0.300845  0.407078  0  0.9192  0
H  H13  1  0.28315827  0.91679698  0.66319649  1  0.643175  0  0.30308  0.410846  0  0.919978  0
H  H14  1  0.13556661  0.94306514  0.59796435  1  0.612659  0  0.32999  0.418539  0  0.868724  0
H  H15  1  0.09692558  0.43131672  0.92880203  1  0.110245  0  0.116738  0.133979  0  0.978604  0
H  H16  1  0.90856185  0.49734396  0.57896597  1  0.102545  0  0.115126  0.135336  0  1.001877  0
H  H17  1  0.91378338  0.06764374  0.98048755  1  0.106679  0  0.117973  0.135916  0  1.001891  0
H  H18  1  0.42598004  0.51335594  0.77422202  1  0.621153  0  0.324877  0.411554  0  0.881416  0
H  H19  1  0.29699723  0.57267394  0.82082662  1  0.642549  0  0.300825  0.407056  0  0.919235  0
H  H20  1  0.78315991  0.66319506  0.91679665  1  0.643161  0  0.303044  0.41078  0  0.920055  0
H  H21  1  0.63556733  0.59796458  0.94306310  1  0.612678  0  0.330004  0.418561  0  0.868701  0
H  H22  1  0.59692173  0.92879859  0.43131898  1  0.110305  0  0.116731  0.133995  0  0.978621  0
H  H23  1  0.40855712  0.57896319  0.49734390  1  0.102574  0  0.115109  0.135338  0  1.001882  0
H  H24  1  0.41378780  0.98049245  0.06763562  1  0.106738  0  0.117987  0.135964  0  1.001886  0
H  H25  1  0.07401857  0.22577804  0.48664144  1  0.621179  0  0.324835  0.411509  0  0.881496  0
H  H26  1  0.20300506  0.17917478  0.42732798  1  0.642539  0  0.300818  0.407071  0  0.919203  0
H  H27  1  0.71684406  0.08320219  0.33680545  1  0.643189  0  0.303071  0.410857  0  0.91995  0
H  H28  1  0.86443894  0.05693405  0.40203286  1  0.612672  0  0.329967  0.418513  0  0.868759  0
H  H29  1  0.90307257  0.56868328  0.07119810  1  0.110223  0  0.116729  0.13399  0  0.978622  0
H  H30  1  0.09143728  0.50265521  0.42103660  1  0.102521  0  0.115123  0.135346  0  1.001904  0
H  H31  1  0.08621516  0.93235963  0.01950386  1  0.106785  0  0.117982  0.136005  0  1.001814  0
C  C32  1  0.46497980  0.11695649  0.40664477  1  1.55867  0  0.20557  0.622812  0  4.197797  0
C  C33  1  0.46432418  0.04566088  0.49949115  1  0.003752  0  -0.072001  -0.161174  0  3.871585  0
C  C34  1  0.76787172  0.34701912  0.42193266  1  1.573774  0  0.220872  0.675808  0  4.164198  0
C  C35  1  0.70805752  0.42167779  0.50647060  1  -0.084055  0  -0.073032  -0.167577  0  3.853346  0
C  C36  1  0.67926034  0.14608849  0.06538555  1  1.58341  0  0.238966  0.703387  0  4.140698  0
C  C37  1  0.68731696  0.05932605  0.97250350  1  0.032461  0  -0.067391  -0.165989  0  3.835941  0
C  C38  1  0.03502543  0.59336086  0.88304732  1  1.558789  0  0.205409  0.622479  0  4.197959  0
C  C39  1  0.03567900  0.50051215  0.95434166  1  -0.107482  0  -0.071964  -0.161038  0  3.871628  0
C  C40  1  0.73213317  0.57806991  0.65297951  1  1.57376  0  0.220883  0.675826  0  4.164324  0
C  C41  1  0.79194608  0.49353178  0.57832384  1  6.9e-05  0  -0.073082  -0.167626  0  3.853516  0
C  C42  1  0.82073900  0.93461560  0.85390711  1  1.583432  0  0.238939  0.703336  0  4.140704  0
C  C43  1  0.81267547  0.02749771  0.94067330  1  -0.086609  0  -0.067467  -0.166106  0  3.835997  0
C  C44  1  0.53502386  0.88304514  0.59336160  1  1.558879  0  0.205413  0.622508  0  4.197837  0
C  C45  1  0.53567949  0.95434075  0.50051522  1  -0.107635  0  -0.071988  -0.161144  0  3.871675  0
C  C46  1  0.23212615  0.65297838  0.57807051  1  1.5734  0  0.220849  0.675796  0  4.164392  0
C  C47  1  0.29193938  0.57832053  0.49353341  1  -0.083814  0  -0.073019  -0.167551  0  3.853547  0
C  C48  1  0.32073908  0.85391320  0.93460986  1  1.583406  0  0.23892  0.703458  0  4.140673  0
C  C49  1  0.31268282  0.94067896  0.02749059  1  -0.086778  0  -0.06742  -0.16614  0  3.836024  0
C  C50  1  0.96497611  0.40664079  0.11695563  1  1.558811  0  0.205564  0.622815  0  4.197655  0
C  C51  1  0.96431809  0.49948785  0.04565922  1  0.003626  0  -0.071978  -0.161183  0  3.871659  0
C  C52  1  0.26786809  0.42192924  0.34702402  1  1.573767  0  0.220957  0.675961  0  4.164101  0
C  C53  1  0.20805403  0.50646655  0.42167955  1  7.5e-05  0  -0.073084  -0.167668  0  3.853618  0
C  C54  1  0.17925954  0.06538777  0.14608265  1  1.583405  0  0.239025  0.703483  0  4.140813  0
C  C55  1  0.18731888  0.97250647  0.05931957  1  0.032335  0  -0.067439  -0.166117  0  3.836015  0
O  O56  1  0.38695483  0.19910884  0.40972587  1  -1.184037  0  -0.358227  -0.631791  0  2.220026  0
O  O57  1  0.54162203  0.09762052  0.32601939  1  -1.18015  0  -0.340472  -0.603382  0  2.235033  0
O  O58  1  0.68308407  0.30306197  0.33989067  1  -1.203165  0  -0.393797  -0.723924  0  2.38172  0
O  O59  1  0.90087181  0.33071859  0.43041205  1  -1.196878  0  -0.392197  -0.673581  0  2.218682  0
O  O60  1  0.55634080  0.17886074  0.08155093  1  -1.182441  0  -0.405763  -0.663122  0  2.237996  0
O  O61  1  0.79275878  0.18180145  0.12539846  1  -1.204805  0  -0.431159  -0.69846  0  2.385952  0
O  O62  1  0.59705425  0.43124645  0.16825469  1  -1.244292  0  -0.611955  -0.820943  0  1.977389  0
O  O63  1  0.32345955  0.33532620  0.08515774  1  -1.227495  0  -0.630117  -0.839923  0  2.037085  0
O  O64  1  0.11304732  0.59027660  0.80089541  1  -1.183986  0  -0.358226  -0.631668  0  2.220002  0
O  O65  1  0.95837950  0.67398454  0.90238121  1  -1.180284  0  -0.340301  -0.603128  0  2.235094  0
O  O66  1  0.81691664  0.66011135  0.69693792  1  -1.203241  0  -0.393804  -0.723961  0  2.38189  0
O  O67  1  0.59913185  0.56958932  0.66928110  1  -1.19674  0  -0.392203  -0.673565  0  2.218577  0
O  O68  1  0.94365655  0.91846020  0.82112954  1  -1.182453  0  -0.405759  -0.663099  0  2.238107  0
O  O69  1  0.70724107  0.87459657  0.81820014  1  -1.204825  0  -0.43113  -0.698439  0  2.385919  0
O  O70  1  0.90293942  0.83174651  0.56874766  1  -1.244274  0  -0.611973  -0.820902  0  1.977457  0
O  O71  1  0.17654267  0.91484285  0.66467071  1  -1.227397  0  -0.630141  -0.839972  0  2.037084  0
O  O72  1  0.61304653  0.80089115  0.59027774  1  -1.18399  0  -0.358255  -0.631734  0  2.219946  0
O  O73  1  0.45838038  0.90237946  0.67398593  1  -1.180312  0  -0.340284  -0.603097  0  2.235021  0
O  O74  1  0.31691204  0.69693885  0.66011105  1  -1.203238  0  -0.393795  -0.723917  0  2.3817  0
O  O75  1  0.09912829  0.66927974  0.56959051  1  -1.196596  0  -0.392183  -0.673589  0  2.218869  0
O  O76  1  0.44366038  0.82113760  0.91845005  1  -1.182447  0  -0.405783  -0.66318  0  2.237915  0
O  O77  1  0.20724402  0.81820189  0.87459732  1  -1.20482  0  -0.43111  -0.69849  0  2.386067  0
O  O78  1  0.40294024  0.56874939  0.83174647  1  -1.244246  0  -0.611972  -0.820937  0  1.977427  0
O  O79  1  0.67654251  0.66467048  0.91484232  1  -1.227395  0  -0.630133  -0.839954  0  2.037121  0
O  O80  1  0.88695083  0.40972339  0.19910718  1  -1.184005  0  -0.358255  -0.631778  0  2.219887  0
O  O81  1  0.04162105  0.32601794  0.09762257  1  -1.180221  0  -0.340442  -0.603346  0  2.235098  0
O  O82  1  0.18308240  0.33988699  0.30306375  1  -1.203224  0  -0.393836  -0.723977  0  2.381812  0
O  O83  1  0.40087048  0.43040984  0.33072167  1  -1.196748  0  -0.392253  -0.673687  0  2.218542  0
O  O84  1  0.05633809  0.08154651  0.17885535  1  -1.182415  0  -0.405805  -0.663182  0  2.237894  0
O  O85  1  0.29275449  0.12539928  0.18180027  1  -1.204757  0  -0.431166  -0.698504  0  2.386117  0
O  O86  1  0.09706079  0.16825267  0.43125087  1  -1.244236  0  -0.611934  -0.820908  0  1.977476  0
O  O87  1  0.82345976  0.08515716  0.33532803  1  -1.227411  0  -0.630115  -0.839954  0  2.037026  0
