# generated using pymatgen
data_HgH10C10(BrN2)2
_symmetry_space_group_name_H-M   'P 1'
_cell_length_a   9.03538568
_cell_length_b   10.28559817
_cell_length_c   15.60320000
_cell_angle_alpha   90.00000000
_cell_angle_beta   90.00000000
_cell_angle_gamma   94.65637270
_symmetry_Int_Tables_number   1
_chemical_formula_structural   HgH10C10(BrN2)2
_chemical_formula_sum   'Hg4 H40 C40 Br8 N16'
_cell_volume   1445.28721191
_cell_formula_units_Z   4
loop_
 _symmetry_equiv_pos_site_id
 _symmetry_equiv_pos_as_xyz
  1  'x, y, z'
loop_
 _atom_site_type_symbol
 _atom_site_label
 _atom_site_symmetry_multiplicity
 _atom_site_fract_x
 _atom_site_fract_y
 _atom_site_fract_z
 _atom_site_occupancy
 _atom_site_hle17_bader_spin_density
 _atom_site_hle17_ddec_charge
 _atom_site_hle17_ddec_spin_density
 _atom_site_hle17_ddec_sum_bond_order
 _atom_site_hle17_magmom
 _atom_site_hse06_10hf_bader_spin_density
 _atom_site_hse06_10hf_ddec_charge
 _atom_site_hse06_10hf_ddec_spin_density
 _atom_site_hse06_10hf_ddec_sum_bond_order
 _atom_site_hse06_10hf_magmom
 _atom_site_hse06_bader_spin_density
 _atom_site_hse06_ddec_charge
 _atom_site_hse06_ddec_spin_density
 _atom_site_hse06_ddec_sum_bond_order
 _atom_site_hse06_magmom
 _atom_site_pbe_bader_charge
 _atom_site_pbe_bader_spin_density
 _atom_site_pbe_cm5_charge
 _atom_site_pbe_ddec_charge
 _atom_site_pbe_ddec_spin_density
 _atom_site_pbe_ddec_sum_bond_order
 _atom_site_pbe_magmom
Hg  Hg0  1  0.78847628  0.78390695  0.92317922  1  0  0.623045  0  2.129438  0  0  0.466822  0  2.628706  0  0  0.515196  0  2.596069  0  0.67142  0  0.441703  0.434697  0  2.649948  0
Hg  Hg1  1  0.71152323  0.21609691  0.42317794  1  0  0.623065  0  2.129439  0  0  0.466848  0  2.628721  0  0  0.515221  0  2.596087  0  0.671403  0  0.441709  0.434723  0  2.649963  0
Hg  Hg2  1  0.21151451  0.21609496  0.07681629  1  0  0.623073  0  2.129403  0  0  0.466855  0  2.628664  0  0  0.515225  0  2.596032  0  0.671462  0  0.44172  0.434732  0  2.649903  0
Hg  Hg3  1  0.28847411  0.78390402  0.57682334  1  0  0.623058  0  2.129479  0  0  0.466837  0  2.628772  0  0  0.51521  0  2.596138  0  0.671414  0  0.441717  0.434712  0  2.650015  0
H  H4  1  0.79552115  0.05379817  0.81836931  1  0  0.090913  0  0.977649  0  0  0.092824  0  1.051459  0  0  0.096414  0  1.049026  0  0.086733  0  0.102512  0.090254  0  1.053366  0
H  H5  1  0.70447096  0.94620959  0.31836803  1  0  0.090809  0  0.977687  0  0  0.09272  0  1.051523  0  0  0.096344  0  1.049057  0  0.086835  0  0.102517  0.09015  0  1.053431  0
H  H6  1  0.20448034  0.94619984  0.18163197  1  0  0.090904  0  0.977657  0  0  0.092794  0  1.051482  0  0  0.096403  0  1.049026  0  0.086693  0  0.102503  0.090225  0  1.053388  0
H  H7  1  0.29552712  0.05378744  0.68163197  1  0  0.090846  0  0.977647  0  0  0.092732  0  1.051492  0  0  0.09631  0  1.049071  0  0.086834  0  0.102499  0.090162  0  1.0534  0
H  H8  1  0.15430350  0.89938786  0.93659570  1  0  0.090729  0  0.952523  0  0  0.096009  0  1.020826  0  0  0.099255  0  1.019703  0  0.119535  0  0.105052  0.093742  0  1.021614  0
H  H9  1  0.34569008  0.10061697  0.43659762  1  0  0.090653  0  0.952601  0  0  0.095985  0  1.020845  0  0  0.099202  0  1.019755  0  0.119332  0  0.10503  0.093716  0  1.021638  0
H  H10  1  0.84570556  0.10060819  0.06339982  1  0  0.090733  0  0.952504  0  0  0.095975  0  1.020846  0  0  0.099237  0  1.019705  0  0.119595  0  0.105055  0.093708  0  1.021635  0
H  H11  1  0.65431177  0.89938494  0.56340238  1  0  0.090704  0  0.952553  0  0  0.096033  0  1.020793  0  0  0.099249  0  1.019702  0  0.119305  0  0.105052  0.093763  0  1.021587  0
H  H12  1  0.32789256  0.07551760  0.86906917  1  0  0.081415  0  0.952451  0  0  0.089084  0  1.01647  0  0  0.09186  0  1.014832  0  0.05545  0  0.103741  0.087097  0  1.017793  0
H  H13  1  0.17209982  0.92448626  0.36907109  1  0  0.081382  0  0.952504  0  0  0.089038  0  1.016536  0  0  0.091815  0  1.014899  0  0.055266  0  0.103752  0.087052  0  1.017857  0
H  H14  1  0.67211225  0.92448041  0.13092507  1  0  0.081399  0  0.952506  0  0  0.089098  0  1.016498  0  0  0.091876  0  1.014859  0  0.055435  0  0.103758  0.087108  0  1.017827  0
H  H15  1  0.82789889  0.07551760  0.63092955  1  0  0.08136  0  0.952476  0  0  0.089048  0  1.016476  0  0  0.091825  0  1.014839  0  0.055297  0  0.103757  0.08706  0  1.0178  0
H  H16  1  0.07614108  0.35372548  0.64903930  1  0  0.066488  0  0.895231  0  0  0.086597  0  0.94865  0  0  0.086472  0  0.948303  0  0.049888  0  0.104826  0.086267  0  0.949184  0
H  H17  1  0.42385113  0.64627643  0.14904122  1  0  0.066485  0  0.895339  0  0  0.086604  0  0.948747  0  0  0.086478  0  0.948404  0  0.049861  0  0.104813  0.086281  0  0.949284  0
H  H18  1  0.92385996  0.64626765  0.35096262  1  0  0.06649  0  0.895184  0  0  0.08662  0  0.9486  0  0  0.086493  0  0.948248  0  0.049871  0  0.10482  0.086297  0  0.949138  0
H  H19  1  0.57614040  0.35372158  0.85096262  1  0  0.06654  0  0.895185  0  0  0.086663  0  0.948609  0  0  0.086534  0  0.94826  0  0.04981  0  0.104841  0.08634  0  0.949148  0
H  H20  1  0.13175701  0.39600355  0.75526559  1  0  0.075869  0  0.946764  0  0  0.085782  0  1.020711  0  0  0.085824  0  1.021742  0  0.081354  0  0.107459  0.085765  0  1.019998  0
H  H21  1  0.36823989  0.60400128  0.25526879  1  0  0.075909  0  0.946842  0  0  0.085825  0  1.02076  0  0  0.085868  0  1.02179  0  0.081188  0  0.107484  0.085814  0  1.020052  0
H  H22  1  0.86824227  0.60399445  0.24473505  1  0  0.075859  0  0.946732  0  0  0.085772  0  1.020693  0  0  0.08581  0  1.021723  0  0.081317  0  0.107456  0.085763  0  1.019982  0
H  H23  1  0.63175845  0.39599868  0.74473634  1  0  0.075855  0  0.946755  0  0  0.085766  0  1.020732  0  0  0.085806  0  1.021759  0  0.081198  0  0.10748  0.085756  0  1.020024  0
H  H24  1  0.87989784  0.46667705  0.57756294  1  0  0.092244  0  0.940922  0  0  0.104143  0  1.001714  0  0  0.106732  0  0.999595  0  0.076678  0  0.102421  0.102167  0  1.003245  0
H  H25  1  0.62009649  0.53333071  0.07756294  1  0  0.092271  0  0.940925  0  0  0.104208  0  1.001659  0  0  0.106796  0  0.999543  0  0.076601  0  0.102442  0.102232  0  1.003189  0
H  H26  1  0.12009664  0.53331705  0.42243771  1  0  0.092287  0  0.940901  0  0  0.104186  0  1.001682  0  0  0.106773  0  0.999567  0  0.076733  0  0.10245  0.10221  0  1.003211  0
H  H27  1  0.37990259  0.46667705  0.92243963  1  0  0.092276  0  0.94085  0  0  0.104167  0  1.00165  0  0  0.106756  0  0.999529  0  0.076619  0  0.102452  0.102191  0  1.00318  0
H  H28  1  0.71357424  0.65032455  0.58231773  1  0  0.099872  0  0.979162  0  0  0.106696  0  1.044969  0  0  0.110366  0  1.042987  0  0.108353  0  0.092421  0.104103  0  1.046446  0
H  H29  1  0.78641760  0.34968028  0.08231709  1  0  0.099914  0  0.979137  0  0  0.106748  0  1.044929  0  0  0.11042  0  1.042947  0  0.108438  0  0.092464  0.104155  0  1.046407  0
H  H30  1  0.28642494  0.34967248  0.41768099  1  0  0.099946  0  0.979102  0  0  0.106759  0  1.044915  0  0  0.110428  0  1.042937  0  0.108303  0  0.092448  0.104165  0  1.046393  0
H  H31  1  0.21358249  0.65032650  0.91768419  1  0  0.099892  0  0.97917  0  0  0.106723  0  1.044969  0  0  0.110394  0  1.042986  0  0.108505  0  0.092429  0.10413  0  1.046447  0
H  H32  1  0.68303329  0.76655559  0.72196344  1  0  0.072064  0  0.952165  0  0  0.076  0  1.026778  0  0  0.077822  0  1.026093  0  0.061639  0  0.101559  0.074442  0  1.027614  0
H  H33  1  0.81696777  0.23345314  0.22196344  1  0  0.071936  0  0.952261  0  0  0.075891  0  1.026858  0  0  0.0777  0  1.026212  0  0.061778  0  0.101481  0.074335  0  1.027692  0
H  H34  1  0.31697188  0.23344631  0.27803335  1  0  0.072021  0  0.952183  0  0  0.075957  0  1.026799  0  0  0.077788  0  1.02611  0  0.061625  0  0.101555  0.074401  0  1.027633  0
H  H35  1  0.18303333  0.76655267  0.77803720  1  0  0.072045  0  0.952111  0  0  0.075966  0  1.026738  0  0  0.077791  0  1.026069  0  0.061742  0  0.101512  0.074409  0  1.027574  0
H  H36  1  0.96125589  0.52909920  0.84782032  1  0  0.079423  0  0.968277  0  0  0.083468  0  1.043365  0  0  0.086232  0  1.04104  0  0.113832  0  0.0986  0.081542  0  1.04495  0
H  H37  1  0.53874194  0.47091052  0.34782160  1  0  0.079476  0  0.968191  0  0  0.083547  0  1.043239  0  0  0.086316  0  1.0409  0  0.113764  0  0.098649  0.081598  0  1.044845  0
H  H38  1  0.03874725  0.47090466  0.15217776  1  0  0.079517  0  0.968153  0  0  0.083607  0  1.043183  0  0  0.086361  0  1.04088  0  0.113802  0  0.098653  0.081657  0  1.04479  0
H  H39  1  0.46125659  0.52909139  0.65217968  1  0  0.079503  0  0.968171  0  0  0.083561  0  1.043217  0  0  0.086315  0  1.040914  0  0.113827  0  0.09865  0.081616  0  1.04482  0
H  H40  1  0.83904971  0.24326034  0.73538249  1  0  0.265707  0  0.97528  0  0  0.24097  0  1.053854  0  0  0.248929  0  1.04847  0  0.488566  0  0.291896  0.235355  0  1.057583  0
H  H41  1  0.66094785  0.75674644  0.23538249  1  0  0.265571  0  0.975424  0  0  0.240896  0  1.053914  0  0  0.248853  0  1.048533  0  0.488654  0  0.29182  0.235283  0  1.057641  0
H  H42  1  0.16094975  0.75673961  0.26462136  1  0  0.265697  0  0.97533  0  0  0.24098  0  1.053865  0  0  0.248939  0  1.048482  0  0.488656  0  0.291873  0.235363  0  1.057596  0
H  H43  1  0.33904921  0.24325156  0.76461816  1  0  0.265686  0  0.975387  0  0  0.240964  0  1.053921  0  0  0.248916  0  1.04855  0  0.488596  0  0.291864  0.235353  0  1.057643  0
C  C44  1  0.91525158  0.05941580  0.82957663  1  0  -0.010105  0  3.647953  0  0  -0.040951  0  3.901714  0  0  -0.040207  0  3.915893  0  0.607939  0  0.042304  -0.042057  0  3.892583  0
C  C45  1  0.58474257  0.94059001  0.32957534  1  0  -0.009934  0  3.647784  0  0  -0.040799  0  3.901559  0  0  -0.040084  0  3.915723  0  0.60796  0  0.04233  -0.041902  0  3.892425  0
C  C46  1  0.08475203  0.94058123  0.17042466  1  0  -0.010059  0  3.647899  0  0  -0.040869  0  3.901598  0  0  -0.040138  0  3.915767  0  0.607885  0  0.042292  -0.041975  0  3.892468  0
C  C47  1  0.41525680  0.05940897  0.67042530  1  0  -0.010133  0  3.64791  0  0  -0.040943  0  3.901647  0  0  -0.04019  0  3.915834  0  0.608225  0  0.042274  -0.042047  0  3.892514  0
C  C48  1  0.11477677  0.97365396  0.89451779  1  0  -0.004422  0  3.749705  0  0  -0.038356  0  4.018862  0  0  -0.041228  0  4.041631  0  0.440013  0  0.006449  -0.036279  0  4.003146  0
C  C49  1  0.38521681  0.02635088  0.39451907  1  0  -0.004363  0  3.749462  0  0  -0.038328  0  4.018624  0  0  -0.041174  0  4.041409  0  0.440472  0  0.006442  -0.036257  0  4.002923  0
C  C50  1  0.88522879  0.02634015  0.10547836  1  0  -0.00432  0  3.749649  0  0  -0.038223  0  4.01881  0  0  -0.041104  0  4.041559  0  0.439902  0  0.006437  -0.036145  0  4.00309  0
C  C51  1  0.61478282  0.97365103  0.60548093  1  0  -0.004462  0  3.749508  0  0  -0.038419  0  4.018692  0  0  -0.041264  0  4.041478  0  0.440392  0  0.00641  -0.036347  0  4.002988  0
C  C52  1  0.20815050  0.07171431  0.85788300  1  0  0.078646  0  3.778063  0  0  0.054614  0  4.039523  0  0  0.058799  0  4.057849  0  0.496075  0  0.034102  0.051731  0  4.027009  0
C  C53  1  0.29184272  0.92828663  0.35788428  1  0  0.07876  0  3.778063  0  0  0.054714  0  4.039524  0  0  0.0589  0  4.057844  0  0.496742  0  0.034114  0.051843  0  4.026988  0
C  C54  1  0.79185422  0.92828272  0.14211380  1  0  0.078635  0  3.778092  0  0  0.054576  0  4.039548  0  0  0.058757  0  4.05788  0  0.496383  0  0.034118  0.051701  0  4.027022  0
C  C55  1  0.70815452  0.07171333  0.64211572  1  0  0.078789  0  3.778016  0  0  0.054724  0  4.039472  0  0  0.058911  0  4.057793  0  0.49635  0  0.034129  0.051861  0  4.026923  0
C  C56  1  0.01154561  0.16258943  0.79412556  1  0  0.376715  0  3.839514  0  0  0.347909  0  4.106307  0  0  0.365586  0  4.117997  0  1.023432  0  0.229484  0.336048  0  4.097863  0
C  C57  1  0.48844806  0.83741638  0.29412556  1  0  0.376809  0  3.839449  0  0  0.34803  0  4.106203  0  0  0.365706  0  4.117898  0  1.023452  0  0.229488  0.336166  0  4.09776  0
C  C58  1  0.98845698  0.83740858  0.20587315  1  0  0.376667  0  3.839603  0  0  0.347868  0  4.106371  0  0  0.365542  0  4.118067  0  1.023562  0  0.229437  0.336004  0  4.097926  0
C  C59  1  0.51154826  0.16258553  0.70587508  1  0  0.376717  0  3.839353  0  0  0.347957  0  4.106045  0  0  0.365635  0  4.117732  0  1.02351  0  0.229418  0.336092  0  4.097603  0
C  C60  1  0.03453291  0.37213813  0.71418555  1  0  0.033251  0  3.67561  0  0  -0.033103  0  3.932701  0  0  -0.026316  0  3.944069  0  0.325729  0  -0.05066  -0.037663  0  3.925161  0
C  C61  1  0.46545965  0.62786768  0.21418555  1  0  0.033208  0  3.6759  0  0  -0.033178  0  3.93303  0  0  -0.026389  0  3.94439  0  0.325702  0  -0.050721  -0.037767  0  3.925528  0
C  C62  1  0.96546636  0.62785988  0.28581509  1  0  0.033323  0  3.675549  0  0  -0.033114  0  3.932755  0  0  -0.026304  0  3.944086  0  0.325737  0  -0.050684  -0.037708  0  3.925258  0
C  C63  1  0.53453547  0.37213325  0.78581765  1  0  0.033284  0  3.675538  0  0  -0.03315  0  3.932756  0  0  -0.026338  0  3.944084  0  0.325873  0  -0.050714  -0.037743  0  3.925261  0
C  C64  1  0.93660295  0.48435713  0.71200395  1  0  0.017262  0  3.726321  0  0  0.043933  0  3.965098  0  0  0.038822  0  3.989592  0  -0.024681  0  -0.007187  0.046944  0  3.948931  0
C  C65  1  0.56339129  0.51564965  0.21200459  1  0  0.017476  0  3.726279  0  0  0.044152  0  3.965024  0  0  0.039039  0  3.989523  0  -0.024543  0  -0.00711  0.04717  0  3.948855  0
C  C66  1  0.06339725  0.51563892  0.28799477  1  0  0.017248  0  3.726349  0  0  0.043928  0  3.965145  0  0  0.038812  0  3.989636  0  -0.024649  0  -0.007159  0.046948  0  3.948975  0
C  C67  1  0.43660503  0.48435225  0.78799797  1  0  0.017333  0  3.726406  0  0  0.044012  0  3.96519  0  0  0.038893  0  3.989681  0  -0.024617  0  -0.0072  0.04703  0  3.949023  0
C  C68  1  0.86499736  0.51971827  0.63713982  1  0  -0.05957  0  3.714677  0  0  -0.086902  0  3.960734  0  0  -0.08468  0  3.980167  0  0.000351  0  -0.070693  -0.087459  0  3.946983  0
C  C69  1  0.63499706  0.48029047  0.13714110  1  0  -0.059712  0  3.714383  0  0  -0.087062  0  3.96043  0  0  -0.084841  0  3.979866  0  0.000805  0  -0.07073  -0.087614  0  3.946675  0
C  C70  1  0.13500275  0.48027681  0.36285890  1  0  -0.059637  0  3.714643  0  0  -0.086966  0  3.960706  0  0  -0.084745  0  3.980141  0  0.000446  0  -0.070753  -0.08752  0  3.946951  0
C  C71  1  0.36500303  0.51971632  0.86286211  1  0  -0.05954  0  3.714481  0  0  -0.086858  0  3.96053  0  0  -0.084636  0  3.979967  0  0.000702  0  -0.070626  -0.087413  0  3.946777  0
C  C72  1  0.77258670  0.62184524  0.63933296  1  0  -0.110858  0  3.762808  0  0  -0.120787  0  4.013498  0  0  -0.127664  0  4.035144  0  -0.031179  0  -0.088742  -0.116295  0  3.998292  0
C  C73  1  0.72740855  0.37816057  0.13933168  1  0  -0.110952  0  3.762701  0  0  -0.120923  0  4.013457  0  0  -0.127794  0  4.035088  0  -0.031393  0  -0.088816  -0.116432  0  3.998255  0
C  C74  1  0.22741562  0.37814984  0.36066384  1  0  -0.110921  0  3.762948  0  0  -0.120842  0  4.013643  0  0  -0.127721  0  4.035295  0  -0.031135  0  -0.088718  -0.116349  0  3.998435  0
C  C75  1  0.27259025  0.62184426  0.86066961  1  0  -0.110956  0  3.76279  0  0  -0.120911  0  4.013509  0  0  -0.127784  0  4.035149  0  -0.031547  0  -0.088808  -0.116421  0  3.998308  0
C  C76  1  0.75415635  0.68603198  0.71662544  1  0  0.117413  0  3.721459  0  0  0.085619  0  3.976314  0  0  0.091934  0  3.996511  0  0.497912  0  0.037125  0.081966  0  3.96247  0
C  C77  1  0.74583199  0.31397091  0.21662479  1  0  0.117577  0  3.721553  0  0  0.085792  0  3.976384  0  0  0.092102  0  3.99658  0  0.497758  0  0.037267  0.082137  0  3.96254  0
C  C78  1  0.24584403  0.31396603  0.28337200  1  0  0.117509  0  3.721597  0  0  0.085717  0  3.976445  0  0  0.092023  0  3.996655  0  0.497876  0  0.037131  0.082063  0  3.9626  0
C  C79  1  0.25416672  0.68603295  0.78337521  1  0  0.117431  0  3.721428  0  0  0.085659  0  3.976262  0  0  0.091961  0  3.996473  0  0.497718  0  0.037175  0.082006  0  3.96242  0
C  C80  1  0.90997957  0.55357721  0.78703022  1  0  0.074741  0  3.688236  0  0  0.039748  0  3.936275  0  0  0.046057  0  3.954914  0  0.455577  0  0.041558  0.034789  0  3.924966  0
C  C81  1  0.59001937  0.44643251  0.28702894  1  0  0.074594  0  3.68837  0  0  0.039597  0  3.936365  0  0  0.045916  0  3.954988  0  0.455411  0  0.04147  0.034659  0  3.925058  0
C  C82  1  0.09002330  0.44642373  0.21296785  1  0  0.074626  0  3.688195  0  0  0.039608  0  3.936218  0  0  0.04593  0  3.954829  0  0.455279  0  0.041489  0.034672  0  3.92491  0
C  C83  1  0.40998036  0.55357038  0.71297234  1  0  0.074578  0  3.688234  0  0  0.039577  0  3.936287  0  0  0.045904  0  3.954887  0  0.455695  0  0.041461  0.034636  0  3.924981  0
Br  Br84  1  0.55524006  0.89085656  0.88711482  1  0  -0.423125  0  1.003338  0  0  -0.367892  0  1.287821  0  0  -0.386024  0  1.270351  0  -0.43516  0  -0.245474  -0.355706  0  1.299819  0
Br  Br85  1  0.94475704  0.10914535  0.38712059  1  0  -0.423134  0  1.003371  0  0  -0.3679  0  1.287844  0  0  -0.386032  0  1.270383  0  -0.435122  0  -0.245478  -0.355714  0  1.299843  0
Br  Br86  1  0.44474961  0.10914535  0.11288454  1  0  -0.423121  0  1.003328  0  0  -0.367892  0  1.287806  0  0  -0.386028  0  1.270342  0  -0.435266  0  -0.245471  -0.355705  0  1.299804  0
Br  Br87  1  0.05524130  0.89085460  0.61288518  1  0  -0.423119  0  1.003407  0  0  -0.367879  0  1.287886  0  0  -0.386011  0  1.270417  0  -0.435135  0  -0.245466  -0.355694  0  1.299885  0
Br  Br88  1  0.95811394  0.66457689  0.01743617  1  0  -0.39969  0  1.103535  0  0  -0.342754  0  1.416279  0  0  -0.361154  0  1.397118  0  -0.422415  0  -0.215766  -0.330078  0  1.428761  0
Br  Br89  1  0.54187820  0.33541916  0.51743681  1  0  -0.399685  0  1.103482  0  0  -0.342753  0  1.416226  0  0  -0.361154  0  1.397064  0  -0.42246  0  -0.215758  -0.330074  0  1.428705  0
Br  Br90  1  0.04188902  0.33542501  0.98255358  1  0  -0.39969  0  1.103461  0  0  -0.342772  0  1.41623  0  0  -0.361172  0  1.39707  0  -0.42234  0  -0.215786  -0.330096  0  1.428711  0
Br  Br91  1  0.45811793  0.66458079  0.48256576  1  0  -0.399683  0  1.103498  0  0  -0.342757  0  1.416258  0  0  -0.361158  0  1.397093  0  -0.422388  0  -0.215768  -0.330079  0  1.428736  0
N  N92  1  0.96750317  0.96829092  0.87773662  1  0  -0.229325  0  3.322699  0  0  -0.157597  0  3.584442  0  0  -0.170235  0  3.606401  0  -1.202617  0  -0.305727  -0.148721  0  3.56923  0
N  N93  1  0.53249005  0.03171684  0.37773726  1  0  -0.22933  0  3.322454  0  0  -0.157638  0  3.584257  0  0  -0.170276  0  3.606218  0  -1.202973  0  -0.30571  -0.148762  0  3.569044  0
N  N94  1  0.03250053  0.03170709  0.12226082  1  0  -0.229464  0  3.322635  0  0  -0.157734  0  3.584338  0  0  -0.170373  0  3.606306  0  -1.202584  0  -0.305724  -0.148857  0  3.569129  0
N  N95  1  0.46750857  0.96828604  0.62226338  1  0  -0.229179  0  3.322556  0  0  -0.157518  0  3.584334  0  0  -0.170154  0  3.606281  0  -1.203141  0  -0.305657  -0.148643  0  3.569123  0
N  N96  1  0.15952079  0.16447303  0.80665633  1  0  -0.392613  0  3.11201  0  0  -0.345995  0  3.371706  0  0  -0.359815  0  3.384134  0  -1.21189  0  -0.322358  -0.335961  0  3.362674  0
N  N97  1  0.34047381  0.83553083  0.30665953  1  0  -0.39277  0  3.112194  0  0  -0.346115  0  3.371842  0  0  -0.35994  0  3.384276  0  -1.212438  0  -0.322406  -0.336079  0  3.362811  0
N  N98  1  0.84048274  0.83552303  0.19334111  1  0  -0.392547  0  3.111997  0  0  -0.345967  0  3.371719  0  0  -0.359793  0  3.384159  0  -1.212123  0  -0.322346  -0.335931  0  3.362685  0
N  N99  1  0.65952352  0.16447010  0.69334239  1  0  -0.392724  0  3.112066  0  0  -0.346086  0  3.37173  0  0  -0.359911  0  3.384162  0  -1.212102  0  -0.322397  -0.336053  0  3.362701  0
N  N100  1  0.95161667  0.25718395  0.74898098  1  0  -0.40927  0  3.341456  0  0  -0.34432  0  3.584984  0  0  -0.367553  0  3.598212  0  -1.236372  0  -0.42008  -0.328137  0  3.575283  0
N  N101  1  0.54837637  0.74282186  0.24897970  1  0  -0.409232  0  3.341636  0  0  -0.344315  0  3.585079  0  0  -0.367548  0  3.598307  0  -1.23637  0  -0.419952  -0.32813  0  3.5754  0
N  N102  1  0.04838168  0.74281600  0.25102223  1  0  -0.409328  0  3.341665  0  0  -0.344336  0  3.585101  0  0  -0.367576  0  3.598326  0  -1.236483  0  -0.420014  -0.328147  0  3.575426  0
N  N103  1  0.45161977  0.25717810  0.75102159  1  0  -0.409334  0  3.341594  0  0  -0.344355  0  3.585072  0  0  -0.367593  0  3.598299  0  -1.236414  0  -0.419972  -0.328169  0  3.575389  0
N  N104  1  0.82155224  0.65207647  0.78912274  1  0  -0.296809  0  3.257322  0  0  -0.221557  0  3.521276  0  0  -0.241415  0  3.542793  0  -1.196199  0  -0.316535  -0.208551  0  3.506827  0
N  N105  1  0.67844873  0.34793129  0.28912274  1  0  -0.296796  0  3.257397  0  0  -0.221569  0  3.521362  0  0  -0.241429  0  3.542881  0  -1.196134  0  -0.316562  -0.208568  0  3.506924  0
N  N106  1  0.17845284  0.34792447  0.21087469  1  0  -0.296826  0  3.257215  0  0  -0.221591  0  3.521192  0  0  -0.24145  0  3.542711  0  -1.19596  0  -0.316553  -0.208591  0  3.506755  0
N  N107  1  0.32155228  0.65207354  0.71087854  1  0  -0.296787  0  3.257308  0  0  -0.221527  0  3.521238  0  0  -0.241388  0  3.542764  0  -1.196249  0  -0.316516  -0.208519  0  3.50678  0
