# generated using pymatgen
data_CoP2H12(C3O)4
_symmetry_space_group_name_H-M   'P 1'
_cell_length_a   8.13417088
_cell_length_b   9.47082279
_cell_length_c   9.46989417
_cell_angle_alpha   68.82807735
_cell_angle_beta   75.36239242
_cell_angle_gamma   75.37914304
_symmetry_Int_Tables_number   1
_chemical_formula_structural   CoP2H12(C3O)4
_chemical_formula_sum   'Co2 P4 H24 C24 O8'
_cell_volume   647.62743884
_cell_formula_units_Z   2
loop_
 _symmetry_equiv_pos_site_id
 _symmetry_equiv_pos_as_xyz
  1  'x, y, z'
loop_
 _atom_site_type_symbol
 _atom_site_label
 _atom_site_symmetry_multiplicity
 _atom_site_fract_x
 _atom_site_fract_y
 _atom_site_fract_z
 _atom_site_occupancy
 _atom_site_pbe_cm5_charge
 _atom_site_pbe_ddec_charge
 _atom_site_pbe_ddec_spin_density
 _atom_site_pbe_ddec_sum_bond_order
 _atom_site_pbe_magmom
Co  Co0  1  0.24939711  0.55928307  0.44064112  1  0.648919  1.011409  1.149604  2.465578  0.869
Co  Co1  1  0.74976706  0.44054993  0.55978032  1  0.649652  1.012995  -1.185146  2.45758  -0.904
P  P2  1  0.01821266  0.52483046  0.23799211  1  0.260949  1.000393  -0.001193  5.126944  0.0
P  P3  1  0.48164830  0.76271692  0.47414197  1  0.259353  1.002576  -0.002713  5.14155  -0.008
P  P4  1  0.98116094  0.47412217  0.76280769  1  0.259717  1.00456  -0.001718  5.137093  0.0
P  P5  1  0.51878562  0.23844794  0.52473651  1  0.26011  1.002196  -0.004488  5.138026  -0.007
H  H6  1  0.91259974  0.63582264  0.13708998  1  0.090485  -0.083767  -0.006009  1.022006  -0.006
H  H7  1  0.58655631  0.86466192  0.36354870  1  0.088497  -0.08662  0.004064  1.023619  0.004
H  H8  1  0.08737988  0.36410946  0.86388571  1  0.088279  -0.086908  -0.004145  1.023691  -0.004
H  H9  1  0.41233724  0.13799436  0.63552094  1  0.089802  -0.084369  -0.000751  1.02096  -0.001
H  H10  1  0.30562624  0.57392810  0.98345113  1  0.101814  0.09825  -6.5e-05  1.039997  0.0
H  H11  1  0.19399864  0.01669923  0.42596503  1  0.101619  0.097871  8.7e-05  1.04016  0.0
H  H12  1  0.69384271  0.42591122  0.01703743  1  0.101913  0.098388  9.6e-05  1.040006  0.0
H  H13  1  0.80557493  0.98349666  0.57393429  1  0.101705  0.09824  -2.8e-05  1.039424  0.0
H  H14  1  0.49569093  0.40518146  0.83562962  1  0.103645  0.105416  0.001803  1.032636  0.0
H  H15  1  0.00423526  0.16432264  0.59500089  1  0.103521  0.106179  -0.000437  1.032349  0.0
H  H16  1  0.50422692  0.59495645  0.16472872  1  0.103488  0.106532  0.000655  1.031958  0.0
H  H17  1  0.99566079  0.83580250  0.40517461  1  0.103365  0.105837  0.000844  1.031037  0.0
H  H18  1  0.45818734  0.13508127  0.90596187  1  0.10123  0.099172  0.000103  1.023719  0.0
H  H19  1  0.04207705  0.09397184  0.86498289  1  0.100821  0.098705  -0.000106  1.025078  0.0
H  H20  1  0.54207332  0.86499228  0.09406813  1  0.100867  0.098708  0.000148  1.025358  0.0
H  H21  1  0.95821210  0.90610093  0.13493437  1  0.10093  0.098456  -0.00019  1.024738  0.0
H  H22  1  0.22651767  0.03282957  0.12449891  1  0.100701  0.100704  5.7e-05  1.018266  0.0
H  H23  1  0.27383318  0.87546412  0.96693129  1  0.100497  0.100314  -4.4e-05  1.019548  0.0
H  H24  1  0.77380964  0.96684881  0.87540400  1  0.100639  0.100668  1.2e-05  1.018816  0.0
H  H25  1  0.72655711  0.12445566  0.03277438  1  0.100678  0.100916  2.1e-05  1.018291  0.0
H  H26  1  0.02777100  0.20610171  0.26402411  1  0.102395  0.106732  0.000289  1.029848  0.0
H  H27  1  0.47226490  0.73604980  0.79333483  1  0.102391  0.107513  0.000159  1.028758  0.0
H  H28  1  0.97219278  0.79319891  0.73604109  1  0.102344  0.107323  0.000153  1.029149  0.0
H  H29  1  0.52790149  0.26400729  0.20613164  1  0.102219  0.107005  0.000164  1.029736  0.0
C  C30  1  0.15582097  0.39976632  0.13386422  1  -0.028949  -0.158331  0.006865  4.003894  0.008
C  C31  1  0.34399088  0.86630017  0.59988255  1  -0.02901  -0.157224  -7.9e-05  3.999008  0.0
C  C32  1  0.84387492  0.59977805  0.86652762  1  -0.029522  -0.158958  0.004523  4.002293  0.005
C  C33  1  0.65580795  0.13387027  0.39983822  1  -0.029119  -0.157884  0.004525  4.00141  0.005
C  C34  1  0.28758511  0.45588425  0.01311621  1  -0.079512  -0.072322  0.000513  3.965155  0.001
C  C35  1  0.21208713  0.98700873  0.54404384  1  -0.080386  -0.073819  -0.00039  3.966166  -0.001
C  C36  1  0.71198040  0.54397720  0.98728917  1  -0.080454  -0.074038  0.000296  3.967054  0.001
C  C37  1  0.78753479  0.01314475  0.45587019  1  -0.079646  -0.071996  0.000523  3.964753  0.0
C  C38  1  0.39522020  0.36079724  0.93099853  1  -0.085429  -0.076333  0.000487  3.961721  0.001
C  C39  1  0.10460757  0.06898079  0.63930218  1  -0.086346  -0.077865  -0.00034  3.964267  -0.001
C  C40  1  0.60454134  0.63927939  0.06924621  1  -0.086085  -0.076971  -9e-05  3.964389  0.0
C  C41  1  0.89521243  0.93108149  0.36073075  1  -0.085811  -0.07736  0.000765  3.963245  0.001
C  C42  1  0.37377488  0.20837679  0.97113204  1  -0.085226  -0.074386  -0.000377  3.980794  0.0
C  C43  1  0.12630625  0.02877149  0.79165889  1  -0.085746  -0.074822  -0.000123  3.982991  0.0
C  C44  1  0.62628306  0.79160798  0.02894906  1  -0.086131  -0.075741  -0.000497  3.983776  0.0
C  C45  1  0.87378626  0.97117696  0.20830901  1  -0.08567  -0.074905  -4.6e-05  3.983339  0.0
C  C46  1  0.24335555  0.15181569  0.09212565  1  -0.0929  -0.096577  -1.9e-05  3.999315  0.0
C  C47  1  0.25674293  0.90781315  0.84803559  1  -0.093403  -0.097464  5.2e-05  4.001734  0.0
C  C48  1  0.75676145  0.84791773  0.90788820  1  -0.09275  -0.096306  -0.000178  4.000048  0.0
C  C49  1  0.74337469  0.09210628  0.15178274  1  -0.093152  -0.097069  0.000182  3.999937  0.0
C  C50  1  0.13259903  0.24786758  0.17205365  1  -0.079893  -0.067835  -7e-06  3.966534  0.0
C  C51  1  0.36735620  0.82799851  0.75180125  1  -0.079936  -0.068308  0.000299  3.965669  0.0
C  C52  1  0.86732607  0.75167280  0.82809630  1  -0.080096  -0.068166  -9.2e-05  3.966316  0.0
C  C53  1  0.63264858  0.17201247  0.24790123  1  -0.079885  -0.067897  0.000196  3.965653  0.0
O  O54  1  0.12553922  0.61764428  0.27104079  1  -0.36164  -0.677153  -0.024679  2.375072  -0.042
O  O55  1  0.37480546  0.72895764  0.38184622  1  -0.365358  -0.686318  0.038811  2.385384  0.052
O  O56  1  0.87389280  0.38095028  0.73062502  1  -0.364354  -0.685582  -0.024977  2.37915  -0.034
O  O57  1  0.62656289  0.27040308  0.61778014  1  -0.364405  -0.68384  -0.017879  2.384333  -0.021
O  O58  1  0.90517305  0.42565832  0.37368866  1  -0.363154  -0.697395  0.015532  2.452421  0.029
O  O59  1  0.59628933  0.62797956  0.57242080  1  -0.365939  -0.703075  -0.00993  2.460705  -0.008
O  O60  1  0.09416676  0.57299870  0.62687529  1  -0.366234  -0.70466  0.020204  2.462899  0.026
O  O61  1  0.40690230  0.37446524  0.42512615  1  -0.366406  -0.704797  0.034703  2.466459  0.042
