# generated using pymatgen
data_ZnH16C16(NO2)2
_symmetry_space_group_name_H-M   'P 1'
_cell_length_a   4.29019401
_cell_length_b   10.54880827
_cell_length_c   15.44106754
_cell_angle_alpha   96.28815465
_cell_angle_beta   90.00000792
_cell_angle_gamma   90.00001152
_symmetry_Int_Tables_number   1
_chemical_formula_structural   ZnH16C16(NO2)2
_chemical_formula_sum   'Zn2 H32 C32 N4 O8'
_cell_volume   694.60336234
_cell_formula_units_Z   2
loop_
 _symmetry_equiv_pos_site_id
 _symmetry_equiv_pos_as_xyz
  1  'x, y, z'
loop_
 _atom_site_type_symbol
 _atom_site_label
 _atom_site_symmetry_multiplicity
 _atom_site_fract_x
 _atom_site_fract_y
 _atom_site_fract_z
 _atom_site_occupancy
 _atom_site_hle17_bader_spin_density
 _atom_site_hle17_ddec_charge
 _atom_site_hle17_ddec_spin_density
 _atom_site_hle17_ddec_sum_bond_order
 _atom_site_hle17_magmom
 _atom_site_hse06_10hf_bader_spin_density
 _atom_site_hse06_10hf_ddec_charge
 _atom_site_hse06_10hf_ddec_spin_density
 _atom_site_hse06_10hf_ddec_sum_bond_order
 _atom_site_hse06_10hf_magmom
 _atom_site_hse06_bader_spin_density
 _atom_site_hse06_ddec_charge
 _atom_site_hse06_ddec_spin_density
 _atom_site_hse06_ddec_sum_bond_order
 _atom_site_hse06_magmom
 _atom_site_pbe_bader_spin_density
 _atom_site_pbe_cm5_charge
 _atom_site_pbe_ddec_charge
 _atom_site_pbe_ddec_spin_density
 _atom_site_pbe_ddec_sum_bond_order
 _atom_site_pbe_magmom
Zn  Zn0  1  0.50000095  0.49999990  0.49999983  1  0  1.100508  0  1.727061  0  0  0.935549  0  2.161608  0  0  0.980637  0  2.10926  0  0  0.681627  0.904024  0  2.197348  0
Zn  Zn1  1  0.00000012  0.50000000  0.00000034  1  0  1.100519  0  1.727068  0  0  0.935543  0  2.16163  0  0  0.980629  0  2.109282  0  0  0.681628  0.904022  0  2.197371  0
H  H2  1  0.25848744  0.43596377  0.76460526  1  0  0.115053  0  0.957955  0  0  0.123621  0  1.023203  0  0  0.126338  0  1.022165  0  0  0.108  0.121611  0  1.024148  0
H  H3  1  0.75848817  0.56403687  0.73539524  1  0  0.115052  0  0.957951  0  0  0.123623  0  1.023199  0  0  0.12634  0  1.022161  0  0  0.108003  0.121613  0  1.024144  0
H  H4  1  0.74151212  0.56403604  0.23539504  1  0  0.115065  0  0.957934  0  0  0.123636  0  1.023182  0  0  0.126353  0  1.022144  0  0  0.108007  0.121628  0  1.024127  0
H  H5  1  0.24151140  0.43596388  0.26460514  1  0  0.115061  0  0.957935  0  0  0.123626  0  1.023188  0  0  0.126343  0  1.02215  0  0  0.107998  0.121616  0  1.024135  0
H  H6  1  0.57726081  0.05558767  0.75259692  1  0  0.08422  0  0.991805  0  0  0.096011  0  1.055111  0  0  0.097917  0  1.055853  0  0  0.094528  0.094616  0  1.054731  0
H  H7  1  0.07726033  0.94441200  0.74740285  1  0  0.084237  0  0.991832  0  0  0.096021  0  1.055138  0  0  0.097927  0  1.055881  0  0  0.094536  0.094626  0  1.054757  0
H  H8  1  0.42274108  0.94441213  0.24740274  1  0  0.084242  0  0.991811  0  0  0.096018  0  1.055126  0  0  0.097933  0  1.05586  0  0  0.094546  0.09462  0  1.05475  0
H  H9  1  0.92273923  0.05558780  0.25259745  1  0  0.084229  0  0.991819  0  0  0.096014  0  1.055127  0  0  0.09792  0  1.055871  0  0  0.094537  0.094619  0  1.054748  0
H  H10  1  0.62878528  0.17457053  0.62244483  1  0  0.089878  0  0.967943  0  0  0.098415  0  1.035067  0  0  0.101543  0  1.033343  0  0  0.096582  0.096123  0  1.036384  0
H  H11  1  0.12878481  0.82542914  0.87755495  1  0  0.089857  0  0.967908  0  0  0.098394  0  1.035037  0  0  0.101522  0  1.033312  0  0  0.096572  0.096101  0  1.036352  0
H  H12  1  0.37121661  0.82543023  0.37755555  1  0  0.089863  0  0.967928  0  0  0.098396  0  1.035056  0  0  0.101525  0  1.033331  0  0  0.096574  0.096104  0  1.036372  0
H  H13  1  0.87121475  0.17456971  0.12244464  1  0  0.089883  0  0.96793  0  0  0.098418  0  1.035057  0  0  0.101546  0  1.033333  0  0  0.096581  0.096127  0  1.036372  0
H  H14  1  0.75601737  0.16419463  0.96831489  1  0  0.117402  0  0.979711  0  0  0.134471  0  1.047891  0  0  0.137083  0  1.046125  0  0  0.090111  0.132523  0  1.049218  0
H  H15  1  0.25601673  0.83580601  0.53168496  1  0  0.117395  0  0.979691  0  0  0.134462  0  1.047877  0  0  0.137077  0  1.046108  0  0  0.090113  0.132515  0  1.049203  0
H  H16  1  0.24398219  0.83580613  0.03168549  1  0  0.117419  0  0.979707  0  0  0.134485  0  1.047882  0  0  0.137101  0  1.046113  0  0  0.090123  0.132539  0  1.049206  0
H  H17  1  0.74398283  0.16419475  0.46831476  1  0  0.117411  0  0.979721  0  0  0.134482  0  1.047888  0  0  0.137095  0  1.046122  0  0  0.090113  0.132535  0  1.049214  0
H  H18  1  0.07695947  0.06918157  0.92946379  1  0  0.100833  0  0.94604  0  0  0.125227  0  1.005094  0  0  0.126045  0  1.005472  0  0  0.090755  0.124599  0  1.004858  0
H  H19  1  0.57696029  0.93081810  0.57053599  1  0  0.10083  0  0.946037  0  0  0.125226  0  1.005091  0  0  0.126043  0  1.005469  0  0  0.090755  0.124598  0  1.004855  0
H  H20  1  0.92303776  0.93081919  0.07053659  1  0  0.100845  0  0.945993  0  0  0.125216  0  1.00508  0  0  0.126034  0  1.005458  0  0  0.090745  0.124589  0  1.004842  0
H  H21  1  0.42303927  0.06918170  0.42946367  1  0  0.100844  0  0.946039  0  0  0.125236  0  1.005089  0  0  0.126054  0  1.005466  0  0  0.090753  0.124608  0  1.004852  0
H  H22  1  0.69582424  0.02249764  0.89505759  1  0  0.107457  0  0.95036  0  0  0.129728  0  1.011146  0  0  0.130834  0  1.011555  0  0  0.090794  0.128874  0  1.010925  0
H  H23  1  0.19582603  0.97750204  0.60494284  1  0  0.107463  0  0.950353  0  0  0.129736  0  1.011138  0  0  0.130843  0  1.011545  0  0  0.090802  0.128882  0  1.010918  0
H  H24  1  0.30417532  0.97750216  0.10494272  1  0  0.107445  0  0.950378  0  0  0.129718  0  1.011155  0  0  0.130825  0  1.011563  0  0  0.09079  0.128864  0  1.010935  0
H  H25  1  0.80417586  0.02249872  0.39505754  1  0  0.10747  0  0.950368  0  0  0.12974  0  1.011149  0  0  0.130846  0  1.011557  0  0  0.090802  0.128886  0  1.010928  0
H  H26  1  0.42868023  0.37871798  0.90555005  1  0  0.312055  0  0.919858  0  0  0.295533  0  0.985105  0  0  0.301652  0  0.981094  0  0  0.296794  0.291186  0  0.987948  0
H  H27  1  0.92868091  0.62128172  0.59445038  1  0  0.312046  0  0.919867  0  0  0.295526  0  0.985113  0  0  0.301646  0  0.981101  0  0  0.296788  0.29118  0  0.987955  0
H  H28  1  0.57131933  0.62128182  0.09445025  1  0  0.312048  0  0.919867  0  0  0.295524  0  0.985116  0  0  0.301644  0  0.981104  0  0  0.296787  0.291178  0  0.987959  0
H  H29  1  0.07131865  0.37871808  0.40554992  1  0  0.312031  0  0.919889  0  0  0.295511  0  0.985131  0  0  0.30163  0  0.98112  0  0  0.296788  0.291164  0  0.987972  0
H  H30  1  0.24011299  0.27373993  0.95820889  1  0  0.303902  0  0.888553  0  0  0.297805  0  0.936899  0  0  0.30238  0  0.93454  0  0  0.305309  0.294521  0  0.938693  0
H  H31  1  0.74011137  0.72626071  0.54179096  1  0  0.303879  0  0.888588  0  0  0.29778  0  0.936942  0  0  0.302357  0  0.934582  0  0  0.305304  0.294495  0  0.938738  0
H  H32  1  0.75988657  0.72626082  0.04179084  1  0  0.303899  0  0.888558  0  0  0.297798  0  0.936917  0  0  0.302375  0  0.934554  0  0  0.305309  0.294512  0  0.938712  0
H  H33  1  0.25988586  0.27374005  0.45820941  1  0  0.303928  0  0.888534  0  0  0.297804  0  0.936911  0  0  0.302387  0  0.934539  0  0  0.305288  0.294505  0  0.938726  0
C  C34  1  0.95140011  0.31158557  0.68537445  1  0  -0.066604  0  3.788549  0  0  -0.046499  0  4.029985  0  0  -0.05408  0  4.052484  0  0  -0.026091  -0.041614  0  4.014865  0
C  C35  1  0.45139954  0.68841413  0.81462534  1  0  -0.066606  0  3.788536  0  0  -0.046484  0  4.029961  0  0  -0.054064  0  4.05246  0  0  -0.026075  -0.041598  0  4.01484  0
C  C36  1  0.04860178  0.68841423  0.31462586  1  0  -0.066446  0  3.7885  0  0  -0.046395  0  4.030025  0  0  -0.053975  0  4.052523  0  0  -0.026018  -0.041509  0  4.014908  0
C  C37  1  0.54859769  0.31158472  0.18537360  1  0  -0.066655  0  3.788662  0  0  -0.046525  0  4.030089  0  0  -0.054106  0  4.052588  0  0  -0.026073  -0.041637  0  4.014971  0
C  C38  1  0.10604676  0.35325169  0.76281072  1  0  -0.135483  0  3.678965  0  0  -0.167114  0  3.9327  0  0  -0.167645  0  3.95102  0  0  -0.084811  -0.166598  0  3.920545  0
C  C39  1  0.60604520  0.64674894  0.73718913  1  0  -0.135467  0  3.679019  0  0  -0.167103  0  3.932755  0  0  -0.167634  0  3.951077  0  0  -0.084813  -0.166587  0  3.920599  0
C  C40  1  0.89395513  0.64674907  0.23718966  1  0  -0.135579  0  3.678999  0  0  -0.1672  0  3.932774  0  0  -0.167732  0  3.951095  0  0  -0.084856  -0.166685  0  3.920622  0
C  C41  1  0.39395203  0.35325087  0.26281053  1  0  -0.135429  0  3.678942  0  0  -0.167065  0  3.932662  0  0  -0.167595  0  3.950982  0  0  -0.084784  -0.16655  0  3.920512  0
C  C42  1  0.06538194  0.29066885  0.83711081  1  0  0.229397  0  3.742875  0  0  0.224993  0  3.986138  0  0  0.229845  0  4.007874  0  0  0.085149  0.221463  0  3.971534  0
C  C43  1  0.56538037  0.70933178  0.66288968  1  0  0.22938  0  3.74286  0  0  0.224973  0  3.986133  0  0  0.229826  0  4.007868  0  0  0.085152  0.221443  0  3.971527  0
C  C44  1  0.93461995  0.70933096  0.16288950  1  0  0.229387  0  3.742799  0  0  0.22498  0  3.986071  0  0  0.229831  0  4.007807  0  0  0.085143  0.221452  0  3.971468  0
C  C45  1  0.43461920  0.29066802  0.33710998  1  0  0.229384  0  3.74286  0  0  0.224989  0  3.986109  0  0  0.22984  0  4.007846  0  0  0.085153  0.221461  0  3.971505  0
C  C46  1  0.87822161  0.18036051  0.83369859  1  0  0.053538  0  3.710383  0  0  0.076177  0  3.946896  0  0  0.075754  0  3.970236  0  0  -0.014179  0.076448  0  3.931112  0
C  C47  1  0.37822103  0.81963918  0.66630120  1  0  0.053523  0  3.710399  0  0  0.076165  0  3.946912  0  0  0.075742  0  3.970252  0  0  -0.014181  0.076434  0  3.931129  0
C  C48  1  0.12178028  0.81964024  0.16630114  1  0  0.053525  0  3.710356  0  0  0.076165  0  3.946863  0  0  0.075742  0  3.970208  0  0  -0.014174  0.076437  0  3.931082  0
C  C49  1  0.62177854  0.18036062  0.33369846  1  0  0.053542  0  3.710363  0  0  0.076166  0  3.946881  0  0  0.075745  0  3.97022  0  0  -0.014164  0.076437  0  3.931103  0
C  C50  1  0.72530775  0.13988793  0.75523281  1  0  -0.1309  0  3.791367  0  0  -0.149002  0  4.040935  0  0  -0.15231  0  4.063257  0  0  -0.100154  -0.146809  0  4.025941  0
C  C51  1  0.22530722  0.86011271  0.74476704  1  0  -0.13089  0  3.791355  0  0  -0.148983  0  4.040922  0  0  -0.152292  0  4.063242  0  0  -0.100148  -0.146791  0  4.025929  0
C  C52  1  0.27469414  0.86011283  0.24476756  1  0  -0.130928  0  3.791362  0  0  -0.149018  0  4.040929  0  0  -0.152333  0  4.063248  0  0  -0.100188  -0.146822  0  4.025939  0
C  C53  1  0.77469234  0.13988710  0.25523262  1  0  -0.130881  0  3.791327  0  0  -0.148977  0  4.040899  0  0  -0.152286  0  4.063222  0  0  -0.100173  -0.146783  0  4.02591  0
C  C54  1  0.75594972  0.20478174  0.68210629  1  0  -0.084261  0  3.787636  0  0  -0.114703  0  4.04821  0  0  -0.115121  0  4.069329  0  0  -0.098673  -0.11416  0  4.033872  0
C  C55  1  0.25594920  0.79521794  0.81789350  1  0  -0.084236  0  3.787568  0  0  -0.114685  0  4.048143  0  0  -0.115104  0  4.069263  0  0  -0.098675  -0.114142  0  4.033802  0
C  C56  1  0.24404984  0.79521806  0.31789402  1  0  -0.084243  0  3.787551  0  0  -0.114657  0  4.048128  0  0  -0.115076  0  4.069251  0  0  -0.098639  -0.114113  0  4.03379  0
C  C57  1  0.74404803  0.20478186  0.18210616  1  0  -0.084246  0  3.787622  0  0  -0.114692  0  4.048181  0  0  -0.11511  0  4.069302  0  0  -0.09865  -0.114147  0  4.033842  0
C  C58  1  0.98722833  0.38302551  0.60756329  1  0  0.658504  0  3.87031  0  0  0.606141  0  4.161486  0  0  0.641264  0  4.151641  0  0  0.212839  0.582309  0  4.167529  0
C  C59  1  0.48722776  0.61697419  0.89243650  1  0  0.658494  0  3.870327  0  0  0.606097  0  4.161535  0  0  0.641221  0  4.15169  0  0  0.212828  0.582265  0  4.167576  0
C  C60  1  0.01277123  0.61697715  0.39243723  1  0  0.658484  0  3.870312  0  0  0.606091  0  4.161557  0  0  0.641214  0  4.15171  0  0  0.212781  0.582257  0  4.167604  0
C  C61  1  0.51276947  0.38302275  0.10756294  1  0  0.658543  0  3.870129  0  0  0.606125  0  4.161375  0  0  0.64125  0  4.151527  0  0  0.212791  0.582292  0  4.167422  0
C  C62  1  0.84831154  0.10544738  0.91068796  1  0  -0.334041  0  3.725922  0  0  -0.414935  0  3.962224  0  0  -0.416754  0  3.970609  0  0  -0.244305  -0.413305  0  3.956427  0
C  C63  1  0.34831096  0.89455327  0.58931254  1  0  -0.334034  0  3.725911  0  0  -0.414929  0  3.962226  0  0  -0.416751  0  3.97061  0  0  -0.244316  -0.413298  0  3.95643  0
C  C64  1  0.15168802  0.89455338  0.08931241  1  0  -0.334057  0  3.725908  0  0  -0.41493  0  3.962222  0  0  -0.416751  0  3.970601  0  0  -0.244307  -0.413302  0  3.956424  0
C  C65  1  0.65168861  0.10544749  0.41068784  1  0  -0.334089  0  3.725969  0  0  -0.414968  0  3.962256  0  0  -0.416786  0  3.97064  0  0  -0.244315  -0.413335  0  3.956458  0
N  N66  1  0.21295339  0.34073982  0.91604587  1  0  -0.650502  0  3.156016  0  0  -0.597151  0  3.390287  0  0  -0.616059  0  3.388755  0  0  -0.599396  -0.583822  0  3.391143  0
N  N67  1  0.71295408  0.65926081  0.58395398  1  0  -0.650477  0  3.156008  0  0  -0.597128  0  3.390282  0  0  -0.61604  0  3.388752  0  0  -0.599384  -0.5838  0  3.391137  0
N  N68  1  0.78704618  0.65925998  0.08395444  1  0  -0.650484  0  3.155996  0  0  -0.597138  0  3.390275  0  0  -0.616046  0  3.388744  0  0  -0.599385  -0.583809  0  3.39113  0
N  N69  1  0.28704548  0.34073994  0.41604575  1  0  -0.650511  0  3.156012  0  0  -0.597132  0  3.390253  0  0  -0.616049  0  3.388711  0  0  -0.59937  -0.583789  0  3.391124  0
O  O70  1  0.79444448  0.35804239  0.54471613  1  0  -0.670002  0  2.083537  0  0  -0.602929  0  2.347554  0  0  -0.629117  0  2.335006  0  0  -0.328366  -0.584724  0  2.355612  0
O  O71  1  0.29444396  0.64195730  0.95528365  1  0  -0.670011  0  2.083567  0  0  -0.602901  0  2.347561  0  0  -0.62909  0  2.335012  0  0  -0.328367  -0.584697  0  2.35562  0
O  O72  1  0.20555741  0.64195742  0.45528482  1  0  -0.670024  0  2.083582  0  0  -0.60292  0  2.347591  0  0  -0.629108  0  2.335041  0  0  -0.328355  -0.584714  0  2.355651  0
O  O73  1  0.70555794  0.35804250  0.04471471  1  0  -0.670052  0  2.083443  0  0  -0.602957  0  2.347469  0  0  -0.629146  0  2.334919  0  0  -0.328388  -0.584751  0  2.355529  0
O  O74  1  0.20374397  0.46623093  0.60821732  1  0  -0.650686  0  2.075456  0  0  -0.583556  0  2.334311  0  0  -0.609881  0  2.323357  0  0  -0.315705  -0.565249  0  2.341285  0
O  O75  1  0.70374475  0.53376875  0.89178246  1  0  -0.650693  0  2.075431  0  0  -0.583558  0  2.334314  0  0  -0.609884  0  2.323361  0  0  -0.315709  -0.565251  0  2.341287  0
O  O76  1  0.79625560  0.53376888  0.39178234  1  0  -0.650711  0  2.075373  0  0  -0.583568  0  2.334269  0  0  -0.609894  0  2.323315  0  0  -0.315701  -0.56526  0  2.341243  0
O  O77  1  0.29625248  0.46623200  0.10821727  1  0  -0.65074  0  2.075385  0  0  -0.583553  0  2.334195  0  0  -0.609879  0  2.323239  0  0  -0.315688  -0.565247  0  2.341172  0
