# generated using pymatgen
data_AgH8C7(NO)2
_symmetry_space_group_name_H-M   'P 1'
_cell_length_a   11.90306270
_cell_length_b   12.50491613
_cell_length_c   22.84498135
_cell_angle_alpha   95.48937834
_cell_angle_beta   90.00045527
_cell_angle_gamma   89.99977242
_symmetry_Int_Tables_number   1
_chemical_formula_structural   AgH8C7(NO)2
_chemical_formula_sum   'Ag16 H128 C112 N32 O32'
_cell_volume   3384.80797203
_cell_formula_units_Z   16
loop_
 _symmetry_equiv_pos_site_id
 _symmetry_equiv_pos_as_xyz
  1  'x, y, z'
loop_
 _atom_site_type_symbol
 _atom_site_label
 _atom_site_symmetry_multiplicity
 _atom_site_fract_x
 _atom_site_fract_y
 _atom_site_fract_z
 _atom_site_occupancy
 _atom_site_pbe_bader_charge
 _atom_site_pbe_bader_spin_density
 _atom_site_pbe_cm5_charge
 _atom_site_pbe_ddec_charge
 _atom_site_pbe_ddec_spin_density
 _atom_site_pbe_ddec_sum_bond_order
 _atom_site_pbe_magmom
Ag  Ag0  1  0.66009292  0.49073229  0.76598122  1  0.556561  0  0.492595  0.401216  0  1.701132  0
Ag  Ag1  1  0.16008183  0.50926375  0.73401207  1  0.556545  0  0.49257  0.401166  0  1.701243  0
Ag  Ag2  1  0.33991492  0.50926762  0.23401747  1  0.55659  0  0.492614  0.401197  0  1.701207  0
Ag  Ag3  1  0.83991677  0.49073455  0.26598697  1  0.556561  0  0.49258  0.401177  0  1.701159  0
Ag  Ag4  1  0.45971570  0.21612016  0.55238007  1  0.552875  0  0.403287  0.323616  0  2.025571  0
Ag  Ag5  1  0.95972834  0.78388138  0.94761913  1  0.552648  0  0.403248  0.323516  0  2.025726  0
Ag  Ag6  1  0.54028122  0.78387573  0.44762016  1  0.552829  0  0.403278  0.323552  0  2.025719  0
Ag  Ag7  1  0.04026858  0.21612817  0.05238488  1  0.552598  0  0.403206  0.323462  0  2.025774  0
Ag  Ag8  1  0.47695477  0.71792306  0.55371213  1  0.562379  0  0.415468  0.335221  0  2.077425  0
Ag  Ag9  1  0.97694932  0.28207602  0.94629095  1  0.562465  0  0.415444  0.335201  0  2.077345  0
Ag  Ag10  1  0.52304383  0.28206721  0.44628649  1  0.562407  0  0.415453  0.33522  0  2.077301  0
Ag  Ag11  1  0.02305096  0.71792389  0.05371081  1  0.562473  0  0.415448  0.335157  0  2.077457  0
Ag  Ag12  1  0.68107043  0.99706670  0.75669775  1  0.511389  0  0.524833  0.378486  0  1.514459  0
Ag  Ag13  1  0.18107083  0.00293088  0.74330315  1  0.51144  0  0.524786  0.378471  0  1.514338  0
Ag  Ag14  1  0.31892985  0.00292598  0.24330143  1  0.511414  0  0.52477  0.378471  0  1.514472  0
Ag  Ag15  1  0.81892861  0.99707546  0.25669850  1  0.51142  0  0.524711  0.378397  0  1.514344  0
H  H16  1  0.61099809  0.38390664  0.63976352  1  0.063998  0  0.117252  0.085188  0  1.010714  0
H  H17  1  0.11099688  0.61609035  0.86023531  1  0.064033  0  0.117248  0.085178  0  1.010736  0
H  H18  1  0.38900219  0.61609327  0.36023517  1  0.064237  0  0.117265  0.085191  0  1.01074  0
H  H19  1  0.88901096  0.38391197  0.13976613  1  0.064332  0  0.117217  0.085158  0  1.010819  0
H  H20  1  0.51738319  0.32406533  0.68924317  1  0.144907  0  0.119251  0.093979  0  1.042117  0
H  H21  1  0.01738098  0.67592955  0.81075429  1  0.144991  0  0.119195  0.09387  0  1.042214  0
H  H22  1  0.48261961  0.67593137  0.31075623  1  0.144939  0  0.119224  0.09394  0  1.042229  0
H  H23  1  0.98262602  0.32407358  0.18924588  1  0.144929  0  0.119209  0.093921  0  1.042226  0
H  H24  1  0.53399778  0.47377547  0.55973217  1  0.085034  0  0.119514  0.091232  0  1.001005  0
H  H25  1  0.03399901  0.52622337  0.94026775  1  0.085007  0  0.119568  0.091412  0  1.001002  0
H  H26  1  0.46600334  0.52622203  0.44026814  1  0.085036  0  0.119531  0.091267  0  1.00101  0
H  H27  1  0.96600799  0.47378056  0.05973378  1  0.084983  0  0.11954  0.091299  0  1.001014  0
H  H28  1  0.38509820  0.47816107  0.54900141  1  0.077788  0  0.122204  0.095423  0  0.979139  0
H  H29  1  0.88510022  0.52184070  0.95099924  1  0.0778  0  0.122209  0.095487  0  0.979145  0
H  H30  1  0.61490208  0.52183804  0.45099942  1  0.07777  0  0.122226  0.095479  0  0.979094  0
H  H31  1  0.11490762  0.47816564  0.04900241  1  0.077771  0  0.122249  0.095485  0  0.979123  0
H  H32  1  0.31838218  0.32685108  0.67348888  1  0.140002  0  0.126898  0.111681  0  0.982946  0
H  H33  1  0.81838252  0.67314447  0.82650898  1  0.139803  0  0.126914  0.111762  0  0.982848  0
H  H34  1  0.68161474  0.67314562  0.32651183  1  0.139849  0  0.126929  0.111747  0  0.982936  0
H  H35  1  0.18162617  0.32685624  0.17349063  1  0.13957  0  0.126889  0.111724  0  0.982908  0
H  H36  1  0.26267828  0.39033486  0.61326001  1  0.072235  0  0.12383  0.096051  0  0.971858  0
H  H37  1  0.76267980  0.60966407  0.88673692  1  0.072316  0  0.123842  0.096066  0  0.971784  0
H  H38  1  0.73732116  0.60966424  0.38673908  1  0.072266  0  0.123811  0.096036  0  0.971842  0
H  H39  1  0.23732805  0.39034066  0.11326158  1  0.072339  0  0.123804  0.096026  0  0.971802  0
H  H40  1  0.33035660  0.66169730  0.67949723  1  0.117167  0  0.123541  0.101958  0  0.991584  0
H  H41  1  0.83035152  0.33829821  0.82050637  1  0.117285  0  0.123566  0.102063  0  0.991504  0
H  H42  1  0.66964704  0.33830100  0.32050488  1  0.11731  0  0.123546  0.102043  0  0.991542  0
H  H43  1  0.16965213  0.66170251  0.17949718  1  0.117167  0  0.12355  0.102039  0  0.99158  0
H  H44  1  0.26914430  0.58711930  0.61679847  1  0.093782  0  0.124653  0.09842  0  0.966875  0
H  H45  1  0.76914406  0.41288524  0.88320360  1  0.09387  0  0.124676  0.098431  0  0.966843  0
H  H46  1  0.73085682  0.41288543  0.38320310  1  0.093855  0  0.124678  0.098447  0  0.966833  0
H  H47  1  0.23085958  0.58712030  0.11679932  1  0.093831  0  0.124659  0.098443  0  0.96683  0
H  H48  1  0.61748595  0.58001759  0.64232153  1  0.113824  0  0.124522  0.101451  0  0.966469  0
H  H49  1  0.11748468  0.41997698  0.85767939  1  0.113841  0  0.124536  0.10148  0  0.966523  0
H  H50  1  0.38251433  0.41997992  0.35767922  1  0.113843  0  0.12457  0.101513  0  0.966429  0
H  H51  1  0.88251980  0.58002293  0.14232324  1  0.113865  0  0.124541  0.101461  0  0.966379  0
H  H52  1  0.53049596  0.65832975  0.69408635  1  0.120802  0  0.121767  0.099074  0  1.013297  0
H  H53  1  0.03049171  0.34166508  0.80591554  1  0.120811  0  0.12177  0.098981  0  1.013365  0
H  H54  1  0.46950516  0.34166936  0.30591536  1  0.12081  0  0.12177  0.099055  0  1.013313  0
H  H55  1  0.96951109  0.65833483  0.19408665  1  0.121  0  0.121792  0.099063  0  1.013348  0
H  H56  1  0.40611856  0.57307768  0.75823241  1  0.109056  0  0.11943  0.0891  0  1.031826  0
H  H57  1  0.90611862  0.42691358  0.74176735  1  0.108998  0  0.119435  0.089135  0  1.031703  0
H  H58  1  0.59388172  0.42691821  0.24176782  1  0.109071  0  0.11944  0.089129  0  1.031819  0
H  H59  1  0.09388922  0.57308312  0.25823555  1  0.108923  0  0.119445  0.08912  0  1.031743  0
H  H60  1  0.40304400  0.42809345  0.75505920  1  0.132088  0  0.124434  0.10682  0  1.006097  0
H  H61  1  0.90304435  0.57189943  0.74493887  1  0.132201  0  0.12438  0.106728  0  1.006029  0
H  H62  1  0.59695460  0.57190325  0.24493976  1  0.132152  0  0.124402  0.106766  0  1.006047  0
H  H63  1  0.09696181  0.42809807  0.25506057  1  0.132051  0  0.124439  0.10681  0  1.005996  0
H  H64  1  0.53969965  0.16195575  0.69062280  1  0.144622  0  0.12573  0.105514  0  1.014733  0
H  H65  1  0.03970010  0.83804307  0.80937802  1  0.144607  0  0.125702  0.105481  0  1.014748  0
H  H66  1  0.46030400  0.83804336  0.30937672  1  0.144697  0  0.125735  0.105505  0  1.014725  0
H  H67  1  0.96030270  0.16196166  0.19062442  1  0.144764  0  0.12574  0.10553  0  1.014593  0
H  H68  1  0.62092387  0.08147981  0.63644752  1  0.091953  0  0.125624  0.104904  0  0.969468  0
H  H69  1  0.12092314  0.91851876  0.86355406  1  0.091923  0  0.125635  0.1049  0  0.96949  0
H  H70  1  0.37907809  0.91851769  0.36355236  1  0.091994  0  0.125594  0.104857  0  0.96938  0
H  H71  1  0.87907630  0.08148276  0.13644822  1  0.092018  0  0.125618  0.104884  0  0.969406  0
H  H72  1  0.52780339  0.97009833  0.55986146  1  0.091057  0  0.122129  0.087545  0  0.987917  0
H  H73  1  0.02780668  0.02989892  0.94013923  1  0.091069  0  0.122127  0.087524  0  0.98798  0
H  H74  1  0.47219437  0.02989917  0.44013842  1  0.091043  0  0.122111  0.087476  0  0.987928  0
H  H75  1  0.97219192  0.97010501  0.05986142  1  0.091004  0  0.122118  0.087474  0  0.987918  0
H  H76  1  0.37758318  0.97177977  0.55471069  1  0.093626  0  0.125615  0.09759  0  0.963204  0
H  H77  1  0.87758381  0.02821720  0.94529012  1  0.093509  0  0.1256  0.097582  0  0.963195  0
H  H78  1  0.62241710  0.02821934  0.44528971  1  0.093621  0  0.125608  0.097564  0  0.963191  0
H  H79  1  0.12241479  0.97178351  0.05471080  1  0.093571  0  0.125592  0.097583  0  0.963138  0
H  H80  1  0.26976878  0.08601048  0.62545607  1  0.115295  0  0.129078  0.106296  0  0.950764  0
H  H81  1  0.76977220  0.91398924  0.87454312  1  0.115309  0  0.129092  0.106314  0  0.950833  0
H  H82  1  0.73023234  0.91399345  0.37454370  1  0.115221  0  0.129093  0.106269  0  0.950714  0
H  H83  1  0.23022892  0.08601228  0.12545609  1  0.115298  0  0.129094  0.106298  0  0.950769  0
H  H84  1  0.34090538  0.16357827  0.68465903  1  0.135842  0  0.130549  0.116471  0  0.989737  0
H  H85  1  0.84090234  0.83642043  0.81534128  1  0.135836  0  0.13057  0.116466  0  0.989753  0
H  H86  1  0.65909826  0.83642325  0.31534193  1  0.135885  0  0.130558  0.116454  0  0.989805  0
H  H87  1  0.15909962  0.16357868  0.18465912  1  0.135861  0  0.13057  0.116456  0  0.989745  0
H  H88  1  0.33443003  0.82845074  0.68472536  1  0.120236  0  0.129185  0.112164  0  0.984412  0
H  H89  1  0.83443144  0.17154798  0.81527405  1  0.120262  0  0.129131  0.112077  0  0.984338  0
H  H90  1  0.66556773  0.17154837  0.31527548  1  0.120237  0  0.129193  0.11214  0  0.984471  0
H  H91  1  0.16556632  0.82845113  0.18472591  1  0.120237  0  0.129198  0.11217  0  0.984407  0
H  H92  1  0.26685441  0.88902797  0.62571913  1  0.081067  0  0.122215  0.088258  0  0.997571  0
H  H93  1  0.76685614  0.11097255  0.87428053  1  0.081096  0  0.12219  0.088297  0  0.997444  0
H  H94  1  0.73314419  0.11097113  0.37427995  1  0.081088  0  0.122226  0.088266  0  0.997579  0
H  H95  1  0.23314162  0.88902495  0.12571847  1  0.081112  0  0.122194  0.088269  0  0.99748  0
H  H96  1  0.53114585  0.82759836  0.69265955  1  0.117841  0  0.123358  0.102923  0  1.019869  0
H  H97  1  0.03114485  0.17240209  0.80734132  1  0.117844  0  0.123323  0.102865  0  1.019795  0
H  H98  1  0.46885611  0.17240235  0.30733962  1  0.117778  0  0.123343  0.102944  0  1.019829  0
H  H99  1  0.96885459  0.82760023  0.19266012  1  0.117842  0  0.123327  0.10286  0  1.019861  0
H  H100  1  0.61715176  0.88286408  0.63800277  1  0.112192  0  0.120842  0.097157  0  0.996235  0
H  H101  1  0.11715014  0.11713450  0.86199792  1  0.112179  0  0.120853  0.097137  0  0.996352  0
H  H102  1  0.38284684  0.11713824  0.36199692  1  0.112198  0  0.120864  0.09719  0  0.996116  0
H  H103  1  0.88284511  0.88286862  0.13800444  1  0.112219  0  0.120859  0.097161  0  0.996285  0
H  H104  1  0.42828028  0.08255292  0.76089362  1  0.134646  0  0.121629  0.103169  0  1.030674  0
H  H105  1  0.92828079  0.91744390  0.73910695  1  0.134652  0  0.121617  0.103179  0  1.030624  0
H  H106  1  0.57171916  0.91744780  0.23910642  1  0.134158  0  0.121639  0.103195  0  1.030716  0
H  H107  1  0.07172538  0.08255521  0.26089432  1  0.134098  0  0.121641  0.103222  0  1.030584  0
H  H108  1  0.42764422  0.93602233  0.76184988  1  0.200056  0  0.12189  0.114473  0  1.03828  0
H  H109  1  0.92764154  0.06397449  0.73814981  1  0.200074  0  0.121852  0.114389  0  1.038398  0
H  H110  1  0.57235606  0.06397758  0.23815012  1  0.200044  0  0.121884  0.114476  0  1.038278  0
H  H111  1  0.07236126  0.93602542  0.26185063  1  0.200053  0  0.121862  0.11445  0  1.038331  0
H  H112  1  0.31766078  0.52518169  0.98151503  1  0.099985  0  0.100372  0.104031  0  1.010193  0
H  H113  1  0.81764295  0.47480985  0.51848043  1  0.09998  0  0.100302  0.104009  0  1.010113  0
H  H114  1  0.68233362  0.47483670  0.01848945  1  0.100058  0  0.100354  0.104043  0  1.010121  0
H  H115  1  0.18235817  0.52519247  0.48151664  1  0.099998  0  0.100306  0.104042  0  1.010129  0
H  H116  1  0.49937264  0.45692166  0.93786962  1  0.084962  0  0.098329  0.101005  0  1.018641  0
H  H117  1  0.99936276  0.54308056  0.56212277  1  0.084965  0  0.098337  0.101003  0  1.01865  0
H  H118  1  0.50061588  0.54307503  0.06213546  1  0.085363  0  0.09836  0.101006  0  1.018713  0
H  H119  1  0.00064088  0.45692337  0.43787394  1  0.085028  0  0.098346  0.101024  0  1.018664  0
H  H120  1  0.59242941  0.55587141  0.86135090  1  0.048034  0  0.080682  0.065231  0  1.108882  0
H  H121  1  0.09243310  0.44413046  0.63864067  1  0.048146  0  0.080642  0.065149  0  1.108786  0
H  H122  1  0.40756163  0.44411645  0.13865153  1  0.047964  0  0.080637  0.065176  0  1.1089  0
H  H123  1  0.90755962  0.55587668  0.36136015  1  0.048084  0  0.080684  0.065179  0  1.108787  0
H  H124  1  0.31444338  0.77487523  0.86438341  1  0.085462  0  0.100319  0.109442  0  1.015781  0
H  H125  1  0.81445947  0.22511632  0.63561292  1  0.085619  0  0.100303  0.109351  0  1.015903  0
H  H126  1  0.68556446  0.22513191  0.13561391  1  0.085522  0  0.10029  0.109424  0  1.015828  0
H  H127  1  0.18554249  0.77488440  0.36438406  1  0.085547  0  0.100305  0.109435  0  1.015855  0
H  H128  1  0.41759905  0.19045551  0.02617557  1  0.095791  0  0.101873  0.107969  0  1.003334  0
H  H129  1  0.91761282  0.80957534  0.47382545  1  0.095812  0  0.101932  0.107994  0  1.003475  0
H  H130  1  0.58239955  0.80953395  0.97382082  1  0.095778  0  0.101834  0.107924  0  1.003292  0
H  H131  1  0.08237822  0.19043340  0.52617721  1  0.095644  0  0.101924  0.1079  0  1.003364  0
H  H132  1  0.61778180  0.19431886  0.99423443  1  0.045828  0  0.096659  0.099775  0  1.021856  0
H  H133  1  0.11779707  0.80570945  0.50576213  1  0.04548  0  0.09667  0.099856  0  1.022032  0
H  H134  1  0.38221680  0.80567302  0.00576121  1  0.045957  0  0.09667  0.099838  0  1.021863  0
H  H135  1  0.88219817  0.19429368  0.49423410  1  0.045381  0  0.096682  0.099884  0  1.021956  0
H  H136  1  0.66383882  0.24098028  0.89272939  1  0.041284  0  0.094397  0.09091  0  1.050712  0
H  H137  1  0.16385668  0.75901655  0.60726177  1  0.040761  0  0.09439  0.090979  0  1.050613  0
H  H138  1  0.33615390  0.75902043  0.10726540  1  0.040881  0  0.094394  0.090925  0  1.050805  0
H  H139  1  0.83613856  0.24098497  0.39273525  1  0.040859  0  0.094416  0.091059  0  1.050557  0
H  H140  1  0.31299181  0.25853485  0.85319818  1  0.103063  0  0.100523  0.108674  0  1.021021  0
H  H141  1  0.81301348  0.74144385  0.64679659  1  0.103328  0  0.100512  0.108672  0  1.021023  0
H  H142  1  0.68699503  0.74146265  0.14680389  1  0.103176  0  0.100511  0.108615  0  1.021077  0
H  H143  1  0.18697840  0.25854964  0.35320351  1  0.103374  0  0.100527  0.108707  0  1.021105  0
C  C144  1  0.52878243  0.38989107  0.66137211  1  0.522714  0  0.007214  -0.017065  0  3.844307  0
C  C145  1  0.02878344  0.61010055  0.83862566  1  0.522224  0  0.00719  -0.017041  0  3.844311  0
C  C146  1  0.47121869  0.61010563  0.33862772  1  0.522024  0  0.007196  -0.017097  0  3.844433  0
C  C147  1  0.97122441  0.38989775  0.16137470  1  0.521905  0  0.007277  -0.017027  0  3.844324  0
C  C148  1  0.45221815  0.47920839  0.58202355  1  0.555749  0  0.013926  -0.015412  0  3.877784  0
C  C149  1  0.95221967  0.52079157  0.91797685  1  0.555663  0  0.013833  -0.015842  0  3.878256  0
C  C150  1  0.54778129  0.52078912  0.41797676  1  0.555773  0  0.013921  -0.015514  0  3.877681  0
C  C151  1  0.04778565  0.47921396  0.08202520  1  0.555948  0  0.013838  -0.01561  0  3.877592  0
C  C152  1  0.32964196  0.39347497  0.64636713  1  0.513098  0  0.019842  -0.00179  0  3.832179  0
C  C153  1  0.82964299  0.60652295  0.85363134  1  0.513468  0  0.019869  -0.001795  0  3.83214  0
C  C154  1  0.67035580  0.60652414  0.35363239  1  0.51324  0  0.019864  -0.001836  0  3.832171  0
C  C155  1  0.17036401  0.39347856  0.14636918  1  0.513532  0  0.019858  -0.001769  0  3.831767  0
C  C156  1  0.33622392  0.58784689  0.64977536  1  0.512119  0  0.019024  -0.002905  0  3.842243  0
C  C157  1  0.83622235  0.41215182  0.85022581  1  0.511844  0  0.018981  -0.003103  0  3.842167  0
C  C158  1  0.66377636  0.41215302  0.35022509  1  0.511923  0  0.018932  -0.003192  0  3.842243  0
C  C159  1  0.16378382  0.58785291  0.14977663  1  0.511972  0  0.019022  -0.003043  0  3.842185  0
C  C160  1  0.53567523  0.58398995  0.66458171  1  0.479389  0  0.016261  -0.00962  0  3.833308  0
C  C161  1  0.03567532  0.41600567  0.83542024  1  0.479694  0  0.016204  -0.009716  0  3.83338  0
C  C162  1  0.46432337  0.41600755  0.33541861  1  0.479678  0  0.016164  -0.00977  0  3.833373  0
C  C163  1  0.96432748  0.58399424  0.16458458  1  0.479522  0  0.016204  -0.009559  0  3.833266  0
C  C164  1  0.41215560  0.49782704  0.72977907  1  0.478381  0  0.008132  -0.02818  0  3.817308  0
C  C165  1  0.91215579  0.50216581  0.77022123  1  0.478382  0  0.008178  -0.028169  0  3.816962  0
C  C166  1  0.58784384  0.50217046  0.27022125  1  0.478314  0  0.008147  -0.02819  0  3.817215  0
C  C167  1  0.08785122  0.49783169  0.22978127  1  0.478443  0  0.008116  -0.028199  0  3.816877  0
C  C168  1  0.54287356  0.08634363  0.66208174  1  0.497201  0  0.014795  -0.017308  0  3.814356  0
C  C169  1  0.04287581  0.91365679  0.83791786  1  0.497016  0  0.014819  -0.017196  0  3.814532  0
C  C170  1  0.45712840  0.91365548  0.33791778  1  0.497083  0  0.014819  -0.017188  0  3.814349  0
C  C171  1  0.95712699  0.08634714  0.16208235  1  0.496908  0  0.014799  -0.017286  0  3.814342  0
C  C172  1  0.44922463  0.97611199  0.58517306  1  0.520852  0  0.019128  -0.01947  0  3.899427  0
C  C173  1  0.94922566  0.02388636  0.91482768  1  0.520921  0  0.019102  -0.01946  0  3.89941  0
C  C174  1  0.55077481  0.02388551  0.41482638  1  0.5209  0  0.019153  -0.019342  0  3.899358  0
C  C175  1  0.05077378  0.97611756  0.08517429  1  0.521045  0  0.019181  -0.019382  0  3.899174  0
C  C176  1  0.34167487  0.08859227  0.65564221  1  0.491226  0  0.021526  -0.013326  0  3.814726  0
C  C177  1  0.84167448  0.91140562  0.84435937  1  0.491208  0  0.021482  -0.013335  0  3.814958  0
C  C178  1  0.65832709  0.91140764  0.34435779  1  0.491198  0  0.021524  -0.013185  0  3.814776  0
C  C179  1  0.15832580  0.08859429  0.15564063  1  0.491156  0  0.021501  -0.01324  0  3.814841  0
C  C180  1  0.33882518  0.89333471  0.65578796  1  0.526493  0  0.01846  -0.016461  0  3.85009  0
C  C181  1  0.83882731  0.10666238  0.84421269  1  0.52646  0  0.018495  -0.01646  0  3.849981  0
C  C182  1  0.66117258  0.10666921  0.34421357  1  0.526501  0  0.01847  -0.0163  0  3.850048  0
C  C183  1  0.16117045  0.89333191  0.15578658  1  0.526565  0  0.018451  -0.016432  0  3.850065  0
C  C184  1  0.53853687  0.89128731  0.66296339  1  0.509189  0  0.007927  -0.025836  0  3.83636  0
C  C185  1  0.03853826  0.10870990  0.83703691  1  0.509234  0  0.007979  -0.025606  0  3.836367  0
C  C186  1  0.46146425  0.10871260  0.33703662  1  0.509289  0  0.007905  -0.025849  0  3.836314  0
C  C187  1  0.96146202  0.89129001  0.16296266  1  0.509336  0  0.007985  -0.025734  0  3.83649  0
C  C188  1  0.43102660  0.00416043  0.73487711  1  0.406684  0  -9e-06  -0.052023  0  3.780648  0
C  C189  1  0.93102801  0.99583878  0.76512360  1  0.406773  0  3.8e-05  -0.051819  0  3.780665  0
C  C190  1  0.56896948  0.99584028  0.26512206  1  0.40717  0  6.1e-05  -0.05189  0  3.780719  0
C  C191  1  0.06897731  0.00416193  0.23487820  1  0.406926  0  1.8e-05  -0.051924  0  3.780825  0
C  C192  1  0.20060883  0.69894540  0.95608028  1  1.513853  0  0.188129  0.539769  0  4.244263  0
C  C193  1  0.70060472  0.30105132  0.54391978  1  1.514523  0  0.188206  0.539988  0  4.244133  0
C  C194  1  0.79939481  0.30106496  0.04391983  1  1.513624  0  0.188152  0.539881  0  4.244238  0
C  C195  1  0.29939724  0.69894859  0.45607847  1  1.513737  0  0.188222  0.54001  0  4.243945  0
C  C196  1  0.30658143  0.65579057  0.92693235  1  0.013114  0  -0.026331  -0.051506  0  4.007783  0
C  C197  1  0.80658262  0.34419939  0.57306824  1  0.013021  0  -0.026254  -0.051658  0  4.007971  0
C  C198  1  0.69341633  0.34421979  0.07306908  1  0.012918  0  -0.026464  -0.0517  0  4.007917  0
C  C199  1  0.19341262  0.65579972  0.42692954  1  0.012807  0  -0.02621  -0.051579  0  4.007905  0
C  C200  1  0.35811976  0.56493955  0.94676579  1  -0.076547  0  -0.085969  -0.08995  0  3.972945  0
C  C201  1  0.85810684  0.43505347  0.55323123  1  -0.077171  0  -0.085897  -0.089722  0  3.972389  0
C  C202  1  0.64187380  0.43507161  0.05323743  1  -0.076862  0  -0.085961  -0.089989  0  3.97297  0
C  C203  1  0.14188840  0.56494484  0.44676825  1  -0.076847  0  -0.085967  -0.089936  0  3.972666  0
C  C204  1  0.45992035  0.52788685  0.92267554  1  -0.06225  0  -0.093696  -0.07803  0  4.003815  0
C  C205  1  0.95991015  0.47210826  0.57731894  1  -0.062021  0  -0.093808  -0.078361  0  4.003593  0
C  C206  1  0.54007321  0.47211708  0.07732686  1  -0.062608  0  -0.093675  -0.077894  0  4.003868  0
C  C207  1  0.04008845  0.52789084  0.42268014  1  -0.062203  0  -0.09374  -0.07815  0  4.00374  0
C  C208  1  0.51115378  0.58273801  0.87947471  1  -0.070787  0  -0.090107  -0.095097  0  3.984414  0
C  C209  1  0.01114722  0.41725447  0.62052128  1  -0.070446  0  -0.089996  -0.094839  0  3.984006  0
C  C210  1  0.48884651  0.41726029  0.12052608  1  -0.070915  0  -0.090097  -0.09512  0  3.984485  0
C  C211  1  0.98884802  0.58274624  0.37948183  1  -0.070287  0  -0.090084  -0.094985  0  3.984075  0
C  C212  1  0.45946421  0.67138897  0.85744822  1  -0.085376  0  -0.025369  -0.036516  0  3.957712  0
C  C213  1  0.95945560  0.32859891  0.64254807  1  -0.086033  0  -0.025342  -0.036368  0  3.95797  0
C  C214  1  0.54054616  0.32861335  0.14255191  1  -0.085311  0  -0.025307  -0.0365  0  3.957815  0
C  C215  1  0.04053964  0.67140261  0.35745508  1  -0.086136  0  -0.025306  -0.036346  0  3.957706  0
C  C216  1  0.35604135  0.70662294  0.88128008  1  0.011155  0  -0.083013  -0.109871  0  3.931184  0
C  C217  1  0.85604010  0.29337169  0.61871570  1  0.011574  0  -0.083064  -0.109812  0  3.931842  0
C  C218  1  0.64396649  0.29338420  0.11872074  1  0.011803  0  -0.082934  -0.109794  0  3.931462  0
C  C219  1  0.14395851  0.70663224  0.38128233  1  0.011679  0  -0.0831  -0.10995  0  3.931862  0
C  C220  1  0.51261473  0.72547611  0.80713174  1  1.589494  0  0.173904  0.548403  0  4.308689  0
C  C221  1  0.01263088  0.27453324  0.69286427  1  1.589221  0  0.17386  0.54795  0  4.308804  0
C  C222  1  0.48739899  0.27452138  0.19287208  1  1.589582  0  0.173933  0.548612  0  4.308359  0
C  C223  1  0.98736268  0.72547069  0.30713682  1  1.589016  0  0.17373  0.547854  0  4.308496  0
C  C224  1  0.23270580  0.22863041  0.96224746  1  1.532209  0  0.193222  0.553072  0  4.23122  0
C  C225  1  0.73272064  0.77136139  0.53774285  1  1.532342  0  0.193162  0.552882  0  4.231453  0
C  C226  1  0.76729112  0.77135022  0.03774847  1  1.532023  0  0.193111  0.552821  0  4.231173  0
C  C227  1  0.26727544  0.22862406  0.46225552  1  1.53246  0  0.193158  0.552673  0  4.23147  0
C  C228  1  0.35294194  0.22578876  0.94212906  1  -0.021612  0  -0.024378  -0.037204  0  3.983576  0
C  C229  1  0.85295791  0.77420589  0.55786409  1  -0.021759  0  -0.024168  -0.037031  0  3.983418  0
C  C230  1  0.64704994  0.77420232  0.05787004  1  -0.021543  0  -0.024289  -0.037151  0  3.983437  0
C  C231  1  0.14703649  0.22579001  0.44212870  1  -0.021623  0  -0.02418  -0.036807  0  3.983172  0
C  C232  1  0.43927132  0.20588641  0.98143659  1  -0.001919  0  -0.084007  -0.085172  0  3.957443  0
C  C233  1  0.93928577  0.79413207  0.51855860  1  -0.002444  0  -0.084152  -0.08526  0  3.957869  0
C  C234  1  0.56072140  0.79410949  0.01856277  1  -0.0019  0  -0.084041  -0.085183  0  3.957504  0
C  C235  1  0.06070695  0.20587748  0.48143622  1  -0.002004  0  -0.084091  -0.085188  0  3.957752  0
C  C236  1  0.55105585  0.20874366  0.96340699  1  -0.082735  0  -0.098007  -0.087951  0  4.031348  0
C  C237  1  0.05107082  0.79127039  0.53658942  1  -0.082152  0  -0.098086  -0.088163  0  4.0316  0
C  C238  1  0.44893939  0.79124902  0.03659088  1  -0.083046  0  -0.098021  -0.088002  0  4.031249  0
C  C239  1  0.94892358  0.20873434  0.46340777  1  -0.082154  0  -0.098039  -0.088093  0  4.031708  0
C  C240  1  0.57701003  0.23237147  0.90653569  1  -0.020079  0  -0.094522  -0.111107  0  4.004936  0
C  C241  1  0.07702764  0.76762482  0.59345990  1  -0.019989  0  -0.09454  -0.111265  0  4.004403  0
C  C242  1  0.42298353  0.76762522  0.09346283  1  -0.019733  0  -0.094539  -0.111249  0  4.004797  0
C  C243  1  0.92296844  0.23237509  0.40653836  1  -0.019591  0  -0.09465  -0.111501  0  4.004504  0
C  C244  1  0.49163502  0.24765182  0.86594706  1  -0.046639  0  -0.029852  -0.045632  0  3.999495  0
C  C245  1  0.99165393  0.75233918  0.63405040  1  -0.046533  0  -0.029646  -0.045163  0  3.998738  0
C  C246  1  0.50835686  0.75234729  0.13405334  1  -0.04651  0  -0.029698  -0.045314  0  3.998992  0
C  C247  1  0.00834803  0.24766395  0.36595021  1  -0.04711  0  -0.029645  -0.045116  0  3.998738  0
C  C248  1  0.37963122  0.24441925  0.88420995  1  -0.045162  0  -0.085812  -0.117262  0  3.949891  0
C  C249  1  0.87964816  0.75556808  0.61578292  1  -0.045241  0  -0.085941  -0.11748  0  3.949786  0
C  C250  1  0.62036318  0.75557825  0.11578905  1  -0.045662  0  -0.085901  -0.117303  0  3.949713  0
C  C251  1  0.12034876  0.24442701  0.38421465  1  -0.045534  0  -0.086014  -0.117614  0  3.950035  0
C  C252  1  0.52055227  0.26886698  0.80349794  1  1.56452  0  0.179556  0.548625  0  4.284504  0
C  C253  1  0.02057665  0.73111584  0.69649014  1  1.564135  0  0.179661  0.548777  0  4.284188  0
C  C254  1  0.47943457  0.73113052  0.19649931  1  1.564148  0  0.179566  0.548564  0  4.284629  0
C  C255  1  0.97942699  0.26888809  0.30350614  1  1.564349  0  0.17954  0.548455  0  4.284404  0
N  N256  1  0.43936981  0.38645141  0.61677010  1  -1.010384  0  -0.349519  -0.154807  0  3.476013  0
N  N257  1  0.93936538  0.61354377  0.88322824  1  -1.01049  0  -0.349498  -0.154757  0  3.476089  0
N  N258  1  0.56063047  0.61354609  0.38322978  1  -1.010386  0  -0.349559  -0.154821  0  3.47597  0
N  N259  1  0.06063406  0.38645213  0.11677199  1  -1.010427  0  -0.349535  -0.154867  0  3.475732  0
N  N260  1  0.52421142  0.49174878  0.70068913  1  -0.967543  0  -0.361263  -0.132112  0  3.484865  0
N  N261  1  0.02421394  0.50824687  0.79931146  1  -0.96746  0  -0.361155  -0.131844  0  3.4849  0
N  N262  1  0.47578718  0.50824711  0.29931154  1  -0.967419  0  -0.361236  -0.13204  0  3.484908  0
N  N263  1  0.97579391  0.49175625  0.20069046  1  -0.966911  0  -0.361193  -0.131945  0  3.484829  0
N  N264  1  0.44584172  0.58139211  0.62021608  1  -0.991562  0  -0.356247  -0.151011  0  3.476642  0
N  N265  1  0.94583888  0.41860786  0.87978560  1  -0.991648  0  -0.356279  -0.150876  0  3.476406  0
N  N266  1  0.55415856  0.41860619  0.37978384  1  -0.99169  0  -0.356237  -0.150856  0  3.476485  0
N  N267  1  0.05416392  0.58140169  0.12021753  1  -0.992264  0  -0.356213  -0.151049  0  3.476319  0
N  N268  1  0.32025203  0.49554567  0.68553424  1  -0.944288  0  -0.359667  -0.134833  0  3.478872  0
N  N269  1  0.82024952  0.50445308  0.81446599  1  -0.944358  0  -0.359736  -0.134878  0  3.478971  0
N  N270  1  0.67974825  0.50445665  0.31446589  1  -0.944309  0  -0.359639  -0.13471  0  3.478813  0
N  N271  1  0.17976000  0.49555325  0.18553742  1  -0.944153  0  -0.359758  -0.134818  0  3.478656  0
N  N272  1  0.44653839  0.08003345  0.62175003  1  -1.000796  0  -0.348605  -0.134652  0  3.46971  0
N  N273  1  0.94653765  0.91996331  0.87824974  1  -1.000662  0  -0.348561  -0.134619  0  3.469676  0
N  N274  1  0.55346357  0.91996566  0.37824993  1  -1.000805  0  -0.348591  -0.134683  0  3.469722  0
N  N275  1  0.05346179  0.08003580  0.12175153  1  -1.000904  0  -0.348619  -0.134614  0  3.469772  0
N  N276  1  0.53822861  0.99607190  0.70064690  1  -0.960128  0  -0.364831  -0.114911  0  3.491149  0
N  N277  1  0.03822735  0.00392531  0.79935558  1  -0.960232  0  -0.364817  -0.115094  0  3.491623  0
N  N278  1  0.46177503  0.00392801  0.29935442  1  -0.960152  0  -0.364851  -0.115022  0  3.491515  0
N  N279  1  0.96177629  0.99607380  0.20064438  1  -0.960089  0  -0.364807  -0.114985  0  3.491474  0
N  N280  1  0.44329385  0.88570936  0.62202973  1  -0.998583  0  -0.3466  -0.146915  0  3.483614  0
N  N281  1  0.94329898  0.11428901  0.87797142  1  -0.998422  0  -0.346546  -0.146907  0  3.483646  0
N  N282  1  0.55670811  0.11428814  0.37796927  1  -0.998607  0  -0.346586  -0.146991  0  3.483925  0
N  N283  1  0.05670550  0.88571250  0.12203217  1  -0.998678  0  -0.346606  -0.146842  0  3.48381  0
N  N284  1  0.33283772  0.99776647  0.69374665  1  -0.949786  0  -0.364628  -0.121436  0  3.490692  0
N  N285  1  0.83283214  0.00223225  0.80625319  1  -0.949874  0  -0.364674  -0.121566  0  3.490784  0
N  N286  1  0.66716592  0.00223586  0.30625173  1  -0.949739  0  -0.364698  -0.121712  0  3.490601  0
N  N287  1  0.16716646  0.99777007  0.19374825  1  -0.949521  0  -0.364613  -0.121694  0  3.490796  0
O  O288  1  0.15368614  0.78011283  0.93673750  1  -1.154701  0  -0.33986  -0.536836  0  2.281989  0
O  O289  1  0.65367594  0.21988885  0.56326219  1  -1.154953  0  -0.339847  -0.536826  0  2.281932  0
O  O290  1  0.84631246  0.21989029  0.06326311  1  -1.154742  0  -0.339799  -0.536784  0  2.281918  0
O  O291  1  0.34632770  0.78011427  0.43673623  1  -1.154577  0  -0.339831  -0.536814  0  2.28196  0
O  O292  1  0.16461012  0.64929482  0.99885353  1  -1.140314  0  -0.338011  -0.530392  0  2.360877  0
O  O293  1  0.66460431  0.35069317  0.50114505  1  -1.140858  0  -0.338134  -0.530603  0  2.360856  0
O  O294  1  0.83539100  0.35071955  0.00114636  1  -1.140393  0  -0.338068  -0.530451  0  2.360762  0
O  O295  1  0.33539597  0.64929710  0.49885094  1  -1.140414  0  -0.33815  -0.530575  0  2.36076  0
O  O296  1  0.44693382  0.78000092  0.77734185  1  -1.210241  0  -0.363012  -0.610604  0  2.154661  0
O  O297  1  0.94694790  0.21999423  0.72265652  1  -1.20982  0  -0.363051  -0.610496  0  2.154284  0
O  O298  1  0.55309419  0.22000622  0.22266247  1  -1.210452  0  -0.36302  -0.610748  0  2.154721  0
O  O299  1  0.05304398  0.78000407  0.27733990  1  -1.20978  0  -0.362935  -0.610403  0  2.154214  0
O  O300  1  0.61641235  0.70900006  0.79701365  1  -1.201901  0  -0.367757  -0.620464  0  2.162232  0
O  O301  1  0.11642186  0.29102102  0.70298472  1  -1.201983  0  -0.367651  -0.620135  0  2.162412  0
O  O302  1  0.38359633  0.29098217  0.20298893  1  -1.201679  0  -0.367778  -0.620517  0  2.161957  0
O  O303  1  0.88357086  0.70898210  0.29701852  1  -1.201864  0  -0.367652  -0.620147  0  2.162304  0
O  O304  1  0.21117223  0.19326071  0.01157221  1  -1.143433  0  -0.342665  -0.530129  0  2.306396  0
O  O305  1  0.71118960  0.80673785  0.48841881  1  -1.143195  0  -0.342638  -0.530087  0  2.306584  0
O  O306  1  0.78882133  0.80672555  0.98842226  1  -1.142913  0  -0.342605  -0.529988  0  2.306363  0
O  O307  1  0.28881236  0.19323234  0.51157394  1  -1.143405  0  -0.342662  -0.530028  0  2.306768  0
O  O308  1  0.16153974  0.26681032  0.92795832  1  -1.147534  0  -0.335742  -0.527632  0  2.355603  0
O  O309  1  0.66155442  0.73318572  0.57203410  1  -1.147645  0  -0.335822  -0.527575  0  2.355685  0
O  O310  1  0.83845718  0.73317674  0.07204013  1  -1.147777  0  -0.335734  -0.527545  0  2.35574  0
O  O311  1  0.33843830  0.26681821  0.42796611  1  -1.147493  0  -0.335785  -0.527516  0  2.355516  0
O  O312  1  0.44175380  0.25634275  0.76560237  1  -1.20296  0  -0.349677  -0.591446  0  2.169695  0
O  O313  1  0.94178268  0.74365001  0.73439323  1  -1.202854  0  -0.349811  -0.591684  0  2.169412  0
O  O314  1  0.55823136  0.74366439  0.23439889  1  -1.202699  0  -0.349819  -0.591566  0  2.169459  0
O  O315  1  0.05822936  0.25635954  0.26560596  1  -1.20278  0  -0.349736  -0.591607  0  2.169405  0
O  O316  1  0.62121026  0.29625881  0.79306620  1  -1.196709  0  -0.366224  -0.619288  0  2.206207  0
O  O317  1  0.12122399  0.70370602  0.70691917  1  -1.196107  0  -0.366213  -0.619238  0  2.206267  0
O  O318  1  0.37878246  0.70374512  0.20693183  1  -1.196351  0  -0.366131  -0.619177  0  2.206334  0
O  O319  1  0.87877713  0.29629309  0.29307466  1  -1.196465  0  -0.366141  -0.619047  0  2.206403  0
