# generated using pymatgen
data_VH5C6NCl3
_symmetry_space_group_name_H-M   'P 1'
_cell_length_a   9.23637817
_cell_length_b   10.36523689
_cell_length_c   10.69840454
_cell_angle_alpha   96.24164500
_cell_angle_beta   114.67999663
_cell_angle_gamma   106.31728805
_symmetry_Int_Tables_number   1
_chemical_formula_structural   VH5C6NCl3
_chemical_formula_sum   'V4 H20 C24 N4 Cl12'
_cell_volume   862.66327720
_cell_formula_units_Z   4
loop_
 _symmetry_equiv_pos_site_id
 _symmetry_equiv_pos_as_xyz
  1  'x, y, z'
loop_
 _atom_site_type_symbol
 _atom_site_label
 _atom_site_symmetry_multiplicity
 _atom_site_fract_x
 _atom_site_fract_y
 _atom_site_fract_z
 _atom_site_occupancy
 _atom_site_hle17_bader_spin_density
 _atom_site_hle17_ddec_charge
 _atom_site_hle17_ddec_spin_density
 _atom_site_hle17_ddec_sum_bond_order
 _atom_site_hle17_magmom
 _atom_site_hse06_10hf_bader_spin_density
 _atom_site_hse06_10hf_ddec_charge
 _atom_site_hse06_10hf_ddec_spin_density
 _atom_site_hse06_10hf_ddec_sum_bond_order
 _atom_site_hse06_10hf_magmom
 _atom_site_hse06_bader_spin_density
 _atom_site_hse06_ddec_charge
 _atom_site_hse06_ddec_spin_density
 _atom_site_hse06_ddec_sum_bond_order
 _atom_site_hse06_magmom
 _atom_site_pbe_bader_spin_density
 _atom_site_pbe_cm5_charge
 _atom_site_pbe_ddec_charge
 _atom_site_pbe_ddec_spin_density
 _atom_site_pbe_ddec_sum_bond_order
 _atom_site_pbe_magmom
V  V0  1  0.51711292  0.63291225  0.89769727  1  0  1.403869  0  3.051653  0  0  1.452764  0  3.431542  0  0  1.532939  0  3.404641  0  0  1.145167  1.395408  0  3.45547  0
V  V1  1  0.48288636  0.36708475  0.10230203  1  0  1.403904  0  3.051619  0  0  1.452783  0  3.431517  0  0  1.532971  0  3.404599  0  0  1.145175  1.395443  0  3.455415  0
V  V2  1  0.99501919  0.86379551  0.10027559  1  0  1.402719  0  3.055008  0  0  1.4523  0  3.433263  0  0  1.532732  0  3.407572  0  0  1.145753  1.394481  0  3.456533  0
V  V3  1  0.00497887  0.13620148  0.89972606  1  0  1.402804  0  3.05489  0  0  1.452379  0  3.433144  0  0  1.532771  0  3.407544  0  0  1.145759  1.394532  0  3.456483  0
H  H4  1  0.25045024  0.69678291  0.56697019  1  0  0.103948  0  0.955949  0  0  0.112454  0  1.021937  0  0  0.114906  0  1.021596  0  0  0.105036  0.110642  0  1.022375  0
H  H5  1  0.74954642  0.30321620  0.43302836  1  0  0.103961  0  0.955952  0  0  0.112454  0  1.021962  0  0  0.11491  0  1.021616  0  0  0.105041  0.110632  0  1.022411  0
H  H6  1  0.93495368  0.35372417  0.19042436  1  0  0.099246  0  0.955483  0  0  0.103607  0  1.027187  0  0  0.108335  0  1.0226  0  0  0.089175  0.100324  0  1.030359  0
H  H7  1  0.06504345  0.64627598  0.80957448  1  0  0.099257  0  0.955492  0  0  0.103587  0  1.027224  0  0  0.108314  0  1.02264  0  0  0.089179  0.100307  0  1.030392  0
H  H8  1  0.04136322  0.60542448  0.30722383  1  0  0.094015  0  0.965789  0  0  0.100186  0  1.033104  0  0  0.103663  0  1.03204  0  0  0.092768  0.097724  0  1.034153  0
H  H9  1  0.95863394  0.39457567  0.69277315  1  0  0.094036  0  0.965776  0  0  0.100206  0  1.033087  0  0  0.103683  0  1.032022  0  0  0.09279  0.097745  0  1.034136  0
H  H10  1  0.03539486  0.19218391  0.33014725  1  0  0.096677  0  0.956603  0  0  0.106969  0  1.015783  0  0  0.109878  0  1.015132  0  0  0.094842  0.105134  0  1.01624  0
H  H11  1  0.96460395  0.80781727  0.66985045  1  0  0.096675  0  0.956605  0  0  0.106999  0  1.015746  0  0  0.109908  0  1.015095  0  0  0.09485  0.105162  0  1.016205  0
H  H12  1  0.24326018  0.28202466  0.58988251  1  0  0.112768  0  0.960364  0  0  0.123061  0  1.020604  0  0  0.125818  0  1.019764  0  0  0.100544  0.120678  0  1.021837  0
H  H13  1  0.75673889  0.71797444  0.41011412  1  0  0.112747  0  0.960392  0  0  0.123041  0  1.020643  0  0  0.125798  0  1.019803  0  0  0.100545  0.120661  0  1.021875  0
H  H14  1  0.08450274  0.86015033  0.46171614  1  0  0.108655  0  0.956323  0  0  0.118491  0  1.018462  0  0  0.121441  0  1.017349  0  0  0.103219  0.116189  0  1.019645  0
H  H15  1  0.91549701  0.13984771  0.53828344  1  0  0.108647  0  0.956353  0  0  0.118483  0  1.018483  0  0  0.121428  0  1.017385  0  0  0.103215  0.116182  0  1.019664  0
H  H16  1  0.27990576  0.95701056  0.72327610  1  0  0.099754  0  0.958349  0  0  0.10783  0  1.020814  0  0  0.111867  0  1.018227  0  0  0.09189  0.105118  0  1.022687  0
H  H17  1  0.72009946  0.04299163  0.27672406  1  0  0.099768  0  0.958274  0  0  0.107836  0  1.020738  0  0  0.111874  0  1.01815  0  0  0.091883  0.105125  0  1.02261  0
H  H18  1  0.54959782  0.15907604  0.81105075  1  0  0.099913  0  0.958643  0  0  0.10422  0  1.030282  0  0  0.108966  0  1.025871  0  0  0.087557  0.100959  0  1.033227  0
H  H19  1  0.45040903  0.84092718  0.18895199  1  0  0.099922  0  0.958643  0  0  0.104234  0  1.030271  0  0  0.10898  0  1.025859  0  0  0.087554  0.100974  0  1.033216  0
H  H20  1  0.62463937  0.26798611  0.64006649  1  0  0.096752  0  0.961547  0  0  0.104893  0  1.024167  0  0  0.10813  0  1.023495  0  0  0.097646  0.10259  0  1.024709  0
H  H21  1  0.37536584  0.73201608  0.35993460  1  0  0.096797  0  0.961553  0  0  0.104933  0  1.024175  0  0  0.10817  0  1.023504  0  0  0.097663  0.10263  0  1.024719  0
H  H22  1  0.43084284  0.17101937  0.37789977  1  0  0.114653  0  0.949555  0  0  0.123505  0  1.010955  0  0  0.127101  0  1.009011  0  0  0.101315  0.120669  0  1.012822  0
H  H23  1  0.56915592  0.82897657  0.62210296  1  0  0.114722  0  0.949472  0  0  0.12356  0  1.010854  0  0  0.12716  0  1.008917  0  0  0.101354  0.120723  0  1.012724  0
C  C24  1  0.25895050  0.49472594  0.59305613  1  0  0.291612  0  3.836466  0  0  0.310561  0  4.072098  0  0  0.312802  0  4.093167  0  0  0.098369  0.308621  0  4.057716  0
C  C25  1  0.74105023  0.50527420  0.40694122  1  0  0.291754  0  3.83643  0  0  0.310788  0  4.071938  0  0  0.313022  0  4.09301  0  0  0.098463  0.308845  0  4.057555  0
C  C26  1  0.20275224  0.58698342  0.51314340  1  0  -0.117112  0  3.657107  0  0  -0.139294  0  3.89824  0  0  -0.138867  0  3.917465  0  0  -0.073606  -0.138847  0  3.884767  0
C  C27  1  0.79724443  0.41301569  0.48685422  1  0  -0.117206  0  3.657027  0  0  -0.139413  0  3.898152  0  0  -0.138986  0  3.917372  0  0  -0.073653  -0.138956  0  3.884684  0
C  C28  1  0.08612316  0.53524028  0.36937865  1  0  -0.063336  0  3.761694  0  0  -0.073752  0  4.017143  0  0  -0.078321  0  4.036841  0  0  -0.088103  -0.070943  0  4.003615  0
C  C29  1  0.91387562  0.46476090  0.63062184  1  0  -0.063366  0  3.761738  0  0  -0.073789  0  4.017192  0  0  -0.078351  0  4.036885  0  0  -0.088157  -0.070975  0  4.003662  0
C  C30  1  0.02532788  0.39321666  0.30362343  1  0  -0.01733  0  3.683264  0  0  -0.048104  0  3.951513  0  0  -0.041842  0  3.963187  0  0  -0.080701  -0.051482  0  3.942927  0
C  C31  1  0.97466998  0.60678244  0.69637463  1  0  -0.017342  0  3.683263  0  0  -0.04808  0  3.951515  0  0  -0.041827  0  3.963194  0  0  -0.08069  -0.051466  0  3.942934  0
C  C32  1  0.08144350  0.30223536  0.38271750  1  0  -0.063609  0  3.754861  0  0  -0.075377  0  4.013663  0  0  -0.079516  0  4.032614  0  0  -0.092968  -0.073083  0  4.000687  0
C  C33  1  0.91855533  0.69776583  0.61727927  1  0  -0.063592  0  3.754749  0  0  -0.075384  0  4.013552  0  0  -0.079522  0  4.032503  0  0  -0.092972  -0.073085  0  4.000575  0
C  C34  1  0.19779494  0.35130829  0.52694988  1  0  -0.119524  0  3.640849  0  0  -0.144112  0  3.882794  0  0  -0.142535  0  3.899191  0  0  -0.079626  -0.144038  0  3.871502  0
C  C35  1  0.80220579  0.64869184  0.47304748  1  0  -0.119525  0  3.640777  0  0  -0.144154  0  3.88273  0  0  -0.142571  0  3.899124  0  0  -0.07964  -0.144076  0  3.871438  0
C  C36  1  0.24761844  0.00937925  0.40488133  1  0  0.290153  0  3.83771  0  0  0.308005  0  4.077145  0  0  0.310727  0  4.098635  0  0  0.097052  0.305693  0  4.062894  0
C  C37  1  0.75237893  0.99061880  0.59511830  1  0  0.290241  0  3.837632  0  0  0.308055  0  4.077084  0  0  0.310782  0  4.098571  0  0  0.097024  0.305741  0  4.062838  0
C  C38  1  0.20324030  0.94902366  0.50244341  1  0  -0.131775  0  3.650157  0  0  -0.153399  0  3.891703  0  0  -0.153911  0  3.910059  0  0  -0.081068  -0.152541  0  3.879904  0
C  C39  1  0.79676084  0.05097749  0.49755888  1  0  -0.131781  0  3.650201  0  0  -0.15339  0  3.891745  0  0  -0.153907  0  3.9101  0  0  -0.081047  -0.152531  0  3.879945  0
C  C40  1  0.31238757  0.00362278  0.64755252  1  0  -0.063696  0  3.769326  0  0  -0.076046  0  4.028334  0  0  -0.078968  0  4.046277  0  0  -0.093014  -0.074577  0  4.016547  0
C  C41  1  0.68761762  0.99637940  0.35245043  1  0  -0.063668  0  3.769274  0  0  -0.075993  0  4.028255  0  0  -0.078914  0  4.046199  0  0  -0.092981  -0.074525  0  4.016468  0
C  C42  1  0.46446275  0.11757440  0.69703333  1  0  -0.026797  0  3.683541  0  0  -0.057783  0  3.952856  0  0  -0.052888  0  3.965581  0  0  -0.084526  -0.060456  0  3.943581  0
C  C43  1  0.53553981  0.88242989  0.30296888  1  0  -0.026797  0  3.6835  0  0  -0.057801  0  3.952835  0  0  -0.0529  0  3.965547  0  0  -0.084506  -0.060472  0  3.943561  0
C  C44  1  0.50671233  0.17850389  0.60053414  1  0  -0.065  0  3.757955  0  0  -0.075697  0  4.014583  0  0  -0.080205  0  4.03521  0  0  -0.086592  -0.073059  0  4.000283  0
C  C45  1  0.49329403  0.82149828  0.39947017  1  0  -0.064986  0  3.757928  0  0  -0.075689  0  4.014546  0  0  -0.0802  0  4.035179  0  0  -0.086572  -0.073054  0  4.000246  0
C  C46  1  0.39999510  0.12548136  0.45470725  1  0  -0.112151  0  3.639682  0  0  -0.136282  0  3.883717  0  0  -0.135995  0  3.901663  0  0  -0.075171  -0.13603  0  3.871644  0
C  C47  1  0.60000626  0.87451770  0.54529677  1  0  -0.112346  0  3.63977  0  0  -0.136426  0  3.883772  0  0  -0.136145  0  3.901712  0  0  -0.075248  -0.13618  0  3.871711  0
N  N48  1  0.37163370  0.54666458  0.73415998  1  0  -0.571836  0  2.896654  0  0  -0.585209  0  3.222379  0  0  -0.600134  0  3.238055  0  0  -0.657674  -0.574754  0  3.212753  0
N  N49  1  0.62836581  0.45333555  0.26583880  1  0  -0.571899  0  2.896735  0  0  -0.585286  0  3.222429  0  0  -0.600215  0  3.238106  0  0  -0.65769  -0.574839  0  3.212801  0
N  N50  1  0.14140387  0.95252133  0.26298667  1  0  -0.576747  0  2.897452  0  0  -0.591343  0  3.228738  0  0  -0.606576  0  3.244833  0  0  -0.656632  -0.580475  0  3.218521  0
N  N51  1  0.85859324  0.04747881  0.73701403  1  0  -0.576863  0  2.897383  0  0  -0.591449  0  3.228677  0  0  -0.606676  0  3.244776  0  0  -0.656673  -0.580575  0  3.218469  0
Cl  Cl52  1  0.44572672  0.81807325  0.91401737  1  0  -0.357285  0  1.000463  0  0  -0.351639  0  1.240291  0  0  -0.378718  0  1.23154  0  0  -0.222362  -0.334005  0  1.249305  0
Cl  Cl53  1  0.55427234  0.18192584  0.08598020  1  0  -0.357284  0  1.000477  0  0  -0.351632  0  1.240306  0  0  -0.378716  0  1.231556  0  0  -0.222363  -0.334001  0  1.249311  0
Cl  Cl54  1  0.37298372  0.54848560  0.03165872  1  0  -0.443968  0  1.229265  0  0  -0.442239  0  1.499196  0  0  -0.467894  0  1.49194  0  0  -0.222624  -0.422956  0  1.505176  0
Cl  Cl55  1  0.62701416  0.45151351  0.96833749  1  0  -0.443955  0  1.229261  0  0  -0.442238  0  1.499216  0  0  -0.467893  0  1.49196  0  0  -0.222621  -0.422954  0  1.505194  0
Cl  Cl56  1  0.72851895  0.71321411  0.83845447  1  0  -0.440269  0  1.187643  0  0  -0.437032  0  1.447501  0  0  -0.46862  0  1.442353  0  0  -0.212134  -0.414472  0  1.452304  0
Cl  Cl57  1  0.27148174  0.28678601  0.16154567  1  0  -0.440275  0  1.187684  0  0  -0.437043  0  1.447549  0  0  -0.468627  0  1.442401  0  0  -0.212135  -0.414485  0  1.452351  0
Cl  Cl58  1  0.78759177  0.77585911  0.16256588  1  0  -0.446921  0  1.196526  0  0  -0.44982  0  1.475883  0  0  -0.48023  0  1.470545  0  0  -0.211258  -0.427828  0  1.480415  0
Cl  Cl59  1  0.21240344  0.22413686  0.83743462  1  0  -0.446936  0  1.196538  0  0  -0.449832  0  1.475878  0  0  -0.480235  0  1.470555  0  0  -0.211272  -0.427837  0  1.480414  0
Cl  Cl60  1  0.07608530  0.68469935  0.08318146  1  0  -0.347476  0  1.029236  0  0  -0.340964  0  1.272116  0  0  -0.368075  0  1.263287  0  0  -0.211744  -0.323045  0  1.281404  0
Cl  Cl61  1  0.92391610  0.31529972  0.91681977  1  0  -0.347502  0  1.029232  0  0  -0.340971  0  1.272086  0  0  -0.368071  0  1.263263  0  0  -0.211739  -0.323046  0  1.281383  0
Cl  Cl62  1  0.87299250  0.04258562  0.03705914  1  0  -0.449905  0  1.242693  0  0  -0.450765  0  1.519688  0  0  -0.476016  0  1.512792  0  0  -0.220538  -0.431648  0  1.525511  0
Cl  Cl63  1  0.12700459  0.95741451  0.96294249  1  0  -0.449911  0  1.242761  0  0  -0.450757  0  1.519734  0  0  -0.476008  0  1.512839  0  0  -0.220527  -0.431639  0  1.525556  0
