# generated using pymatgen
data_CdH7C12(NO2)3
_symmetry_space_group_name_H-M   'P 1'
_cell_length_a   7.51632783
_cell_length_b   13.83533598
_cell_length_c   21.21513527
_cell_angle_alpha   90.00639926
_cell_angle_beta   87.55151614
_cell_angle_gamma   90.45053244
_symmetry_Int_Tables_number   1
_chemical_formula_structural   CdH7C12(NO2)3
_chemical_formula_sum   'Cd4 H28 C48 N12 O24'
_cell_volume   2204.09909352
_cell_formula_units_Z   4
loop_
 _symmetry_equiv_pos_site_id
 _symmetry_equiv_pos_as_xyz
  1  'x, y, z'
loop_
 _atom_site_type_symbol
 _atom_site_label
 _atom_site_symmetry_multiplicity
 _atom_site_fract_x
 _atom_site_fract_y
 _atom_site_fract_z
 _atom_site_occupancy
 _atom_site_pbe_bader_charge
 _atom_site_pbe_bader_spin_density
 _atom_site_pbe_cm5_charge
 _atom_site_pbe_ddec_charge
 _atom_site_pbe_ddec_spin_density
 _atom_site_pbe_ddec_sum_bond_order
 _atom_site_pbe_magmom
Cd  Cd0  1  0.47381797  0.10629821  0.06416191  1  1.291765  0  0.774746  0.880288  0  2.21065  0
Cd  Cd1  1  0.48620627  0.89369816  0.93638625  1  1.292434  0  0.775773  0.885105  0  2.206319  0
Cd  Cd2  1  0.46062758  0.60498748  0.43527024  1  1.292255  0  0.778072  0.887125  0  2.216986  0
Cd  Cd3  1  0.51044935  0.39451096  0.56467418  1  1.292909  0  0.776942  0.885206  0  2.214297  0
H  H4  1  0.80230279  0.22674685  0.01781923  1  0.175015  0  0.134976  0.122103  0  0.974768  0
H  H5  1  0.80771625  0.96297884  0.11086738  1  0.120992  0  0.130213  0.108279  0  0.977666  0
H  H6  1  0.81186740  0.76816339  0.97997746  1  0.150599  0  0.134398  0.12065  0  0.977753  0
H  H7  1  0.82129081  0.03550375  0.89126573  1  0.136298  0  0.13152  0.110902  0  0.971527  0
H  H8  1  0.11895676  0.72435857  0.48715728  1  0.152962  0  0.133913  0.120081  0  0.97348  0
H  H9  1  0.14137269  0.46690339  0.38735152  1  0.134533  0  0.130437  0.111627  0  0.981415  0
H  H10  1  0.18082316  0.26992416  0.51620741  1  0.130372  0  0.136562  0.115846  0  0.956965  0
H  H11  1  0.17986560  0.52695903  0.61744045  1  0.147241  0  0.131613  0.110283  0  0.97396  0
H  H12  1  0.15269687  0.76833674  0.97735735  1  0.131043  0  0.138559  0.120839  0  0.952882  0
H  H13  1  0.16026987  0.03984398  0.89437289  1  0.109965  0  0.129013  0.107288  0  0.988775  0
H  H14  1  0.14301210  0.23335721  0.01680726  1  0.15221  0  0.137078  0.118006  0  0.958112  0
H  H15  1  0.14673861  0.97121708  0.11170172  1  0.143186  0  0.132365  0.114751  0  0.975809  0
H  H16  1  0.84075250  0.27462241  0.51495948  1  0.15589  0  0.134965  0.122571  0  0.972963  0
H  H17  1  0.84223002  0.53541491  0.61111474  1  0.151212  0  0.130147  0.109809  0  0.982459  0
H  H18  1  0.77993005  0.72436643  0.48117781  1  0.130586  0  0.13709  0.118673  0  0.95544  0
H  H19  1  0.80277199  0.46425091  0.38336173  1  0.120488  0  0.130844  0.109323  0  0.975261  0
H  H20  1  0.60273349  0.17278192  0.39658060  1  0.144683  0  0.118401  0.136158  0  0.989554  0
H  H21  1  0.42919771  0.44364527  0.32030276  1  0.14212  0  0.105708  0.121806  0  1.038617  0
H  H22  1  0.43661026  0.37060189  0.21287580  1  0.119664  0  0.113363  0.130441  0  0.989087  0
H  H23  1  0.35585305  0.82484355  0.60364230  1  0.134877  0  0.118001  0.135073  0  0.991408  0
H  H24  1  0.55581026  0.55954701  0.67932965  1  0.131918  0  0.104329  0.11673  0  1.039748  0
H  H25  1  0.54921548  0.63293758  0.78636805  1  0.149177  0  0.109426  0.123385  0  1.017689  0
H  H26  1  0.59660184  0.66898392  0.10078432  1  0.140181  0  0.118047  0.135299  0  0.991035  0
H  H27  1  0.43530957  0.94378022  0.17989531  1  0.147638  0  0.104811  0.121186  0  1.04241  0
H  H28  1  0.44357356  0.87339668  0.28776394  1  0.136293  0  0.112911  0.127382  0  0.993911  0
H  H29  1  0.61052922  0.33094199  0.89779620  1  0.153624  0  0.118568  0.135327  0  0.990279  0
H  H30  1  0.43084845  0.05906116  0.82244058  1  0.159453  0  0.104442  0.115641  0  1.039877  0
H  H31  1  0.44228716  0.13058260  0.71480556  1  0.138341  0  0.109736  0.123287  0  1.015425  0
C  C32  1  0.88133909  0.16929430  0.03764057  1  0.448226  0  0.068612  0.05882  0  3.893949  0
C  C33  1  0.88330428  0.02293886  0.08933106  1  0.514199  0  0.069551  0.064091  0  3.893721  0
C  C34  1  0.89162699  0.82797285  0.96031037  1  0.451045  0  0.067148  0.052786  0  3.895152  0
C  C35  1  0.89607568  0.97707769  0.91196210  1  0.540784  0  0.069377  0.062887  0  3.893493  0
C  C36  1  0.04609351  0.66698086  0.46386091  1  0.46913  0  0.066121  0.047729  0  3.903291  0
C  C37  1  0.05887343  0.52351715  0.40883354  1  0.551301  0  0.069355  0.065991  0  3.882985  0
C  C38  1  0.10402695  0.32876166  0.53779333  1  0.534224  0  0.068756  0.057233  0  3.899951  0
C  C39  1  0.10406598  0.47187286  0.59311163  1  0.509739  0  0.071003  0.066591  0  3.879303  0
C  C40  1  0.07697752  0.82897955  0.95989935  1  0.559707  0  0.071551  0.060183  0  3.896388  0
C  C41  1  0.08145141  0.97902197  0.91301292  1  0.515148  0  0.068979  0.064618  0  3.892322  0
C  C42  1  0.06661639  0.17310892  0.03763887  1  0.551919  0  0.069083  0.051765  0  3.902268  0
C  C43  1  0.06866478  0.02735071  0.09003075  1  0.527423  0  0.070386  0.066357  0  3.876934  0
C  C44  1  0.91902281  0.33144257  0.53657325  1  0.486943  0  0.0692  0.055553  0  3.898045  0
C  C45  1  0.91917484  0.47596195  0.59045413  1  0.485192  0  0.069736  0.066095  0  3.887762  0
C  C46  1  0.86131197  0.66599979  0.46130537  1  0.551424  0  0.070778  0.065011  0  3.893658  0
C  C47  1  0.87359288  0.52218234  0.40687442  1  0.495751  0  0.070612  0.06514  0  3.885294  0
C  C48  1  0.52243906  0.23184125  0.24362826  1  0.033992  0  0.00824  -0.029219  0  3.905393  0
C  C49  1  0.57376175  0.17862675  0.29604375  1  0.224165  0  0.08204  0.051217  0  3.922785  0
C  C50  1  0.56584156  0.21652982  0.35664689  1  0.002211  0  -0.074501  -0.140434  0  3.947033  0
C  C51  1  0.51016305  0.31204880  0.36589098  1  -0.090794  0  -0.023028  -0.038919  0  4.002404  0
C  C52  1  0.46588702  0.36812665  0.31384125  1  0.023159  0  -0.07729  -0.085908  0  3.933985  0
C  C53  1  0.47119129  0.32782638  0.25360210  1  -0.054726  0  -0.07155  -0.078078  0  3.923646  0
C  C54  1  0.50554514  0.18870198  0.17920179  1  1.599251  0  0.185606  0.557661  0  4.261602  0
C  C55  1  0.49771790  0.35188690  0.43148165  1  1.553704  0  0.195975  0.558734  0  4.245401  0
C  C56  1  0.44559029  0.76888315  0.75635810  1  0.039514  0  0.008218  -0.026552  0  3.900063  0
C  C57  1  0.38878964  0.82042950  0.70399165  1  0.161331  0  0.08262  0.048715  0  3.92172  0
C  C58  1  0.39763073  0.78226310  0.64342207  1  0.030358  0  -0.07305  -0.136867  0  3.946884  0
C  C59  1  0.46018238  0.68806393  0.63409953  1  0.006479  0  -0.022966  -0.041708  0  3.998278  0
C  C60  1  0.51236534  0.63394556  0.68599743  1  -0.054163  0  -0.074463  -0.075614  0  3.922013  0
C  C61  1  0.50603765  0.67445907  0.74619766  1  -0.00101  0  -0.072715  -0.078639  0  3.911483  0
C  C62  1  0.45863435  0.81212710  0.82099571  1  1.583807  0  0.186081  0.560335  0  4.257478  0
C  C63  1  0.47157129  0.64726375  0.56871629  1  1.533334  0  0.198016  0.564928  0  4.236655  0
C  C64  1  0.52514591  0.73327191  0.25570982  1  0.055823  0  0.007381  -0.029416  0  3.905052  0
C  C65  1  0.57390736  0.67834289  0.20217966  1  0.20106  0  0.082788  0.050694  0  3.926169  0
C  C66  1  0.56357455  0.71439445  0.14144586  1  0.013123  0  -0.074482  -0.139265  0  3.947814  0
C  C67  1  0.51007549  0.81016946  0.13298345  1  -0.046868  0  -0.022175  -0.039448  0  4.002138  0
C  C68  1  0.47080274  0.86823436  0.18587362  1  0.003049  0  -0.076691  -0.082898  0  3.928468  0
C  C69  1  0.47675140  0.82944720  0.24639499  1  -0.095059  0  -0.071583  -0.077046  0  3.922338  0
C  C70  1  0.50463838  0.69057613  0.32071203  1  1.593918  0  0.186303  0.560398  0  4.255639  0
C  C71  1  0.49316567  0.84732658  0.06731604  1  1.541346  0  0.196372  0.56181  0  4.232759  0
C  C72  1  0.54103860  0.26842788  0.74447846  1  0.033074  0  0.007896  -0.028918  0  3.902565  0
C  C73  1  0.59255964  0.32218205  0.79687619  1  0.179552  0  0.083152  0.050982  0  3.925001  0
C  C74  1  0.57570601  0.28625044  0.85787623  1  0.004911  0  -0.07318  -0.138606  0  3.949208  0
C  C75  1  0.51506993  0.19121061  0.86756419  1  0.036703  0  -0.022855  -0.039698  0  4.003929  0
C  C76  1  0.47184167  0.13419892  0.81565952  1  -0.162968  0  -0.074883  -0.076887  0  3.923447  0
C  C77  1  0.48186351  0.17341719  0.75503370  1  0.036086  0  -0.071557  -0.075491  0  3.907642  0
C  C78  1  0.53130673  0.31115623  0.67964727  1  1.586375  0  0.18455  0.557807  0  4.261448  0
C  C79  1  0.49579795  0.15403600  0.93367112  1  1.51888  0  0.19551  0.558328  0  4.237248  0
N  N80  1  0.79124921  0.09320052  0.06240001  1  -1.214607  0  -0.297277  -0.187578  0  3.479219  0
N  N81  1  0.80238412  0.90252891  0.93681057  1  -1.202468  0  -0.299372  -0.187152  0  3.485672  0
N  N82  1  0.14343147  0.59517463  0.43804029  1  -1.215898  0  -0.299775  -0.185695  0  3.483863  0
N  N83  1  0.19537269  0.39923785  0.56576010  1  -1.208307  0  -0.297757  -0.181937  0  3.490435  0
N  N84  1  0.17030947  0.90542936  0.93753871  1  -1.195421  0  -0.296867  -0.178527  0  3.47932  0
N  N85  1  0.15902934  0.10165967  0.06327916  1  -1.222786  0  -0.297555  -0.179044  0  3.482888  0
N  N86  1  0.82832344  0.40611993  0.56184807  1  -1.197237  0  -0.29732  -0.182475  0  3.470778  0
N  N87  1  0.77616070  0.59285074  0.43372167  1  -1.194818  0  -0.296636  -0.180128  0  3.484221  0
N  N88  1  0.64702301  0.08069237  0.28823413  1  0.379307  0  0.060441  0.526704  0  4.203846  0
N  N89  1  0.30986144  0.91693168  0.71183522  1  0.378872  0  0.060474  0.526803  0  4.198804  0
N  N90  1  0.64570015  0.58021597  0.20870157  1  0.354681  0  0.057755  0.523507  0  4.206022  0
N  N91  1  0.67473458  0.41860800  0.78886902  1  0.401884  0  0.060929  0.528394  0  4.201633  0
O  O92  1  0.43826369  0.10370454  0.17587423  1  -1.157574  0  -0.342411  -0.570915  0  2.19141  0
O  O93  1  0.55090506  0.23975784  0.13153962  1  -1.145621  0  -0.331439  -0.536299  0  2.122446  0
O  O94  1  0.75588234  0.06729236  0.24354564  1  -0.46346  0  -0.141192  -0.345579  0  1.901441  0
O  O95  1  0.34869964  0.97823201  0.67073624  1  -0.454984  0  -0.129635  -0.331214  0  1.884879  0
O  O96  1  0.59749823  0.51809732  0.17079383  1  -0.436595  0  -0.127773  -0.328599  0  1.891228  0
O  O97  1  0.63147887  0.48139676  0.82823414  1  -0.462796  0  -0.127725  -0.329595  0  1.889415  0
O  O98  1  0.52295459  0.89761490  0.82493975  1  -1.159421  0  -0.343373  -0.568859  0  2.177299  0
O  O99  1  0.41279067  0.76019635  0.86827588  1  -1.146359  0  -0.334818  -0.543209  0  2.114827  0
O  O100  1  0.20605660  0.92995786  0.75803987  1  -0.462122  0  -0.138888  -0.344004  0  1.906461  0
O  O101  1  0.59966680  0.01919917  0.32811570  1  -0.436155  0  -0.127967  -0.329082  0  1.889514  0
O  O102  1  0.47335049  0.39757130  0.67570089  1  -1.156527  0  -0.342935  -0.57061  0  2.191688  0
O  O103  1  0.57326283  0.25889836  0.63235527  1  -1.147253  0  -0.334886  -0.540263  0  2.109672  0
O  O104  1  0.78612054  0.42974780  0.74457765  1  -0.463215  0  -0.13958  -0.345368  0  1.905846  0
O  O105  1  0.43570907  0.60574688  0.32515733  1  -1.151648  0  -0.342476  -0.571129  0  2.199787  0
O  O106  1  0.54737239  0.74098674  0.36760544  1  -1.147923  0  -0.33382  -0.541973  0  2.112014  0
O  O107  1  0.75434674  0.56732248  0.25022659  1  -0.437581  0  -0.140346  -0.343429  0  1.896174  0
O  O108  1  0.43615153  0.43658414  0.44102683  1  -1.202957  0  -0.343731  -0.607457  0  2.370289  0
O  O109  1  0.54580072  0.29793306  0.47642767  1  -1.156215  0  -0.325317  -0.542027  0  2.218813  0
O  O110  1  0.53747929  0.56349504  0.55942677  1  -1.20187  0  -0.343994  -0.60894  0  2.363113  0
O  O111  1  0.41797435  0.69963248  0.52381109  1  -1.158934  0  -0.326965  -0.546262  0  2.218223  0
O  O112  1  0.45253442  0.93571492  0.05807208  1  -1.203098  0  -0.344275  -0.605342  0  2.357569  0
O  O113  1  0.51718265  0.78837343  0.02160072  1  -1.157849  0  -0.32567  -0.542117  0  2.195078  0
O  O114  1  0.46732890  0.06392460  0.94382595  1  -1.197124  0  -0.343612  -0.604801  0  2.369069  0
O  O115  1  0.50594362  0.21430487  0.97882502  1  -1.14761  0  -0.325205  -0.53912  0  2.186243  0
