# generated using pymatgen
data_CdH24C32(NO3)2
_symmetry_space_group_name_H-M   'P 1'
_cell_length_a   9.54290628
_cell_length_b   12.44526250
_cell_length_c   15.49074525
_cell_angle_alpha   110.31339127
_cell_angle_beta   115.78328792
_cell_angle_gamma   97.81886438
_symmetry_Int_Tables_number   1
_chemical_formula_structural   CdH24C32(NO3)2
_chemical_formula_sum   'Cd2 H48 C64 N4 O12'
_cell_volume   1461.05389602
_cell_formula_units_Z   2
loop_
 _symmetry_equiv_pos_site_id
 _symmetry_equiv_pos_as_xyz
  1  'x, y, z'
loop_
 _atom_site_type_symbol
 _atom_site_label
 _atom_site_symmetry_multiplicity
 _atom_site_fract_x
 _atom_site_fract_y
 _atom_site_fract_z
 _atom_site_occupancy
 _atom_site_pbe_bader_charge
 _atom_site_pbe_bader_spin_density
 _atom_site_pbe_cm5_charge
 _atom_site_pbe_ddec_charge
 _atom_site_pbe_ddec_spin_density
 _atom_site_pbe_ddec_sum_bond_order
 _atom_site_pbe_magmom
Cd  Cd0  1  0.56140015  0.05118615  0.16792392  1  1.271369  0  0.770024  0.887302  0  2.129932  0
Cd  Cd1  1  0.43859237  0.94880581  0.83205065  1  1.271475  0  0.769997  0.887249  0  2.130161  0
H  H2  1  0.11462759  0.88082807  0.23345203  1  0.094557  0  0.098795  0.093908  0  1.037234  0
H  H3  1  0.88537740  0.11917401  0.76656942  1  0.094934  0  0.098836  0.093933  0  1.037194  0
H  H4  1  0.75090821  0.99403574  0.48844987  1  0.073759  0  0.104062  0.109658  0  0.995688  0
H  H5  1  0.24909604  0.00601070  0.51155227  1  0.073348  0  0.10396  0.109575  0  0.995615  0
H  H6  1  0.94788181  0.86073822  0.82112593  1  0.095398  0  0.10028  0.100078  0  1.024365  0
H  H7  1  0.05209006  0.13924501  0.17881724  1  0.095646  0  0.100486  0.100384  0  1.024333  0
H  H8  1  0.45793146  0.77464355  0.99408992  1  0.157538  0  0.113778  0.099124  0  1.03234  0
H  H9  1  0.54205918  0.22534540  0.00590101  1  0.157688  0  0.113755  0.099094  0  1.032413  0
H  H10  1  0.86677289  0.24870984  0.21463596  1  0.101964  0  0.113453  0.086484  0  1.03998  0
H  H11  1  0.13322783  0.75127832  0.78535696  1  0.102008  0  0.1135  0.086614  0  1.039892  0
H  H12  1  0.90513882  0.85630048  0.28223147  1  0.085871  0  0.106796  0.119743  0  1.008507  0
H  H13  1  0.09486741  0.14369624  0.71778952  1  0.085617  0  0.106778  0.11982  0  1.008404  0
H  H14  1  0.14088809  0.33263354  0.29919693  1  0.064934  0  0.103367  0.10271  0  1.010848  0
H  H15  1  0.85914096  0.66736788  0.70082958  1  0.065338  0  0.103383  0.102748  0  1.010908  0
H  H16  1  0.29367468  0.06537399  0.38278182  1  0.083276  0  0.104842  0.111402  0  1.000319  0
H  H17  1  0.70631386  0.93464524  0.61720083  1  0.083627  0  0.10484  0.111339  0  1.000361  0
H  H18  1  0.22858785  0.93022386  0.15222798  1  0.136152  0  0.111376  0.088474  0  1.056331  0
H  H19  1  0.77141355  0.06978375  0.84776488  1  0.136436  0  0.111385  0.088483  0  1.056312  0
H  H20  1  0.27047323  0.16752209  0.13194390  1  0.107275  0  0.102753  0.103361  0  1.020212  0
H  H21  1  0.72951567  0.83245205  0.86800842  1  0.108536  0  0.102799  0.103617  0  1.020207  0
H  H22  1  0.24724085  0.56659900  0.90414606  1  0.076387  0  0.106583  0.112042  0  1.005922  0
H  H23  1  0.75276259  0.43339356  0.09586742  1  0.076589  0  0.106584  0.112033  0  1.006  0
H  H24  1  0.54019333  0.29461377  0.32015894  1  0.126872  0  0.114605  0.092621  0  1.022274  0
H  H25  1  0.45976965  0.70536294  0.67980011  1  0.125914  0  0.114547  0.092508  0  1.022248  0
H  H26  1  0.57704119  0.54353914  0.97133402  1  0.095417  0  0.106055  0.121382  0  1.030499  0
H  H27  1  0.42295858  0.45647640  0.02867870  1  0.096285  0  0.106039  0.12141  0  1.030519  0
H  H28  1  0.91618537  0.61507547  0.40796194  1  0.073948  0  0.109518  0.109095  0  0.9872  0
H  H29  1  0.08381396  0.38490940  0.59204412  1  0.073694  0  0.109512  0.109055  0  0.987225  0
H  H30  1  0.78636191  0.57159597  0.92215573  1  0.098293  0  0.096609  0.092963  0  1.056375  0
H  H31  1  0.21362881  0.42841959  0.07785633  1  0.098479  0  0.096601  0.092914  0  1.056426  0
H  H32  1  0.00831418  0.65125035  0.30241570  1  0.077689  0  0.095913  0.088991  0  1.037611  0
H  H33  1  0.99166248  0.34872421  0.69757111  1  0.07756  0  0.095947  0.089051  0  1.037506  0
H  H34  1  0.01705571  0.54303953  0.93883761  1  0.077699  0  0.103375  0.102217  0  1.025283  0
H  H35  1  0.98295800  0.45695772  0.06117995  1  0.077791  0  0.103366  0.102173  0  1.025252  0
H  H36  1  0.49437401  0.79028241  0.32998703  1  0.089058  0  0.102994  0.072873  0  1.022508  0
H  H37  1  0.50562567  0.20972991  0.67003979  1  0.089164  0  0.103013  0.072864  0  1.022379  0
H  H38  1  0.37346578  0.70924726  0.18611822  1  0.092368  0  0.102557  0.072056  0  1.024136  0
H  H39  1  0.62653428  0.29076179  0.81391174  1  0.092714  0  0.102586  0.071942  0  1.024266  0
H  H40  1  0.66916367  0.52397260  0.41120901  1  0.092675  0  0.109838  0.115443  0  0.99393  0
H  H41  1  0.33081924  0.47600711  0.58877657  1  0.094252  0  0.109881  0.11548  0  0.99409  0
H  H42  1  0.66918123  0.84261305  0.27278491  1  0.119023  0  0.108098  0.092691  0  1.023849  0
H  H43  1  0.33082138  0.15739783  0.72723569  1  0.11898  0  0.10812  0.092644  0  1.023852  0
H  H44  1  0.73673412  0.73567833  0.32042515  1  0.045363  0  0.102532  0.06973  0  0.978769  0
H  H45  1  0.26326569  0.26433405  0.67960237  1  0.045103  0  0.102536  0.069752  0  0.978929  0
H  H46  1  0.36617753  0.40422135  0.27198686  1  0.072929  0  0.105909  0.11661  0  1.025029  0
H  H47  1  0.63387883  0.59579905  0.72806733  1  0.07343  0  0.105904  0.116641  0  1.025038  0
H  H48  1  0.23660543  0.72579908  0.28296993  1  0.073593  0  0.100946  0.108598  0  1.052601  0
H  H49  1  0.76339239  0.27419104  0.71703521  1  0.07326  0  0.100993  0.108643  0  1.052561  0
C  C50  1  0.99703281  0.80645534  0.17499671  1  -0.118362  0  -0.087186  -0.094616  0  3.990734  0
C  C51  1  0.00297321  0.19354816  0.82502078  1  -0.118333  0  -0.087147  -0.094446  0  3.990676  0
C  C52  1  0.12220467  0.01528150  0.97372618  1  -0.030325  0  -0.017492  -0.037767  0  3.974757  0
C  C53  1  0.87778431  0.98468653  0.02622720  1  -0.030529  0  -0.017593  -0.037382  0  3.97383  0
C  C54  1  0.25708497  0.02566923  0.94868032  1  1.579261  0  0.204793  0.577321  0  4.205911  0
C  C55  1  0.74289511  0.97430380  0.05126851  1  1.578946  0  0.204152  0.576412  0  4.206876  0
C  C56  1  0.91530078  0.43999750  0.31205857  1  -0.023999  0  -0.003032  0.027553  0  4.012341  0
C  C57  1  0.08469489  0.55998823  0.68793653  1  -0.023951  0  -0.003056  0.027468  0  4.012126  0
C  C58  1  0.64179865  0.99663882  0.49468887  1  -0.101117  0  -0.087265  -0.101747  0  3.990935  0
C  C59  1  0.35820137  0.00339841  0.50530869  1  -0.101478  0  -0.087174  -0.101597  0  3.990913  0
C  C60  1  0.96951252  0.92095862  0.89942304  1  -0.006216  0  -0.083767  -0.08998  0  3.961992  0
C  C61  1  0.03047312  0.07901362  0.10052744  1  -0.004293  0  -0.083932  -0.090492  0  3.961941  0
C  C62  1  0.72818362  0.69482128  0.13145627  1  0.42302  0  0.082405  0.250286  0  4.066845  0
C  C63  1  0.27181804  0.30518427  0.86856405  1  0.423992  0  0.082578  0.250614  0  4.066581  0
C  C64  1  0.52464377  0.03274377  0.42826426  1  0.01403  0  -0.017418  -0.023849  0  3.968295  0
C  C65  1  0.47535910  0.96729519  0.57173306  1  0.013104  0  -0.017211  -0.023541  0  3.968148  0
C  C66  1  0.54404183  0.05823698  0.34540128  1  1.543422  0  0.186486  0.548031  0  4.247015  0
C  C67  1  0.45598250  0.94180045  0.65460096  1  1.543298  0  0.186566  0.548097  0  4.246897  0
C  C68  1  0.35645633  0.75959195  0.00838682  1  0.425331  0  0.037002  0.07628  0  3.941106  0
C  C69  1  0.64354086  0.24040206  0.99161202  1  0.425037  0  0.037097  0.076414  0  3.940821  0
C  C70  1  0.05710260  0.48672945  0.30398500  1  -0.038292  0  -0.022738  0.030696  0  4.050584  0
C  C71  1  0.94290062  0.51325784  0.69601863  1  -0.037798  0  -0.022558  0.03102  0  4.050384  0
C  C72  1  0.10078567  0.73521614  0.04876595  1  0.007518  0  -0.006081  0.022473  0  4.005065  0
C  C73  1  0.89921851  0.26478852  0.95124429  1  0.008213  0  -0.006142  0.022451  0  4.005223  0
C  C74  1  0.83044440  0.31401321  0.26125512  1  0.532689  0  0.046155  0.037954  0  3.908467  0
C  C75  1  0.16954683  0.68597354  0.73873083  1  0.533411  0  0.046105  0.037893  0  3.908438  0
C  C76  1  0.97012173  0.72601291  0.07519229  1  0.039597  0  -0.024853  0.030204  0  4.039264  0
C  C77  1  0.02988394  0.27399658  0.92482276  1  0.03869  0  -0.025101  0.029794  0  4.039566  0
C  C78  1  0.87868468  0.79201879  0.20377610  1  -0.025378  0  -0.109146  -0.215172  0  4.009233  0
C  C79  1  0.12132260  0.20798133  0.79624340  1  -0.025348  0  -0.109104  -0.215325  0  4.009204  0
C  C80  1  0.16070438  0.41854074  0.29490336  1  -0.032999  0  -0.089134  -0.108108  0  4.003759  0
C  C81  1  0.83931659  0.58145670  0.70511712  1  -0.034196  0  -0.089268  -0.108353  0  4.003793  0
C  C82  1  0.38290021  0.03630171  0.43446052  1  -0.027843  0  -0.088513  -0.10772  0  3.988412  0
C  C83  1  0.61709520  0.96372885  0.56553108  1  -0.028021  0  -0.08865  -0.107759  0  3.988395  0
C  C84  1  0.22665045  0.84655368  0.09660659  1  0.470245  0  0.040769  0.032034  0  3.917607  0
C  C85  1  0.77335276  0.15345006  0.90339282  1  0.470082  0  0.040813  0.032056  0  3.917677  0
C  C86  1  0.15139874  0.09476620  0.07440688  1  -0.109798  0  -0.083628  -0.089295  0  3.970923  0
C  C87  1  0.84859283  0.90520197  0.92554840  1  -0.109966  0  -0.083575  -0.089757  0  3.970934  0
C  C88  1  0.23747845  0.64537212  0.95759488  1  -0.0251  0  -0.084343  -0.116686  0  4.006705  0
C  C89  1  0.76252060  0.35462344  0.04241192  1  -0.025143  0  -0.084388  -0.116792  0  4.006598  0
C  C90  1  0.64451685  0.33993685  0.31839655  1  0.463366  0  0.040897  0.074728  0  3.94621  0
C  C91  1  0.35545710  0.66004536  0.68157603  1  0.464926  0  0.041051  0.075108  0  3.946134  0
C  C92  1  0.69538753  0.61723696  0.02899705  1  -0.045266  0  -0.103848  -0.195339  0  3.983842  0
C  C93  1  0.30461287  0.38277542  0.97102020  1  -0.046394  0  -0.104051  -0.195828  0  3.984106  0
C  C94  1  0.85471826  0.51653130  0.36665705  1  -0.04199  0  -0.068525  -0.084422  0  3.939996  0
C  C95  1  0.14527455  0.48345271  0.63333828  1  -0.041358  0  -0.068624  -0.084427  0  3.939898  0
C  C96  1  0.81505248  0.63285591  0.00216710  1  -0.062085  0  -0.089406  -0.098208  0  3.981152  0
C  C97  1  0.18494676  0.36715719  0.99784813  1  -0.062715  0  -0.089212  -0.097739  0  3.981196  0
C  C98  1  0.08912976  0.59764446  0.29982669  1  -0.032308  0  -0.086963  -0.092454  0  3.985275  0
C  C99  1  0.91086192  0.40234078  0.70017261  1  -0.032151  0  -0.087024  -0.092717  0  3.985326  0
C  C100  1  0.10896550  0.63278382  0.97737938  1  -0.037419  0  -0.069473  -0.085133  0  3.937973  0
C  C101  1  0.89103942  0.36721576  0.02263362  1  -0.037892  0  -0.069445  -0.085012  0  3.937726  0
C  C102  1  0.47912226  0.71603392  0.25863203  1  0.354799  0  -0.06984  0.0011  0  3.886735  0
C  C103  1  0.52088454  0.28397854  0.74139702  1  0.355289  0  -0.069862  0.00137  0  3.886611  0
C  C104  1  0.71838253  0.46616597  0.36964048  1  -0.060898  0  -0.083867  -0.120218  0  4.008312  0
C  C105  1  0.28160130  0.53381635  0.63034468  1  -0.063455  0  -0.08394  -0.120388  0  4.008495  0
C  C106  1  0.31982340  0.57049499  0.27797933  1  0.395722  0  0.081042  0.248908  0  4.070253  0
C  C107  1  0.68019755  0.42951032  0.72205031  1  0.395137  0  0.08102  0.248778  0  4.069877  0
C  C108  1  0.63565233  0.74660587  0.25695719  1  0.405357  0  -0.068703  -0.013263  0  3.906218  0
C  C109  1  0.36435134  0.25340621  0.74306719  1  0.405221  0  -0.068739  -0.013258  0  3.906386  0
C  C110  1  0.28894934  0.45873054  0.28127553  1  0.027487  0  -0.105091  -0.199689  0  4.002437  0
C  C111  1  0.71108432  0.54127682  0.71875869  1  0.027402  0  -0.105033  -0.19965  0  4.002307  0
C  C112  1  0.21855379  0.64009657  0.28729565  1  -0.018698  0  -0.110649  -0.217173  0  4.005837  0
C  C113  1  0.78144862  0.35989677  0.71271650  1  -0.018465  0  -0.110675  -0.217006  0  4.005717  0
N  N114  1  0.35089063  0.85866533  0.07722938  1  -1.241682  0  -0.328631  -0.241407  0  3.512277  0
N  N115  1  0.64911097  0.14133206  0.92276804  1  -1.241531  0  -0.328684  -0.241442  0  3.512181  0
N  N116  1  0.69971901  0.26549088  0.26456891  1  -1.23513  0  -0.323386  -0.217338  0  3.502655  0
N  N117  1  0.30026079  0.73449410  0.73540566  1  -1.235956  0  -0.32338  -0.217508  0  3.502677  0
O  O118  1  0.21732340  0.96473808  0.85106218  1  -1.154616  0  -0.326672  -0.539671  0  2.238264  0
O  O119  1  0.78264339  0.03525572  0.14888000  1  -1.155075  0  -0.326576  -0.539591  0  2.238232  0
O  O120  1  0.65739199  0.03047632  0.32859325  1  -1.16129  0  -0.343126  -0.568919  0  2.188683  0
O  O121  1  0.34265560  0.96957782  0.67143066  1  -1.16081  0  -0.343213  -0.569021  0  2.188659  0
O  O122  1  0.44259365  0.09955769  0.29208478  1  -1.183876  0  -0.334481  -0.575307  0  2.187592  0
O  O123  1  0.55741693  0.90045583  0.70789534  1  -1.183623  0  -0.334461  -0.575337  0  2.187772  0
O  O124  1  0.40466216  0.09200636  0.02552733  1  -1.202133  0  -0.335998  -0.587322  0  2.317923  0
O  O125  1  0.59532498  0.90794639  0.97442303  1  -1.201674  0  -0.33558  -0.586742  0  2.318667  0
O  O126  1  0.60734624  0.66802503  0.15339548  1  -1.079709  0  -0.179029  -0.203194  0  2.560453  0
O  O127  1  0.39265881  0.33198175  0.84662914  1  -1.080113  0  -0.179008  -0.203287  0  2.560377  0
O  O128  1  0.44879373  0.60291991  0.26436511  1  -1.069574  0  -0.182309  -0.203054  0  2.52153  0
O  O129  1  0.55122797  0.39709457  0.73566835  1  -1.0695  0  -0.182345  -0.20312  0  2.521516  0
