# generated using pymatgen
data_SnH37C26NO3
_symmetry_space_group_name_H-M   'P 1'
_cell_length_a   9.51644816
_cell_length_b   11.53957274
_cell_length_c   12.37734740
_cell_angle_alpha   96.43900907
_cell_angle_beta   107.76244265
_cell_angle_gamma   101.70482480
_symmetry_Int_Tables_number   1
_chemical_formula_structural   SnH37C26NO3
_chemical_formula_sum   'Sn2 H74 C52 N2 O6'
_cell_volume   1245.24655928
_cell_formula_units_Z   2
loop_
 _symmetry_equiv_pos_site_id
 _symmetry_equiv_pos_as_xyz
  1  'x, y, z'
loop_
 _atom_site_type_symbol
 _atom_site_label
 _atom_site_symmetry_multiplicity
 _atom_site_fract_x
 _atom_site_fract_y
 _atom_site_fract_z
 _atom_site_occupancy
 _atom_site_hle17_bader_spin_density
 _atom_site_hle17_ddec_charge
 _atom_site_hle17_ddec_spin_density
 _atom_site_hle17_ddec_sum_bond_order
 _atom_site_hle17_magmom
 _atom_site_hse06_10hf_bader_spin_density
 _atom_site_hse06_10hf_ddec_charge
 _atom_site_hse06_10hf_ddec_spin_density
 _atom_site_hse06_10hf_ddec_sum_bond_order
 _atom_site_hse06_10hf_magmom
 _atom_site_hse06_bader_spin_density
 _atom_site_hse06_ddec_charge
 _atom_site_hse06_ddec_spin_density
 _atom_site_hse06_ddec_sum_bond_order
 _atom_site_hse06_magmom
 _atom_site_pbe_bader_spin_density
 _atom_site_pbe_cm5_charge
 _atom_site_pbe_ddec_charge
 _atom_site_pbe_ddec_spin_density
 _atom_site_pbe_ddec_sum_bond_order
 _atom_site_pbe_magmom
Sn  Sn0  1  0.22133173  0.23342141  0.55707497  1  0  1.24272  0  2.811765  0  0  1.095102  0  3.297138  0  0  1.131735  0  3.283867  0  0  0.510788  1.070396  0  3.305925  0
Sn  Sn1  1  0.77866894  0.76657827  0.44292628  1  0  1.242721  0  2.811751  0  0  1.095129  0  3.297115  0  0  1.131761  0  3.283845  0  0  0.51078  1.070421  0  3.305893  0
H  H2  1  0.84292913  0.36699161  0.67336464  1  0  0.301767  0  0.962113  0  0  0.280889  0  1.027769  0  0  0.290105  0  1.020909  0  0  0.299288  0.27462  0  1.03251  0
H  H3  1  0.15707183  0.63300899  0.32663355  1  0  0.301789  0  0.96211  0  0  0.280908  0  1.027783  0  0  0.29013  0  1.020915  0  0  0.299271  0.274634  0  1.032523  0
H  H4  1  0.31552080  0.05056354  0.46741596  1  0  0.093521  0  1.012355  0  0  0.1063  0  1.07996  0  0  0.107468  0  1.082381  0  0  0.076949  0.1055  0  1.078037  0
H  H5  1  0.68447928  0.94943434  0.53258496  1  0  0.093505  0  1.01237  0  0  0.106295  0  1.079967  0  0  0.107463  0  1.082389  0  0  0.076943  0.105495  0  1.078046  0
H  H6  1  0.11582208  0.00847404  0.43345152  1  0  0.115611  0  0.979047  0  0  0.132918  0  1.035753  0  0  0.134975  0  1.037282  0  0  0.087263  0.131282  0  1.034939  0
H  H7  1  0.88417668  0.99152655  0.56655020  1  0  0.115638  0  0.979017  0  0  0.13293  0  1.035738  0  0  0.134986  0  1.037268  0  0  0.08727  0.131295  0  1.034924  0
H  H8  1  0.07945954  0.13888269  0.28401296  1  0  0.060446  0  0.951693  0  0  0.080505  0  1.013429  0  0  0.080867  0  1.014838  0  0  0.086645  0.080179  0  1.012621  0
H  H9  1  0.92054002  0.86111700  0.71598804  1  0  0.060408  0  0.951699  0  0  0.080483  0  1.013423  0  0  0.080845  0  1.014833  0  0  0.086628  0.080139  0  1.012634  0
H  H10  1  0.27647221  0.18749563  0.31381781  1  0  0.044826  0  0.945233  0  0  0.067788  0  1.004996  0  0  0.067945  0  1.00574  0  0  0.082761  0.067535  0  1.004668  0
H  H11  1  0.72352816  0.81250315  0.68618327  1  0  0.044811  0  0.945238  0  0  0.067765  0  1.005016  0  0  0.067924  0  1.005757  0  0  0.082756  0.067514  0  1.004682  0
H  H12  1  0.09318857  0.92490369  0.22588291  1  0  0.047638  0  0.949149  0  0  0.069633  0  1.00824  0  0  0.070123  0  1.008537  0  0  0.082231  0.068941  0  1.008408  0
H  H13  1  0.90681070  0.07509509  0.77411873  1  0  0.047558  0  0.949269  0  0  0.06961  0  1.008291  0  0  0.070097  0  1.008593  0  0  0.082214  0.068919  0  1.00846  0
H  H14  1  0.13697419  0.02485797  0.13584786  1  0  0.053286  0  0.92945  0  0  0.07465  0  0.985671  0  0  0.075361  0  0.986326  0  0  0.085186  0.073941  0  0.985564  0
H  H15  1  0.86302398  0.97514082  0.86415272  1  0  0.053304  0  0.929425  0  0  0.074659  0  0.985663  0  0  0.075368  0  0.986321  0  0  0.085207  0.073956  0  0.985548  0
H  H16  1  0.32222269  0.89320751  0.17902104  1  0  0.089183  0  0.965749  0  0  0.109805  0  1.032669  0  0  0.111036  0  1.033134  0  0  0.082731  0.108978  0  1.03238  0
H  H17  1  0.67777548  0.10679128  0.82097873  1  0  0.089152  0  0.965695  0  0  0.109759  0  1.032635  0  0  0.110999  0  1.033092  0  0  0.082709  0.108934  0  1.032345  0
H  H18  1  0.37727301  0.95130641  0.32829381  1  0  0.085176  0  0.973588  0  0  0.107035  0  1.036932  0  0  0.107314  0  1.038623  0  0  0.079101  0.106761  0  1.036026  0
H  H19  1  0.62272626  0.04869238  0.67170622  1  0  0.08514  0  0.973621  0  0  0.107003  0  1.036961  0  0  0.107283  0  1.038652  0  0  0.079078  0.10673  0  1.036056  0
H  H20  1  0.41655332  0.04773307  0.23341529  1  0  0.080054  0  0.966655  0  0  0.102742  0  1.031166  0  0  0.103692  0  1.031517  0  0  0.080454  0.10198  0  1.031158  0
H  H21  1  0.58344346  0.95226484  0.76658406  1  0  0.080051  0  0.966657  0  0  0.102731  0  1.031177  0  0  0.103682  0  1.031528  0  0  0.080451  0.101969  0  1.031169  0
H  H22  1  0.30498898  0.39022712  0.43160240  1  0  0.106689  0  0.99092  0  0  0.120016  0  1.05682  0  0  0.122239  0  1.058151  0  0  0.084784  0.118728  0  1.055509  0
H  H23  1  0.69501007  0.60977437  0.56839867  1  0  0.106688  0  0.990901  0  0  0.120002  0  1.056819  0  0  0.122225  0  1.058151  0  0  0.084767  0.118714  0  1.055509  0
H  H24  1  0.16156553  0.43089381  0.47979185  1  0  0.111369  0  0.984596  0  0  0.127346  0  1.04367  0  0  0.129738  0  1.04431  0  0  0.087206  0.125728  0  1.042986  0
H  H25  1  0.83843353  0.56910767  0.52021085  1  0  0.111306  0  0.98468  0  0  0.127335  0  1.043689  0  0  0.129724  0  1.044334  0  0  0.087212  0.125715  0  1.043008  0
H  H26  1  0.49703733  0.48071214  0.63740828  1  0  0.055661  0  0.957157  0  0  0.075249  0  1.018998  0  0  0.075341  0  1.020595  0  0  0.08454  0.075258  0  1.017795  0
H  H27  1  0.50296363  0.51928844  0.36259315  1  0  0.05566  0  0.957134  0  0  0.075248  0  1.018979  0  0  0.075338  0  1.020582  0  0  0.084538  0.075259  0  1.017776  0
H  H28  1  0.42210077  0.58506628  0.55926804  1  0  0.042108  0  0.963661  0  0  0.065591  0  1.023931  0  0  0.064171  0  1.026607  0  0  0.077011  0.066692  0  1.021859  0
H  H29  1  0.57789938  0.41493521  0.44073248  1  0  0.042086  0  0.963701  0  0  0.065573  0  1.023962  0  0  0.064152  0  1.026639  0  0  0.077  0.066674  0  1.021893  0
H  H30  1  0.30766797  0.47887737  0.74195331  1  0  0.051776  0  0.940038  0  0  0.076226  0  0.995985  0  0  0.076416  0  0.996985  0  0  0.08735  0.075956  0  0.995529  0
H  H31  1  0.69233218  0.52112412  0.25804722  1  0  0.051787  0  0.940023  0  0  0.076222  0  0.995986  0  0  0.076411  0  0.996986  0  0  0.087343  0.07595  0  0.99553  0
H  H32  1  0.23049433  0.57993547  0.66071225  1  0  0.051578  0  0.933227  0  0  0.07394  0  0.989849  0  0  0.073673  0  0.991381  0  0  0.082441  0.07401  0  0.988928  0
H  H33  1  0.76950582  0.42006602  0.33928828  1  0  0.051593  0  0.933234  0  0  0.073958  0  0.989846  0  0  0.07369  0  0.991378  0  0  0.082453  0.074028  0  0.988924  0
H  H34  1  0.41348020  0.69430889  0.85150845  1  0  0.082696  0  0.982988  0  0  0.103157  0  1.05069  0  0  0.104023  0  1.051258  0  0  0.080425  0.102683  0  1.04995  0
H  H35  1  0.58651856  0.30569170  0.14849246  1  0  0.082698  0  0.98297  0  0  0.103157  0  1.050672  0  0  0.104022  0  1.051239  0  0  0.080413  0.102683  0  1.049932  0
H  H36  1  0.48954830  0.73321336  0.74284589  1  0  0.077456  0  0.979088  0  0  0.09729  0  1.048194  0  0  0.097822  0  1.048914  0  0  0.076262  0.096873  0  1.047736  0
H  H37  1  0.51045076  0.26678813  0.25715599  1  0  0.077441  0  0.979085  0  0  0.097263  0  1.048207  0  0  0.097795  0  1.048925  0  0  0.076258  0.096846  0  1.047749  0
H  H38  1  0.56087745  0.63192322  0.82960533  1  0  0.09249  0  0.968977  0  0  0.112766  0  1.033318  0  0  0.113562  0  1.035302  0  0  0.081725  0.11246  0  1.031482  0
H  H39  1  0.43912131  0.36807737  0.17039639  1  0  0.09248  0  0.968959  0  0  0.112749  0  1.033308  0  0  0.113543  0  1.035293  0  0  0.081717  0.112443  0  1.031473  0
H  H40  1  0.30766061  0.26915702  0.78871141  1  0  0.104784  0  0.991079  0  0  0.120273  0  1.053043  0  0  0.122772  0  1.053372  0  0  0.085759  0.118594  0  1.052745  0
H  H41  1  0.69233786  0.73084267  0.21128934  1  0  0.104795  0  0.991052  0  0  0.12028  0  1.053016  0  0  0.122777  0  1.053348  0  0  0.085762  0.1186  0  1.052718  0
H  H42  1  0.11259882  0.18898430  0.73030251  1  0  0.104821  0  0.994807  0  0  0.116821  0  1.061809  0  0  0.119367  0  1.062116  0  0  0.081942  0.115039  0  1.061802  0
H  H43  1  0.88740214  0.81101629  0.26969730  1  0  0.104832  0  0.994779  0  0  0.116831  0  1.06178  0  0  0.119377  0  1.062089  0  0  0.081946  0.115049  0  1.061772  0
H  H44  1  0.19157840  0.00212519  0.66607372  1  0  0.060767  0  0.956615  0  0  0.078919  0  1.021372  0  0  0.07977  0  1.021525  0  0  0.086068  0.078121  0  1.021348  0
H  H45  1  0.80842007  0.99787451  0.33392621  1  0  0.060774  0  0.956626  0  0  0.078898  0  1.021401  0  0  0.079747  0  1.021554  0  0  0.086048  0.0781  0  1.021375  0
H  H46  1  0.38472040  0.08292268  0.72692898  1  0  0.056376  0  0.957847  0  0  0.07642  0  1.021893  0  0  0.076423  0  1.023413  0  0  0.084904  0.075968  0  1.021641  0
H  H47  1  0.61527726  0.91707792  0.27307086  1  0  0.056371  0  0.957832  0  0  0.0764  0  1.021873  0  0  0.076399  0  1.023399  0  0  0.08491  0.075947  0  1.021622  0
H  H48  1  0.16252242  0.01990975  0.85859364  1  0  0.051979  0  0.941726  0  0  0.074306  0  0.999537  0  0  0.074466  0  1.000716  0  0  0.085524  0.073868  0  0.999079  0
H  H49  1  0.83747494  0.98008996  0.14140604  1  0  0.051968  0  0.941785  0  0  0.074317  0  0.999569  0  0  0.074467  0  1.000761  0  0  0.08555  0.073878  0  0.999112  0
H  H50  1  0.30520646  0.94637444  0.84979491  1  0  0.046168  0  0.942864  0  0  0.066852  0  1.003825  0  0  0.066986  0  1.00459  0  0  0.083078  0.066828  0  1.002935  0
H  H51  1  0.69479120  0.05362616  0.15020494  1  0  0.046226  0  0.942847  0  0  0.066899  0  1.003814  0  0  0.067034  0  1.004577  0  0  0.083107  0.066873  0  1.002925  0
H  H52  1  0.39396480  0.08960206  0.03770768  1  0  0.087132  0  0.964783  0  0  0.110827  0  1.024307  0  0  0.111611  0  1.02528  0  0  0.083267  0.11016  0  1.023776  0
H  H53  1  0.60603235  0.91040036  0.96229144  1  0  0.087203  0  0.964747  0  0  0.110903  0  1.024245  0  0  0.111689  0  1.025214  0  0  0.083293  0.110241  0  1.023708  0
H  H54  1  0.36384759  0.21081736  0.96554160  1  0  0.089753  0  0.964328  0  0  0.111922  0  1.025628  0  0  0.112898  0  1.026643  0  0  0.08309  0.11114  0  1.025071  0
H  H55  1  0.63614786  0.78918327  0.03445693  1  0  0.089833  0  0.964276  0  0  0.111976  0  1.025608  0  0  0.112953  0  1.026621  0  0  0.083097  0.111194  0  1.02505  0
H  H56  1  0.50813934  0.13871955  0.95390211  1  0  0.083926  0  0.958749  0  0  0.105612  0  1.02266  0  0  0.106546  0  1.023347  0  0  0.081628  0.105056  0  1.021998  0
H  H57  1  0.49185781  0.86128287  0.04609701  1  0  0.08389  0  0.958818  0  0  0.105584  0  1.022713  0  0  0.106516  0  1.023403  0  0  0.08162  0.105028  0  1.022053  0
H  H58  1  0.69453888  0.15420468  0.38659508  1  0  0.116949  0  0.941011  0  0  0.126631  0  1.0014  0  0  0.130497  0  0.999321  0  0  0.113154  0.123685  0  1.003301  0
H  H59  1  0.30546230  0.84579319  0.61340529  1  0  0.116919  0  0.941048  0  0  0.12662  0  1.001418  0  0  0.130486  0  0.99934  0  0  0.113156  0.123703  0  1.003287  0
H  H60  1  0.50258114  0.18018315  0.45836529  1  0  0.108777  0  0.972906  0  0  0.120001  0  1.035138  0  0  0.122841  0  1.034234  0  0  0.112685  0.118235  0  1.035704  0
H  H61  1  0.49741902  0.81981835  0.54163362  1  0  0.108797  0  0.972942  0  0  0.120018  0  1.035155  0  0  0.122856  0  1.03425  0  0  0.112677  0.118252  0  1.035722  0
H  H62  1  0.59183910  0.30440740  0.84273178  1  0  0.109151  0  0.97401  0  0  0.11869  0  1.036394  0  0  0.121814  0  1.034695  0  0  0.105577  0.116498  0  1.037606  0
H  H63  1  0.40816457  0.69559136  0.15726927  1  0  0.109142  0  0.974031  0  0  0.118718  0  1.036377  0  0  0.12184  0  1.034679  0  0  0.105577  0.116523  0  1.03759  0
H  H64  1  0.62500940  0.42666147  0.03046184  1  0  0.08744  0  0.966804  0  0  0.101222  0  1.023685  0  0  0.103149  0  1.023864  0  0  0.101131  0.100354  0  1.022248  0
H  H65  1  0.37499347  0.57333820  0.96953912  1  0  0.087421  0  0.966857  0  0  0.101222  0  1.023714  0  0  0.103149  0  1.023893  0  0  0.101138  0.100354  0  1.022277  0
H  H66  1  0.81887245  0.62305482  0.10479867  1  0  0.095049  0  0.954917  0  0  0.10619  0  1.018659  0  0  0.108935  0  1.017511  0  0  0.10143  0.10402  0  1.019836  0
H  H67  1  0.18113020  0.37694756  0.89520253  1  0  0.095107  0  0.954957  0  0  0.10623  0  1.018716  0  0  0.108973  0  1.017571  0  0  0.101435  0.104063  0  1.019893  0
H  H68  1  0.01479216  0.77811194  0.07922785  1  0  0.086616  0  0.969271  0  0  0.097242  0  1.032471  0  0  0.099869  0  1.03148  0  0  0.099033  0.095283  0  1.033467  0
H  H69  1  0.98520741  0.22188775  0.92077153  1  0  0.086609  0  0.969282  0  0  0.097231  0  1.032486  0  0  0.099858  0  1.031496  0  0  0.099026  0.095271  0  1.033487  0
H  H70  1  0.17140883  0.85752095  0.96356136  1  0  0.079319  0  0.9772  0  0  0.090402  0  1.041811  0  0  0.092568  0  1.041429  0  0  0.098079  0.088877  0  1.04207  0
H  H71  1  0.82858853  0.14247876  0.03643671  1  0  0.079327  0  0.977186  0  0  0.090414  0  1.041798  0  0  0.09258  0  1.041414  0  0  0.098077  0.088886  0  1.042057  0
H  H72  1  0.13878513  0.73729299  0.77260302  1  0  0.084417  0  0.953836  0  0  0.096434  0  1.014106  0  0  0.098785  0  1.013355  0  0  0.099413  0.094708  0  1.01461  0
H  H73  1  0.86121642  0.26270940  0.22739632  1  0  0.084438  0  0.953863  0  0  0.09646  0  1.014122  0  0  0.09881  0  1.013372  0  0  0.099448  0.094734  0  1.014626  0
H  H74  1  0.95679833  0.54001017  0.69998771  1  0  0.092885  0  0.981588  0  0  0.103278  0  1.045517  0  0  0.10621  0  1.043787  0  0  0.102548  0.101109  0  1.046908  0
H  H75  1  0.04320513  0.45999132  0.30001116  1  0  0.092865  0  0.98163  0  0  0.103275  0  1.045537  0  0  0.106208  0  1.043807  0  0  0.102551  0.101107  0  1.046925  0
C  C76  1  0.21101803  0.08083025  0.43359861  1  0  -0.502289  0  3.611855  0  0  -0.511176  0  3.876208  0  0  -0.523026  0  3.892251  0  0  -0.255914  -0.502879  0  3.86505  0
C  C77  1  0.78898124  0.91916853  0.56640222  1  0  -0.502328  0  3.611861  0  0  -0.511218  0  3.876232  0  0  -0.523071  0  3.892287  0  0  -0.255932  -0.502922  0  3.865072  0
C  C78  1  0.18594621  0.10982153  0.31264744  1  0  -0.059456  0  3.749034  0  0  -0.097976  0  4.003534  0  0  -0.097493  0  4.020626  0  0  -0.170355  -0.098137  0  3.991488  0
C  C79  1  0.81405417  0.89017725  0.68735364  1  0  -0.059384  0  3.749078  0  0  -0.09792  0  4.003597  0  0  -0.097439  0  4.020691  0  0  -0.170345  -0.098071  0  3.991555  0
C  C80  1  0.17875091  0.00374537  0.22292572  1  0  -0.061885  0  3.702333  0  0  -0.093882  0  3.960476  0  0  -0.094809  0  3.975674  0  0  -0.168452  -0.092755  0  3.949677  0
C  C81  1  0.82124697  0.99625252  0.77707469  1  0  -0.061846  0  3.702375  0  0  -0.093875  0  3.960538  0  0  -0.0948  0  3.975737  0  0  -0.168439  -0.092749  0  3.949734  0
C  C82  1  0.33155612  0.97207248  0.24182925  1  0  -0.283813  0  3.718603  0  0  -0.357736  0  3.962879  0  0  -0.35998  0  3.974792  0  0  -0.250657  -0.356214  0  3.954968  0
C  C83  1  0.66844176  0.02792541  0.75817035  1  0  -0.283736  0  3.718563  0  0  -0.357649  0  3.962849  0  0  -0.359902  0  3.974755  0  0  -0.250612  -0.35613  0  3.954941  0
C  C84  1  0.27172631  0.40751366  0.50830219  1  0  -0.482977  0  3.602796  0  0  -0.495866  0  3.870071  0  0  -0.507397  0  3.885594  0  0  -0.242517  -0.48703  0  3.858408  0
C  C85  1  0.72827355  0.59248692  0.49169898  1  0  -0.482893  0  3.602748  0  0  -0.495813  0  3.870026  0  0  -0.507347  0  3.885557  0  0  -0.242485  -0.486977  0  3.858368  0
C  C86  1  0.39100816  0.50834286  0.60050518  1  0  -0.048399  0  3.747938  0  0  -0.086576  0  4.004389  0  0  -0.085868  0  4.022342  0  0  -0.173652  -0.087029  0  3.991498  0
C  C87  1  0.60899360  0.49165681  0.39949471  1  0  -0.048393  0  3.747926  0  0  -0.086584  0  4.004402  0  0  -0.085875  0  4.022354  0  0  -0.173674  -0.087033  0  3.991501  0
C  C88  1  0.33760413  0.55346243  0.69808392  1  0  -0.06402  0  3.713406  0  0  -0.097218  0  3.972705  0  0  -0.098035  0  3.988742  0  0  -0.168571  -0.096552  0  3.961858  0
C  C89  1  0.66239573  0.44653816  0.30191644  1  0  -0.064069  0  3.713452  0  0  -0.097253  0  3.97275  0  0  -0.09807  0  3.988787  0  0  -0.168571  -0.096587  0  3.961904  0
C  C90  1  0.45659916  0.65859768  0.78543025  1  0  -0.294153  0  3.739093  0  0  -0.369027  0  3.987057  0  0  -0.371149  0  3.998133  0  0  -0.251756  -0.367487  0  3.979115  0
C  C91  1  0.54340070  0.34140290  0.21457091  1  0  -0.294102  0  3.739064  0  0  -0.368951  0  3.987023  0  0  -0.371072  0  3.998097  0  0  -0.251714  -0.367411  0  3.979081  0
C  C92  1  0.22601370  0.19288577  0.72384978  1  0  -0.478832  0  3.607987  0  0  -0.49171  0  3.875812  0  0  -0.502629  0  3.88985  0  0  -0.244378  -0.484524  0  3.865795  0
C  C93  1  0.77398587  0.80711392  0.27615041  1  0  -0.478853  0  3.607939  0  0  -0.491732  0  3.875739  0  0  -0.502655  0  3.889785  0  0  -0.244392  -0.484547  0  3.865724  0
C  C94  1  0.27192124  0.07435722  0.73672939  1  0  -0.069686  0  3.738041  0  0  -0.108307  0  3.993642  0  0  -0.108225  0  4.010977  0  0  -0.174448  -0.107828  0  3.98162  0
C  C95  1  0.72807693  0.92564157  0.26327038  1  0  -0.069713  0  3.738067  0  0  -0.108261  0  3.993592  0  0  -0.108176  0  4.010925  0  0  -0.174435  -0.107782  0  3.981568  0
C  C96  1  0.27735315  0.03462892  0.85169018  1  0  -0.059591  0  3.701078  0  0  -0.092105  0  3.959615  0  0  -0.092794  0  3.975144  0  0  -0.169112  -0.091519  0  3.948624  0
C  C97  1  0.72264450  0.96537168  0.14830967  1  0  -0.059603  0  3.70117  0  0  -0.092129  0  3.959695  0  0  -0.092817  0  3.975227  0  0  -0.169163  -0.091543  0  3.948704  0
C  C98  1  0.39180873  0.12312758  0.95771014  1  0  -0.283843  0  3.723886  0  0  -0.353863  0  3.962248  0  0  -0.356394  0  3.974157  0  0  -0.248728  -0.351941  0  3.954119  0
C  C99  1  0.60818951  0.87687483  0.04228923  1  0  -0.283987  0  3.723942  0  0  -0.353996  0  3.962297  0  0  -0.356529  0  3.974213  0  0  -0.248754  -0.352078  0  3.954164  0
C  C100  1  0.89863979  0.25271273  0.52614077  1  0  0.659502  0  3.90933  0  0  0.613247  0  4.202831  0  0  0.646841  0  4.193525  0  0  0.217048  0.590465  0  4.208542  0
C  C101  1  0.10136198  0.74728696  0.47385832  1  0  0.659626  0  3.90918  0  0  0.613406  0  4.202623  0  0  0.646998  0  4.193316  0  0  0.21713  0.590621  0  4.208338  0
C  C102  1  0.73022085  0.20962598  0.47239456  1  0  -0.152372  0  3.633711  0  0  -0.17236  0  3.89347  0  0  -0.17472  0  3.903767  0  0  -0.073204  -0.171259  0  3.887139  0
C  C103  1  0.26978062  0.79037279  0.52760598  1  0  -0.152346  0  3.633679  0  0  -0.172371  0  3.893439  0  0  -0.17473  0  3.903734  0  0  -0.073211  -0.171292  0  3.8871  0
C  C104  1  0.61879613  0.22454570  0.51455290  1  0  -0.160089  0  3.680564  0  0  -0.181571  0  3.941885  0  0  -0.184445  0  3.953931  0  0  -0.073768  -0.179843  0  3.933952  0
C  C105  1  0.38120674  0.77545396  0.48544806  1  0  -0.16015  0  3.68058  0  0  -0.181606  0  3.941862  0  0  -0.184481  0  3.953918  0  0  -0.073757  -0.179881  0  3.933949  0
C  C106  1  0.61841141  0.28496741  0.62646783  1  0  0.569262  0  3.824022  0  0  0.521948  0  4.110225  0  0  0.552222  0  4.107369  0  0  0.245297  0.501646  0  4.111961  0
C  C107  1  0.38159175  0.71503316  0.37353410  1  0  0.56926  0  3.824021  0  0  0.521983  0  4.110188  0  0  0.552232  0  4.107349  0  0  0.245313  0.501659  0  4.111936  0
C  C108  1  0.76336096  0.43010783  0.80703169  1  0  0.201108  0  3.746228  0  0  0.190496  0  3.999878  0  0  0.196627  0  4.02125  0  0  0.095944  0.186182  0  3.985925  0
C  C109  1  0.23664081  0.56989184  0.19296901  1  0  0.201097  0  3.746226  0  0  0.190511  0  3.999869  0  0  0.196641  0  4.021246  0  0  0.09595  0.186186  0  3.985912  0
C  C110  1  0.67535469  0.39070237  0.87328422  1  0  -0.149377  0  3.729408  0  0  -0.175563  0  3.989223  0  0  -0.179305  0  4.009205  0  0  -0.090937  -0.173416  0  3.976214  0
C  C111  1  0.32464657  0.60929912  0.12671494  1  0  -0.149386  0  3.729387  0  0  -0.175614  0  3.989208  0  0  -0.179358  0  4.009196  0  0  -0.090965  -0.173466  0  3.976202  0
C  C112  1  0.69491603  0.46059860  0.98011989  1  0  -0.05904  0  3.809786  0  0  -0.072042  0  4.064623  0  0  -0.073591  0  4.087754  0  0  -0.092339  -0.070739  0  4.047642  0
C  C113  1  0.30508713  0.53940197  0.01988042  1  0  -0.05899  0  3.809783  0  0  -0.071995  0  4.064603  0  0  -0.073546  0  4.087736  0  0  -0.09234  -0.070692  0  4.047624  0
C  C114  1  0.80184768  0.56959037  0.02121605  1  0  -0.117423  0  3.74723  0  0  -0.144032  0  4.004059  0  0  -0.147361  0  4.025724  0  0  -0.089607  -0.141706  0  3.989109  0
C  C115  1  0.19815306  0.43041295  0.97878158  1  0  -0.117575  0  3.747194  0  0  -0.14417  0  4.004056  0  0  -0.1475  0  4.025721  0  0  -0.089626  -0.141849  0  3.989112  0
C  C116  1  0.89306545  0.61347172  0.95567752  1  0  0.06431  0  3.806183  0  0  0.082441  0  4.029216  0  0  0.082782  0  4.054402  0  0  -0.005798  0.082161  0  4.011806  0
C  C117  1  0.10693771  0.38652885  0.04432280  1  0  0.064415  0  3.806035  0  0  0.082509  0  4.029108  0  0  0.082851  0  4.054293  0  0  -0.00579  0.082229  0  4.0117  0
C  C118  1  0.00185765  0.72640159  0.99587773  1  0  -0.110003  0  3.748448  0  0  -0.127689  0  3.991697  0  0  -0.130536  0  4.013891  0  0  -0.089837  -0.125642  0  3.976701  0
C  C119  1  0.99814441  0.27359900  0.00412153  1  0  -0.11004  0  3.748486  0  0  -0.127706  0  3.991735  0  0  -0.130552  0  4.013929  0  0  -0.089846  -0.125659  0  3.976743  0
C  C120  1  0.08898013  0.77022625  0.93165309  1  0  -0.079565  0  3.807917  0  0  -0.097863  0  4.065304  0  0  -0.100141  0  4.088221  0  0  -0.095089  -0.096345  0  4.049503  0
C  C121  1  0.91102244  0.22977253  0.06834528  1  0  -0.079476  0  3.807917  0  0  -0.097779  0  4.065294  0  0  -0.100056  0  4.08821  0  0  -0.094991  -0.096258  0  4.049491  0
C  C122  1  0.07097045  0.70193783  0.82402966  1  0  -0.065592  0  3.782832  0  0  -0.08091  0  4.039504  0  0  -0.083003  0  4.062036  0  0  -0.090167  -0.079254  0  4.023991  0
C  C123  1  0.92902852  0.29806008  0.17596697  1  0  -0.065655  0  3.782849  0  0  -0.080981  0  4.039532  0  0  -0.083076  0  4.062064  0  0  -0.09025  -0.079325  0  4.024021  0
C  C124  1  0.96725556  0.59105141  0.78270672  1  0  -0.103585  0  3.736618  0  0  -0.126081  0  3.987452  0  0  -0.128356  0  4.009096  0  0  -0.089931  -0.124588  0  3.972915  0
C  C125  1  0.03274701  0.40894736  0.21729327  1  0  -0.103576  0  3.736661  0  0  -0.126082  0  3.987492  0  0  -0.128358  0  4.009137  0  0  -0.089936  -0.124589  0  3.972952  0
C  C126  1  0.87520975  0.54364518  0.84647264  1  0  -0.022879  0  3.73575  0  0  -0.008307  0  3.959411  0  0  -0.010515  0  3.983841  0  0  -0.004838  -0.006728  0  3.942462  0
C  C127  1  0.12479421  0.45635449  0.15352696  1  0  -0.022888  0  3.735704  0  0  -0.008309  0  3.959376  0  0  -0.01052  0  3.983809  0  0  -0.004833  -0.00673  0  3.942428  0
N  N128  1  0.74772221  0.36095678  0.70079548  1  0  -0.427265  0  3.339085  0  0  -0.367621  0  3.57232  0  0  -0.39033  0  3.582588  0  0  -0.38258  -0.353107  0  3.565628  0
N  N129  1  0.25228176  0.63904289  0.29920493  1  0  -0.427269  0  3.339045  0  0  -0.367665  0  3.572293  0  0  -0.390374  0  3.582563  0  0  -0.382581  -0.353124  0  3.565593  0
O  O130  1  0.97063823  0.19524811  0.47447734  1  0  -0.607053  0  2.020292  0  0  -0.537468  0  2.261867  0  0  -0.563307  0  2.254392  0  0  -0.280492  -0.518221  0  2.265645  0
O  O131  1  0.02936434  0.80475065  0.52552426  1  0  -0.607096  0  2.020161  0  0  -0.537533  0  2.261731  0  0  -0.563379  0  2.254273  0  0  -0.280525  -0.518286  0  2.265514  0
O  O132  1  0.96368962  0.33653215  0.61280706  1  0  -0.590476  0  1.957462  0  0  -0.541844  0  2.174633  0  0  -0.564248  0  2.16679  0  0  -0.295727  -0.526719  0  2.179435  0
O  O133  1  0.03630994  0.66346755  0.38719071  1  0  -0.590537  0  1.95743  0  0  -0.541913  0  2.174594  0  0  -0.56432  0  2.166747  0  0  -0.295755  -0.52679  0  2.179397  0
O  O134  1  0.49484232  0.26392133  0.64749148  1  0  -0.59287  0  2.068631  0  0  -0.520315  0  2.308527  0  0  -0.543905  0  2.303343  0  0  -0.268884  -0.505019  0  2.312772  0
O  O135  1  0.50515944  0.73607835  0.35250842  1  0  -0.592856  0  2.068654  0  0  -0.520372  0  2.308605  0  0  -0.543899  0  2.303386  0  0  -0.2689  -0.50506  0  2.312842  0
