# generated using pymatgen
data_H14RuC19N(OF)4
_symmetry_space_group_name_H-M   'P 1'
_cell_length_a   10.00560272
_cell_length_b   10.26346323
_cell_length_c   10.77790900
_cell_angle_alpha   74.19689872
_cell_angle_beta   71.13070472
_cell_angle_gamma   64.00493580
_symmetry_Int_Tables_number   1
_chemical_formula_structural   H14RuC19N(OF)4
_chemical_formula_sum   'H28 Ru2 C38 N2 O8 F8'
_cell_volume   930.20812655
_cell_formula_units_Z   2
loop_
 _symmetry_equiv_pos_site_id
 _symmetry_equiv_pos_as_xyz
  1  'x, y, z'
loop_
 _atom_site_type_symbol
 _atom_site_label
 _atom_site_symmetry_multiplicity
 _atom_site_fract_x
 _atom_site_fract_y
 _atom_site_fract_z
 _atom_site_occupancy
 _atom_site_pbe_cm5_charge
 _atom_site_pbe_ddec_charge
 _atom_site_pbe_ddec_spin_density
 _atom_site_pbe_ddec_sum_bond_order
 _atom_site_pbe_magmom
H  H0  1  0.20404960  0.61151042  0.81977915  1  0.107346  0.128291  -2e-06  1.030719  0.0
H  H1  1  0.79594751  0.38848534  0.18022165  1  0.107349  0.128312  -2e-06  1.030696  0.0
H  H2  1  0.42576609  0.67873882  0.67728746  1  0.09882  0.098077  -2e-05  1.02684  0.0
H  H3  1  0.57423041  0.32125585  0.32271474  1  0.098821  0.098093  -2e-05  1.026778  0.0
H  H4  1  0.66688395  0.48436177  0.57586183  1  0.104501  0.112733  -1.7e-05  1.029151  0.0
H  H5  1  0.33311166  0.51563509  0.42414099  1  0.104492  0.112684  -1.7e-05  1.029135  0.0
H  H6  1  0.77781618  0.27924377  0.79299893  1  0.109429  0.133921  -8e-06  1.020296  0.0
H  H7  1  0.22218475  0.72076080  0.20699747  1  0.1094  0.133905  -8e-06  1.020311  0.0
H  H8  1  0.01596747  0.27946708  0.81830303  1  0.099985  0.103641  -2.9e-05  1.034291  0.0
H  H9  1  0.98403119  0.72053529  0.18169557  1  0.099999  0.103597  -2.9e-05  1.03435  0.0
H  H10  1  0.08512081  0.18591373  0.03796370  1  0.106277  0.116729  -8e-06  1.008047  0.0
H  H11  1  0.91488101  0.81408864  0.96203209  1  0.106264  0.116708  -8e-06  1.008069  0.0
H  H12  1  0.41515285  0.05373614  0.41276512  1  0.10572  0.132562  2.4e-05  1.01456  0.0
H  H13  1  0.58484714  0.94626293  0.58723394  1  0.10571  0.132544  2.4e-05  1.01457  0.0
H  H14  1  0.41383317  0.21664533  0.44422942  1  0.091266  0.101674  -0.000438  1.011702  0.0
H  H15  1  0.58616788  0.78335376  0.55577025  1  0.091272  0.101684  -0.000439  1.011696  0.0
H  H16  1  0.30563407  0.11845540  0.56531407  1  0.10096  0.120775  9e-06  1.033941  0.0
H  H17  1  0.69436548  0.88154478  0.43468577  1  0.100944  0.120749  9e-06  1.033956  0.0
H  H18  1  0.34003945  0.14219857  0.22426954  1  0.104951  0.128602  -8.2e-05  1.007717  0.0
H  H19  1  0.65996220  0.85780162  0.77572965  1  0.104939  0.128582  -8.2e-05  1.007673  0.0
H  H20  1  0.16927416  0.29551200  0.20507675  1  0.101266  0.119601  0.00012  1.017861  0.0
H  H21  1  0.83072704  0.70448929  0.79492322  1  0.101251  0.119585  0.00012  1.017843  0.0
H  H22  1  0.33044061  0.32325288  0.21392218  1  0.090868  0.10457  0.000624  0.996733  0.0
H  H23  1  0.66956104  0.67674731  0.78607887  1  0.090874  0.104562  0.000625  0.996741  0.0
H  H24  1  0.97990257  0.44901498  0.29649304  1  0.101751  0.105778  0.000125  1.02702  0.0
H  H25  1  0.02010075  0.55098631  0.70350629  1  0.101727  0.105721  0.000125  1.027051  0.0
H  H26  1  0.79684883  0.67227560  0.38385180  1  0.098154  0.096408  -8e-05  1.055213  0.0
H  H27  1  0.20315510  0.32772679  0.61614613  1  0.098147  0.09637  -8e-05  1.055224  0.0
Ru  Ru28  1  0.05463061  0.08622227  0.47119755  1  0.661162  0.646241  -0.000768  3.760182  0.0
Ru  Ru29  1  0.94536938  0.91377680  0.52880058  1  0.661178  0.646311  -0.000769  3.760002  0.0
C  C30  1  0.73066657  0.20045433  0.59709310  1  0.210248  0.542354  0.000127  4.151473  0.0
C  C31  1  0.26933203  0.79954036  0.40291125  1  0.210253  0.542359  0.000127  4.151404  0.0
C  C32  1  0.58282584  0.31192135  0.65605148  1  -0.023843  -0.131493  -3.9e-05  4.012695  0.0
C  C33  1  0.41717637  0.68807228  0.34395670  1  -0.023825  -0.131433  -3.9e-05  4.012728  0.0
C  C34  1  0.45694327  0.27749718  0.73510487  1  0.098908  0.160224  -1.9e-05  4.049923  0.0
C  C35  1  0.54305938  0.72249534  0.26490068  1  0.098821  0.160106  -1.9e-05  4.049999  0.0
C  C36  1  0.32413488  0.38638466  0.79320321  1  0.088499  0.167088  -5e-06  4.087168  0.0
C  C37  1  0.67586522  0.61360894  0.20680097  1  0.088462  0.167073  -5e-06  4.087066  0.0
C  C38  1  0.31048116  0.53018379  0.77344403  1  -0.092023  -0.166906  -5e-06  3.992716  0.0
C  C39  1  0.68951595  0.46981199  0.22655955  1  -0.091954  -0.166822  -5e-06  3.992593  0.0
C  C40  1  0.43477039  0.56586354  0.69416483  1  -0.092971  -0.073553  7e-06  4.018848  0.0
C  C41  1  0.56522610  0.43413114  0.30584015  1  -0.093048  -0.073718  7e-06  4.018888  0.0
C  C42  1  0.56868866  0.45831890  0.63711967  1  -0.087475  -0.094642  1.3e-05  3.980248  0.0
C  C43  1  0.43130800  0.54167798  0.36288561  1  -0.087434  -0.094532  1.3e-05  3.980278  0.0
C  C44  1  0.93271352  0.07703829  0.26443438  1  0.210031  0.547312  -0.000111  4.147527  0.0
C  C45  1  0.06728497  0.92296188  0.73556485  1  0.210035  0.547296  -0.000111  4.147569  0.0
C  C46  1  0.89098565  0.12690888  0.13439286  1  -0.022741  -0.125404  6.2e-05  4.032956  0.0
C  C47  1  0.10901422  0.87309568  0.86560293  1  -0.022789  -0.125454  6.2e-05  4.032896  0.0
C  C48  1  0.75902253  0.12497585  0.11753496  1  0.09481  0.149227  2.3e-05  4.048445  0.0
C  C49  1  0.24097524  0.87502870  0.88246147  1  0.094798  0.149239  2.3e-05  4.04823  0.0
C  C50  1  0.71923549  0.18075742  0.99544113  1  0.088953  0.174523  1.6e-05  4.090454  0.0
C  C51  1  0.28076439  0.81924715  0.00455652  1  0.0889  0.174409  1.6e-05  4.090472  0.0
C  C52  1  0.81006633  0.23713625  0.88769277  1  -0.09535  -0.173494  9e-06  3.98237  0.0
C  C53  1  0.18993443  0.76286612  0.11230427  1  -0.09528  -0.173395  9e-06  3.982291  0.0
C  C54  1  0.94314348  0.23764483  0.90308631  1  -0.090252  -0.061757  -2.1e-05  4.011694  0.0
C  C55  1  0.05685684  0.76235864  0.09691150  1  -0.090309  -0.061821  -2.1e-05  4.011717  0.0
C  C56  1  0.98242988  0.18449888  0.02488671  1  -0.088931  -0.109309  -4.5e-05  3.995938  0.0
C  C57  1  0.01757088  0.81550348  0.97510940  1  -0.088845  -0.109152  -4.5e-05  3.995705  0.0
C  C58  1  0.34434515  0.15233251  0.45904995  1  -0.153845  -0.29044  0.000891  3.902119  0.0
C  C59  1  0.65565634  0.84766548  0.54094988  1  -0.153833  -0.290417  0.000891  3.902138  0.0
C  C60  1  0.26582109  0.25112127  0.25152269  1  -0.146745  -0.280264  -0.000633  3.89826  0.0
C  C61  1  0.73418056  0.74887891  0.74847650  1  -0.146744  -0.280233  -0.000633  3.89815  0.0
C  C62  1  0.10879975  0.36971016  0.44763833  1  0.076148  0.15452  -0.000708  3.982961  0.0
C  C63  1  0.89120418  0.63029223  0.55235960  1  0.076156  0.154556  -0.000707  3.98284  0.0
C  C64  1  0.99192474  0.47082903  0.38475571  1  -0.096161  -0.153255  0.000499  3.997459  0.0
C  C65  1  0.00808023  0.52917337  0.61524190  1  -0.096092  -0.15313  0.000498  3.997327  0.0
C  C66  1  0.88545289  0.59787897  0.43606961  1  -0.101874  -0.163039  -0.000538  4.000167  0.0
C  C67  1  0.11455298  0.40212124  0.56392739  1  -0.101896  -0.163018  -0.000538  4.000086  0.0
N  N68  1  0.21301739  0.23591975  0.39771263  1  -0.314308  -0.026582  0.001302  3.542076  0.001
N  N69  1  0.78698260  0.76407933  0.60228736  1  -0.314332  -0.026636  0.001302  3.542083  0.001
O  O70  1  0.84452492  0.24022965  0.54615309  1  -0.30388  -0.46255  0.001239  2.46125  0.001
O  O71  1  0.15547596  0.75976724  0.45384813  1  -0.30391  -0.462602  0.001239  2.461369  0.001
O  O72  1  0.73833868  0.07155600  0.60159806  1  -0.30001  -0.455191  0.001008  2.491554  0.001
O  O73  1  0.26165981  0.92844417  0.39840210  1  -0.300002  -0.455167  0.001008  2.491409  0.001
O  O74  1  0.00315642  0.14303388  0.28793767  1  -0.302411  -0.464647  7e-05  2.448693  -0.001
O  O75  1  0.99684390  0.85696959  0.71206107  1  -0.302386  -0.464596  7e-05  2.448779  -0.001
O  O76  1  0.89641749  0.97403008  0.34482593  1  -0.298717  -0.455646  -0.002609  2.472188  -0.001
O  O77  1  0.10358239  0.02597448  0.65516894  1  -0.298694  -0.455619  -0.002609  2.472081  -0.001
F  F78  1  0.45822730  0.14054074  0.76085416  1  -0.080215  -0.106886  1.9e-05  1.436212  0.0
F  F79  1  0.54177218  0.85945180  0.23915884  1  -0.080139  -0.10683  1.9e-05  1.436237  0.0
F  F80  1  0.20545620  0.34805729  0.87164205  1  -0.086473  -0.119821  -1.3e-05  1.383042  0.0
F  F81  1  0.79453985  0.65193847  0.12835907  1  -0.086472  -0.119823  -1.3e-05  1.382997  0.0
F  F82  1  0.66293259  0.07503657  0.21941302  1  -0.076539  -0.104665  -8e-06  1.442636  0.0
F  F83  1  0.33706550  0.92497238  0.78058309  1  -0.076554  -0.104695  -8e-06  1.442561  0.0
F  F84  1  0.58828513  0.17900384  0.98478728  1  -0.095283  -0.12535  2.1e-05  1.368248  0.0
F  F85  1  0.41171369  0.82100071  0.01520976  1  -0.09526  -0.125311  2.1e-05  1.368337  0.0
