# generated using pymatgen
data_Tb2H8C10S(N2O7)2
_symmetry_space_group_name_H-M   'P 1'
_cell_length_a   6.65048155
_cell_length_b   11.07011950
_cell_length_c   13.09153834
_cell_angle_alpha   106.69798063
_cell_angle_beta   89.97834081
_cell_angle_gamma   107.45994998
_symmetry_Int_Tables_number   1
_chemical_formula_structural   Tb2H8C10S(N2O7)2
_chemical_formula_sum   'Tb4 H16 C20 S2 N8 O28'
_cell_volume   876.75071544
_cell_formula_units_Z   2
loop_
 _symmetry_equiv_pos_site_id
 _symmetry_equiv_pos_as_xyz
  1  'x, y, z'
loop_
 _atom_site_type_symbol
 _atom_site_label
 _atom_site_symmetry_multiplicity
 _atom_site_fract_x
 _atom_site_fract_y
 _atom_site_fract_z
 _atom_site_occupancy
 _atom_site_hle17_bader_spin_density
 _atom_site_hle17_ddec_charge
 _atom_site_hle17_ddec_spin_density
 _atom_site_hle17_ddec_sum_bond_order
 _atom_site_hle17_magmom
 _atom_site_hse06_10hf_bader_spin_density
 _atom_site_hse06_10hf_ddec_charge
 _atom_site_hse06_10hf_ddec_spin_density
 _atom_site_hse06_10hf_ddec_sum_bond_order
 _atom_site_hse06_10hf_magmom
 _atom_site_hse06_bader_spin_density
 _atom_site_hse06_ddec_charge
 _atom_site_hse06_ddec_spin_density
 _atom_site_hse06_ddec_sum_bond_order
 _atom_site_hse06_magmom
 _atom_site_pbe_bader_spin_density
 _atom_site_pbe_cm5_charge
 _atom_site_pbe_ddec_charge
 _atom_site_pbe_ddec_spin_density
 _atom_site_pbe_ddec_sum_bond_order
 _atom_site_pbe_magmom
Tb  Tb0  1  0.78121443  0.70505521  0.71508694  1  0  2.249523  0  1.694633  0  0  2.101827  0  2.168473  0  0  2.216219  0  1.994974  0  0  1.546312  2.066673  0  2.201661  0
Tb  Tb1  1  0.07638065  0.29503854  0.78494689  1  0  2.249528  0  1.69394  0  0  2.101847  0  2.16782  0  0  2.216355  0  1.994182  0  0  1.546349  2.067509  0  2.199855  0
Tb  Tb2  1  0.21878339  0.29494254  0.28491176  1  0  2.249527  0  1.694626  0  0  2.101842  0  2.168442  0  0  2.216222  0  1.994964  0  0  1.54632  2.066663  0  2.201664  0
Tb  Tb3  1  0.92362168  0.70495921  0.21505181  1  0  2.249489  0  1.693934  0  0  2.101762  0  2.167922  0  0  2.216334  0  1.994181  0  0  1.546345  2.067456  0  2.199903  0
H  H4  1  0.37018325  0.88657212  0.86899944  1  0  0.111387  0  0.91749  0  0  0.122404  0  0.973946  0  0  0.125423  0  0.970396  0  0  0.146533  0.120295  0  0.97613  0
H  H5  1  0.48392660  0.11333550  0.63098992  1  0  0.111689  0  0.917101  0  0  0.122423  0  0.974123  0  0  0.125311  0  0.970737  0  0  0.14693  0.120431  0  0.976196  0
H  H6  1  0.62981004  0.11342861  0.13099845  1  0  0.111449  0  0.91742  0  0  0.12242  0  0.973917  0  0  0.125439  0  0.970364  0  0  0.146551  0.12031  0  0.9761  0
H  H7  1  0.51607372  0.88666425  0.36901155  1  0  0.11171  0  0.917115  0  0  0.122438  0  0.974142  0  0  0.125326  0  0.970755  0  0  0.146916  0.120449  0  0.9762  0
H  H8  1  0.25163039  0.84671915  0.04677543  1  0  0.337731  0  0.866712  0  0  0.319841  0  0.923375  0  0  0.327965  0  0.916859  0  0  0.335012  0.314108  0  0.928012  0
H  H9  1  0.40529130  0.15309592  0.45318967  1  0  0.336978  0  0.865694  0  0  0.318445  0  0.923237  0  0  0.326598  0  0.916713  0  0  0.335388  0.31272  0  0.927867  0
H  H10  1  0.74836692  0.15328059  0.95322222  1  0  0.337747  0  0.866728  0  0  0.319849  0  0.923399  0  0  0.327974  0  0.916883  0  0  0.335007  0.314115  0  0.928034  0
H  H11  1  0.59470702  0.84690284  0.54681156  1  0  0.337027  0  0.865618  0  0  0.318496  0  0.923161  0  0  0.326648  0  0.916634  0  0  0.335391  0.312773  0  0.927788  0
H  H12  1  0.48316455  0.43312518  0.64425189  1  0  0.446124  0  0.849541  0  0  0.415207  0  0.912617  0  0  0.427282  0  0.895232  0  0  0.306819  0.40674  0  0.924987  0
H  H13  1  0.05039356  0.56704328  0.85582127  1  0  0.44542  0  0.850786  0  0  0.4149  0  0.913076  0  0  0.426936  0  0.895793  0  0  0.306617  0.406422  0  0.925459  0
H  H14  1  0.51683578  0.56687159  0.35574963  1  0  0.44616  0  0.849486  0  0  0.415253  0  0.91255  0  0  0.427328  0  0.895166  0  0  0.306826  0.406784  0  0.924924  0
H  H15  1  0.94960727  0.43295448  0.14417973  1  0  0.445402  0  0.850815  0  0  0.414884  0  0.913099  0  0  0.426921  0  0.895816  0  0  0.306615  0.406404  0  0.925486  0
H  H16  1  0.61491320  0.43758237  0.74174121  1  0  0.437869  0  0.853172  0  0  0.406526  0  0.922353  0  0  0.417796  0  0.906078  0  0  0.309297  0.398529  0  0.934162  0
H  H17  1  0.17730224  0.56234395  0.75816849  1  0  0.437767  0  0.85387  0  0  0.406265  0  0.922945  0  0  0.417566  0  0.906615  0  0  0.30914  0.398307  0  0.934688  0
H  H18  1  0.38508211  0.56241638  0.25825926  1  0  0.437908  0  0.853131  0  0  0.406555  0  0.922322  0  0  0.417826  0  0.906047  0  0  0.309299  0.39856  0  0.934127  0
H  H19  1  0.82270010  0.43765382  0.24183403  1  0  0.437761  0  0.853826  0  0  0.40626  0  0.922943  0  0  0.417562  0  0.906611  0  0  0.309157  0.398302  0  0.934686  0
C  C20  1  0.63385702  0.73720502  0.96713194  1  0  0.003502  0  3.763095  0  0  -0.002874  0  4.024459  0  0  -0.005444  0  4.046761  0  0  0.094289  -0.00167  0  4.012181  0
C  C21  1  0.89671006  0.26291512  0.53289219  1  0  0.002955  0  3.763134  0  0  -0.003671  0  4.025175  0  0  -0.006212  0  4.047487  0  0  0.093339  -0.002411  0  4.012855  0
C  C22  1  0.36614875  0.26280265  0.03286380  1  0  0.003155  0  3.763079  0  0  -0.003085  0  4.024373  0  0  -0.005658  0  4.046671  0  0  0.094171  -0.001887  0  4.012105  0
C  C23  1  0.10328876  0.73708165  0.46710780  1  0  0.002844  0  3.763078  0  0  -0.003733  0  4.025051  0  0  -0.006274  0  4.047366  0  0  0.093292  -0.002472  0  4.012737  0
C  C24  1  0.79919939  0.67181661  0.95692879  1  0  0.705506  0  3.886266  0  0  0.654899  0  4.181665  0  0  0.691032  0  4.172886  0  0  0.240728  0.630582  0  4.189775  0
C  C25  1  0.12738205  0.32834403  0.54303276  1  0  0.707213  0  3.881589  0  0  0.655071  0  4.179524  0  0  0.69117  0  4.170792  0  0  0.240244  0.630727  0  4.187657  0
C  C26  1  0.20080588  0.32819306  0.04307354  1  0  0.705371  0  3.886366  0  0  0.654696  0  4.181821  0  0  0.690829  0  4.173047  0  0  0.240654  0.630383  0  4.189925  0
C  C27  1  0.87261626  0.67165471  0.45696389  1  0  0.707285  0  3.881563  0  0  0.655101  0  4.179593  0  0  0.691201  0  4.170862  0  0  0.24021  0.630755  0  4.187731  0
C  C28  1  0.44025005  0.83804846  0.91377921  1  0  0.285556  0  3.60442  0  0  0.221419  0  3.892654  0  0  0.236557  0  3.902317  0  0  0.17245  0.211864  0  3.886536  0
C  C29  1  0.60246197  0.16190587  0.58621390  1  0  0.285977  0  3.60314  0  0  0.221762  0  3.891494  0  0  0.237014  0  3.901197  0  0  0.172695  0.212051  0  3.885721  0
C  C30  1  0.55974824  0.16195326  0.08621892  1  0  0.28552  0  3.604549  0  0  0.221432  0  3.892759  0  0  0.236574  0  3.902423  0  0  0.172442  0.211883  0  3.886637  0
C  C31  1  0.39753935  0.83809288  0.41378734  1  0  0.285905  0  3.603183  0  0  0.221688  0  3.891523  0  0  0.23694  0  3.901226  0  0  0.172682  0.211984  0  3.885746  0
C  C32  1  0.42610235  0.69620960  0.13203486  1  0  0.724934  0  3.871488  0  0  0.676784  0  4.163877  0  0  0.7138  0  4.152873  0  0  0.249598  0.652372  0  4.171764  0
C  C33  1  0.73007176  0.30384591  0.36798807  1  0  0.726274  0  3.874978  0  0  0.678015  0  4.167036  0  0  0.715074  0  4.155975  0  0  0.250529  0.653517  0  4.174956  0
C  C34  1  0.57389996  0.30379113  0.86796303  1  0  0.72495  0  3.871433  0  0  0.676772  0  4.163944  0  0  0.713781  0  4.152942  0  0  0.24954  0.652353  0  4.171838  0
C  C35  1  0.26992655  0.69615283  0.63201087  1  0  0.726319  0  3.874992  0  0  0.678048  0  4.167045  0  0  0.715108  0  4.155983  0  0  0.250566  0.653556  0  4.174961  0
C  C36  1  0.48719882  0.75174041  0.04209114  1  0  0.022459  0  3.629196  0  0  0.00765  0  3.884285  0  0  0.00693  0  3.89999  0  0  0.106273  0.008193  0  3.873032  0
C  C37  1  0.73565395  0.24825944  0.45789057  1  0  0.021765  0  3.633925  0  0  0.008059  0  3.887384  0  0  0.007304  0  3.903136  0  0  0.108157  0.008706  0  3.875923  0
C  C38  1  0.51280146  0.24826528  0.95790794  1  0  0.02265  0  3.629145  0  0  0.007715  0  3.884365  0  0  0.007003  0  3.900061  0  0  0.106271  0.008258  0  3.873119  0
C  C39  1  0.26434686  0.75174130  0.54211114  1  0  0.021809  0  3.633912  0  0  0.008142  0  3.887285  0  0  0.007385  0  3.903035  0  0  0.108194  0.008782  0  3.875833  0
S  S40  1  0.97978721  0.00003311  0.75004834  1  0  1.547115  0  5.941936  0  0  1.436254  0  6.483579  0  0  1.488378  0  6.465813  0  0  0.520536  1.398156  0  6.50774  0
S  S41  1  0.02021010  0.99996664  0.24995313  1  0  1.547058  0  5.942052  0  0  1.436206  0  6.483688  0  0  1.488329  0  6.465934  0  0  0.520548  1.398104  0  6.507859  0
N  N42  1  0.60040039  0.78965195  0.88723222  1  0  -0.486946  0  3.157806  0  0  -0.446176  0  3.446599  0  0  -0.469513  0  3.462055  0  0  -0.383775  -0.435936  0  3.436679  0
N  N43  1  0.81089098  0.21045587  0.61279893  1  0  -0.487476  0  3.157229  0  0  -0.446503  0  3.446047  0  0  -0.469852  0  3.461482  0  0  -0.384307  -0.436395  0  3.436451  0
N  N44  1  0.39960092  0.21034978  0.11276668  1  0  -0.486927  0  3.15758  0  0  -0.446181  0  3.446331  0  0  -0.469519  0  3.461784  0  0  -0.383775  -0.435935  0  3.436414  0
N  N45  1  0.18910985  0.78954189  0.38720130  1  0  -0.487442  0  3.157244  0  0  -0.446466  0  3.446031  0  0  -0.469824  0  3.46147  0  0  -0.384278  -0.436367  0  3.436442  0
N  N46  1  0.36866091  0.81658044  0.00592314  1  0  -0.277689  0  3.383617  0  0  -0.216038  0  3.619789  0  0  -0.230422  0  3.631095  0  0  -0.352784  -0.206041  0  3.611032  0
N  N47  1  0.55237252  0.18328885  0.49403412  1  0  -0.276976  0  3.383616  0  0  -0.214837  0  3.619575  0  0  -0.229276  0  3.630924  0  0  -0.353802  -0.204901  0  3.610918  0
N  N48  1  0.63133889  0.18342128  0.99407575  1  0  -0.277683  0  3.383637  0  0  -0.215994  0  3.619809  0  0  -0.230383  0  3.631113  0  0  -0.352725  -0.205995  0  3.611049  0
N  N49  1  0.44762980  0.81671189  0.50596760  1  0  -0.277024  0  3.38353  0  0  -0.214903  0  3.619463  0  0  -0.229335  0  3.630804  0  0  -0.35381  -0.204968  0  3.610807  0
O  O50  1  0.88154978  0.65628642  0.86706457  1  0  -0.719644  0  2.075896  0  0  -0.656365  0  2.318965  0  0  -0.690804  0  2.304819  0  0  -0.381704  -0.637703  0  2.32655  0
O  O51  1  0.22521918  0.34399873  0.63290345  1  0  -0.720753  0  2.073062  0  0  -0.656365  0  2.31611  0  0  -0.69085  0  2.302043  0  0  -0.381448  -0.637881  0  2.323616  0
O  O52  1  0.11845501  0.34371927  0.13293298  1  0  -0.719539  0  2.07599  0  0  -0.656232  0  2.319062  0  0  -0.690667  0  2.304917  0  0  -0.381601  -0.637555  0  2.326635  0
O  O53  1  0.77478465  0.65599904  0.36709755  1  0  -0.720614  0  2.073145  0  0  -0.656282  0  2.316276  0  0  -0.690772  0  2.302205  0  0  -0.381397  -0.637809  0  2.323785  0
O  O54  1  0.06130545  0.91701834  0.80007057  1  0  -0.765265  0  1.937734  0  0  -0.722328  0  2.192842  0  0  -0.750632  0  2.177508  0  0  -0.398494  -0.707238  0  2.203194  0
O  O55  1  0.14399840  0.08284638  0.69974421  1  0  -0.765525  0  1.937395  0  0  -0.722757  0  2.192675  0  0  -0.751022  0  2.177266  0  0  -0.398821  -0.707733  0  2.202999  0
O  O56  1  0.93868886  0.08298141  0.19993244  1  0  -0.765238  0  1.937794  0  0  -0.722327  0  2.192947  0  0  -0.750623  0  2.177599  0  0  -0.398494  -0.707229  0  2.203295  0
O  O57  1  0.85600493  0.91715338  0.30026032  1  0  -0.765532  0  1.937476  0  0  -0.722739  0  2.19274  0  0  -0.751013  0  2.177333  0  0  -0.398826  -0.707717  0  2.20306  0
O  O58  1  0.80211992  0.90364306  0.66913532  1  0  -0.802812  0  2.004312  0  0  -0.75211  0  2.262924  0  0  -0.780829  0  2.247092  0  0  -0.414724  -0.736893  0  2.274166  0
O  O59  1  0.89924436  0.09666798  0.83126966  1  0  -0.802835  0  2.007  0  0  -0.752611  0  2.266111  0  0  -0.781398  0  2.250349  0  0  -0.414394  -0.737479  0  2.277289  0
O  O60  1  0.19788290  0.09635569  0.33086515  1  0  -0.802813  0  2.004373  0  0  -0.752126  0  2.262988  0  0  -0.780845  0  2.247159  0  0  -0.414718  -0.736902  0  2.274228  0
O  O61  1  0.10074893  0.90333275  0.16872899  1  0  -0.802811  0  2.006945  0  0  -0.752571  0  2.266043  0  0  -0.781365  0  2.250286  0  0  -0.41442  -0.737444  0  2.277225  0
O  O62  1  0.85678065  0.63443706  0.03087563  1  0  -0.685496  0  2.048651  0  0  -0.639141  0  2.303687  0  0  -0.671577  0  2.288072  0  0  -0.392852  -0.62291  0  2.311402  0
O  O63  1  0.22226993  0.36560671  0.46901824  1  0  -0.686054  0  2.048501  0  0  -0.639136  0  2.304162  0  0  -0.671535  0  2.288553  0  0  -0.39258  -0.62274  0  2.311933  0
O  O64  1  0.14322813  0.36557359  0.96912312  1  0  -0.68532  0  2.048653  0  0  -0.63897  0  2.3037  0  0  -0.6714  0  2.288099  0  0  -0.392813  -0.622733  0  2.311413  0
O  O65  1  0.77773143  0.63438608  0.53098079  1  0  -0.686153  0  2.04836  0  0  -0.63921  0  2.304047  0  0  -0.671612  0  2.288436  0  0  -0.392599  -0.622814  0  2.311815  0
O  O66  1  0.23981941  0.68336539  0.15849542  1  0  -0.726105  0  2.084805  0  0  -0.675984  0  2.348508  0  0  -0.710375  0  2.331366  0  0  -0.40666  -0.658693  0  2.356627  0
O  O67  1  0.55644704  0.31637133  0.34144196  1  0  -0.726747  0  2.086405  0  0  -0.676665  0  2.349831  0  0  -0.711076  0  2.332764  0  0  -0.407021  -0.659233  0  2.357874  0
O  O68  1  0.76018092  0.31663135  0.84149922  1  0  -0.726115  0  2.084808  0  0  -0.675961  0  2.348482  0  0  -0.710336  0  2.331343  0  0  -0.406589  -0.658656  0  2.356602  0
O  O69  1  0.44355229  0.68362643  0.65855827  1  0  -0.726764  0  2.086332  0  0  -0.676679  0  2.34977  0  0  -0.711092  0  2.3327  0  0  -0.407024  -0.659256  0  2.357814  0
O  O70  1  0.55724059  0.65991629  0.17737497  1  0  -0.728169  0  2.067626  0  0  -0.671445  0  2.31763  0  0  -0.706529  0  2.302716  0  0  -0.380304  -0.653211  0  2.324843  0
O  O71  1  0.89763174  0.34055666  0.32283650  1  0  -0.728036  0  2.06703  0  0  -0.6713  0  2.316782  0  0  -0.706395  0  2.302022  0  0  -0.380533  -0.65295  0  2.32406  0
O  O72  1  0.44276172  0.34008443  0.82262216  1  0  -0.7282  0  2.06764  0  0  -0.671457  0  2.317628  0  0  -0.706528  0  2.302718  0  0  -0.3803  -0.653224  0  2.324874  0
O  O73  1  0.10236559  0.65944011  0.67716426  1  0  -0.72806  0  2.067002  0  0  -0.671338  0  2.316754  0  0  -0.706439  0  2.301997  0  0  -0.380573  -0.652992  0  2.324027  0
O  O74  1  0.62875962  0.47749649  0.68244299  1  0  -0.905467  0  1.862072  0  0  -0.861804  0  2.068865  0  0  -0.890637  0  2.029906  0  0  -0.65661  -0.848015  0  2.092229  0
O  O75  1  0.15162523  0.52262278  0.81760444  1  0  -0.905265  0  1.863888  0  0  -0.861457  0  2.070378  0  0  -0.890326  0  2.031359  0  0  -0.656425  -0.847847  0  2.093588  0
O  O76  1  0.37123620  0.52250029  0.31755930  1  0  -0.905566  0  1.862034  0  0  -0.861883  0  2.068787  0  0  -0.890717  0  2.029824  0  0  -0.656605  -0.848091  0  2.092145  0
O  O77  1  0.84837410  0.47737498  0.18239655  1  0  -0.905259  0  1.863832  0  0  -0.861453  0  2.07036  0  0  -0.890335  0  2.031332  0  0  -0.656453  -0.84785  0  2.09357  0
