# generated using pymatgen
data_CoH18C20S2(N4O)2
_symmetry_space_group_name_H-M   'P 1'
_cell_length_a   9.02962012
_cell_length_b   10.47619862
_cell_length_c   13.49599550
_cell_angle_alpha   70.76721197
_cell_angle_beta   76.28817106
_cell_angle_gamma   67.39883568
_symmetry_Int_Tables_number   1
_chemical_formula_structural   CoH18C20S2(N4O)2
_chemical_formula_sum   'Co2 H36 C40 S4 N16 O4'
_cell_volume   1103.87353300
_cell_formula_units_Z   2
loop_
 _symmetry_equiv_pos_site_id
 _symmetry_equiv_pos_as_xyz
  1  'x, y, z'
loop_
 _atom_site_type_symbol
 _atom_site_label
 _atom_site_symmetry_multiplicity
 _atom_site_fract_x
 _atom_site_fract_y
 _atom_site_fract_z
 _atom_site_occupancy
 _atom_site_pbe_bader_charge
 _atom_site_pbe_bader_spin_density
 _atom_site_pbe_cm5_charge
 _atom_site_pbe_ddec_charge
 _atom_site_pbe_ddec_spin_density
 _atom_site_pbe_ddec_sum_bond_order
 _atom_site_pbe_magmom
Co  Co0  1  0.49999862  0.00000004  0.49999826  1  1.027926  -0.832703  0.668625  0.53653  -0.944785  3.39475  -0.82
Co  Co1  1  0.99999863  0.49999987  0.49999943  1  1.026237  -0.837839  0.663123  0.538711  -0.949646  3.379032  -0.825
H  H2  1  0.86615275  0.42753645  0.05025964  1  0.490494  -7.7e-05  0.307094  0.269555  -3.4e-05  0.9829  0.0
H  H3  1  0.13385059  0.57246307  0.94974050  1  0.49042  -7.7e-05  0.307112  0.26959  -3.4e-05  0.982989  0.0
H  H4  1  0.36670766  0.88541336  0.03408652  1  0.482695  -5.6e-05  0.308403  0.27046  -2.1e-05  0.985672  0.0
H  H5  1  0.63329568  0.11458617  0.96591362  1  0.482681  -5.6e-05  0.308411  0.270467  -2.1e-05  0.985645  0.0
H  H6  1  0.93245747  0.29294563  0.91979370  1  0.162666  -0.0  0.121796  0.167315  2.2e-05  0.999852  0.0
H  H7  1  0.06754472  0.70705391  0.08020736  1  0.162664  -0.0  0.121803  0.167326  2.2e-05  0.999809  0.0
H  H8  1  0.12030645  0.32506848  0.88503544  1  0.167282  -0.000282  0.120214  0.157643  -0.000183  1.012205  0.0
H  H9  1  0.87969954  0.67493000  0.11496679  1  0.167303  -0.000282  0.120235  0.157671  -0.000183  1.012196  0.0
H  H10  1  0.89306179  0.45676151  0.20914287  1  0.071262  0.000193  0.10907  0.104026  0.000226  1.00403  0.0
H  H11  1  0.10693966  0.54323696  0.79085858  1  0.071238  0.000193  0.109074  0.104013  0.000226  1.004041  0.0
H  H12  1  0.06478713  0.29781145  0.22648716  1  0.106196  -0.001715  0.10697  0.093998  -0.001351  1.032033  0.0
H  H13  1  0.93520902  0.70218596  0.77351465  1  0.106166  -0.001715  0.106984  0.094015  -0.001351  1.031983  0.0
H  H14  1  0.81079463  0.17435148  0.15732749  1  0.083048  4.5e-05  0.101891  0.108664  2.1e-05  1.06168  0.0
H  H15  1  0.18920184  0.82565126  0.84267066  1  0.083071  4.5e-05  0.10189  0.108663  2.1e-05  1.061627  0.0
H  H16  1  0.63741690  0.04342753  0.27980470  1  0.109234  1e-06  0.114012  0.087463  0.000185  1.037558  0.0
H  H17  1  0.36258195  0.95657194  0.72019096  1  0.109317  1e-06  0.114034  0.087512  0.000185  1.03758  0.0
H  H18  1  0.66249166  0.17941598  0.52934034  1  0.088962  6e-06  0.112374  0.086478  0.000195  1.035551  0.0
H  H19  1  0.33750608  0.82058030  0.47065782  1  0.088908  6e-06  0.112427  0.086584  0.000195  1.035483  0.0
H  H20  1  0.83501156  0.32137144  0.41505665  1  0.098483  8.4e-05  0.102624  0.121169  0.000153  1.039554  0.0
H  H21  1  0.16498462  0.67862594  0.58494294  1  0.098414  8.4e-05  0.102588  0.121131  0.000153  1.039587  0.0
H  H22  1  0.42782967  0.75823285  0.91146303  1  0.122776  0.0  0.121244  0.152926  1.4e-05  1.005238  0.0
H  H23  1  0.57217523  0.24176559  0.08853568  1  0.12272  0.0  0.121233  0.152899  1.4e-05  1.00522  0.0
H  H24  1  0.61802492  0.78502708  0.87166844  1  0.139796  -0.00025  0.119354  0.157862  -0.000159  1.004704  0.0
H  H25  1  0.38198405  0.21497566  0.12833147  1  0.139932  -0.00025  0.119359  0.157848  -0.000159  1.004719  0.0
H  H26  1  0.40365147  0.94170278  0.17993712  1  0.103329  7.5e-05  0.110941  0.106436  0.000104  0.985015  0.0
H  H27  1  0.59634918  0.05829783  0.82006390  1  0.103347  7.5e-05  0.110934  0.106427  0.000104  0.984972  0.0
H  H28  1  0.57490160  0.78084901  0.20441166  1  0.084507  -0.001759  0.10233  0.081201  -0.00134  1.040916  0.0
H  H29  1  0.42509946  0.21915053  0.79558884  1  0.084443  -0.001758  0.102319  0.081195  -0.00134  1.040888  0.0
H  H30  1  0.53263927  0.54225117  0.29631163  1  0.11976  -0.000207  0.102797  0.113222  -0.000153  1.035863  0.0
H  H31  1  0.46736252  0.45774945  0.70368921  1  0.119768  -0.000207  0.102797  0.113226  -0.000153  1.035869  0.0
H  H32  1  0.34698169  0.41996707  0.42136070  1  0.11777  0.00017  0.117277  0.093658  0.00033  1.023573  0.0
H  H33  1  0.65302012  0.58003353  0.57863940  1  0.11776  0.00017  0.117284  0.093671  0.00033  1.023566  0.0
H  H34  1  0.95781416  0.79975412  0.38559558  1  0.122914  0.000172  0.118321  0.09488  0.000312  1.02051  0.0
H  H35  1  0.04218506  0.20024430  0.61440178  1  0.122891  0.000172  0.118304  0.09491  0.000312  1.020475  0.0
H  H36  1  0.12796723  0.93764032  0.25813031  1  0.116967  -4.6e-05  0.105384  0.123263  -4.5e-05  1.026439  0.0
H  H37  1  0.87203004  0.06236026  0.74186754  1  0.116918  -4.6e-05  0.105384  0.123274  -4.5e-05  1.026461  0.0
C  C38  1  0.31665885  0.24242874  0.60371078  1  0.532157  0.003332  0.150527  0.238544  0.010172  4.2827  0.01
C  C39  1  0.68333725  0.75757189  0.39629020  1  0.532247  0.003329  0.150532  0.238587  0.010169  4.282714  0.01
C  C40  1  0.18173240  0.25559344  0.39886556  1  0.55859  0.003397  0.152775  0.252851  0.010131  4.276869  0.01
C  C41  1  0.81826523  0.74440611  0.60113620  1  0.559033  0.003395  0.152756  0.252825  0.010131  4.276833  0.01
C  C42  1  0.14269602  0.11098062  0.92080951  1  0.915243  -0.000154  0.211649  0.371788  -8.8e-05  3.957131  0.0
C  C43  1  0.85729406  0.88901468  0.07919527  1  0.914595  -0.000155  0.211706  0.37184  -8.8e-05  3.956832  0.0
C  C44  1  0.05757966  0.25124247  0.93869912  1  -0.021626  -0.000222  -0.133246  -0.363589  -0.000102  3.95284  0.0
C  C45  1  0.94242217  0.74875811  0.06129950  1  -0.02165  -0.000222  -0.133265  -0.363598  -0.000102  3.952813  0.0
C  C46  1  0.06641920  0.24225598  0.05320441  1  1.470376  -2.2e-05  0.246383  0.538211  1.5e-05  4.092601  0.0
C  C47  1  0.93358372  0.75774464  0.94679700  1  1.470129  -2.2e-05  0.246348  0.538098  1.5e-05  4.092608  0.0
C  C48  1  0.94305970  0.34646772  0.20182848  1  0.34349  -0.002038  -0.054335  -0.061237  -0.001026  3.908594  -0.002
C  C49  1  0.05693604  0.65353077  0.79817386  1  0.343339  -0.002038  -0.054346  -0.061261  -0.001026  3.908591  -0.002
C  C50  1  0.83746297  0.26241895  0.27448551  1  0.011176  0.005235  0.013308  0.148737  0.005055  3.915294  0.003
C  C51  1  0.16253045  0.73758274  0.72551486  1  0.0114  0.005235  0.013284  0.148724  0.005055  3.915088  0.003
C  C52  1  0.78034594  0.18154101  0.23863076  1  -0.056492  -0.00111  -0.093408  -0.183984  -0.000359  3.96515  -0.001
C  C53  1  0.21965287  0.81845850  0.76136786  1  -0.056518  -0.00111  -0.0934  -0.183941  -0.000359  3.965087  -0.001
C  C54  1  0.68311093  0.10605072  0.30719204  1  0.490032  0.004987  0.039192  0.082757  0.005018  3.942525  0.003
C  C55  1  0.31688715  0.89394771  0.69280550  1  0.490065  0.004987  0.039132  0.082597  0.005018  3.942566  0.003
C  C56  1  0.69689481  0.18269825  0.44599742  1  0.457405  0.00491  0.042055  0.085589  0.00491  3.92072  0.003
C  C57  1  0.30310059  0.81730125  0.55400025  1  0.457461  0.00491  0.041954  0.085464  0.00491  3.920772  0.003
C  C58  1  0.79386965  0.26141927  0.38139495  1  -0.00169  -0.001353  -0.084367  -0.175284  -0.000476  3.922571  -0.001
C  C59  1  0.20612573  0.73858026  0.61860420  1  -0.001786  -0.001353  -0.084319  -0.175253  -0.000476  3.922462  -0.001
C  C60  1  0.63053152  0.57260292  0.90853718  1  0.907578  -5.8e-05  0.199103  0.353929  -2.6e-05  3.961893  0.0
C  C61  1  0.36947554  0.42740194  0.09146025  1  0.907604  -5.8e-05  0.199184  0.353932  -2.6e-05  3.961759  0.0
C  C62  1  0.55405395  0.71321705  0.92750020  1  0.022866  -0.000136  -0.13284  -0.36114  -4.3e-05  3.979551  0.0
C  C63  1  0.44595083  0.28678781  0.07249759  1  0.022789  -0.000136  -0.132795  -0.360992  -4.3e-05  3.979439  0.0
C  C64  1  0.56747502  0.70616340  0.04055626  1  1.44496  3e-05  0.249733  0.54045  5.7e-05  4.098934  0.0
C  C65  1  0.43252979  0.29383829  0.95944457  1  1.444901  3e-05  0.249803  0.540532  5.7e-05  4.09884  0.0
C  C66  1  0.45122003  0.82724042  0.18356753  1  0.305523  -0.00165  -0.054101  -0.057453  -0.000779  3.889578  -0.002
C  C67  1  0.54878136  0.17276127  0.81643310  1  0.305551  -0.00165  -0.054073  -0.057431  -0.000779  3.88952  -0.002
C  C68  1  0.34485552  0.75035863  0.26487169  1  0.040795  0.005235  0.009811  0.138234  0.005039  3.918627  0.003
C  C69  1  0.65514361  0.24964305  0.73512780  1  0.040601  0.005236  0.009833  0.138359  0.005039  3.918511  0.003
C  C70  1  0.40560755  0.60336723  0.31328027  1  -0.062761  -0.00151  -0.08337  -0.167814  -0.000655  3.941082  -0.001
C  C71  1  0.59439273  0.39663443  0.68671831  1  -0.062585  -0.00151  -0.083396  -0.167907  -0.000655  3.941125  -0.001
C  C72  1  0.30294141  0.53425295  0.38339138  1  0.474881  0.00467  0.047317  0.090761  0.004699  3.904202  0.003
C  C73  1  0.69706154  0.46574764  0.61660781  1  0.474866  0.00467  0.047283  0.09073  0.004699  3.904232  0.003
C  C74  1  0.08532950  0.74651299  0.36305420  1  0.444064  0.004583  0.044083  0.084929  0.004567  3.918258  0.003
C  C75  1  0.91467087  0.25348542  0.63694225  1  0.444089  0.004583  0.044213  0.084962  0.004567  3.918201  0.003
C  C76  1  0.18120511  0.82252680  0.29220188  1  -0.06892  -0.001156  -0.084314  -0.178111  -0.000398  3.928848  -0.001
C  C77  1  0.81879298  0.17747162  0.70779566  1  -0.068865  -0.001156  -0.084391  -0.178208  -0.000398  3.928814  -0.001
S  S78  1  0.19856289  0.37966462  0.64738953  1  0.103524  -0.070403  -0.104672  -0.283401  -0.038545  2.581212  -0.049
S  S79  1  0.80144012  0.62033276  0.35261048  1  0.103465  -0.070414  -0.10469  -0.283456  -0.038551  2.581067  -0.049
S  S80  1  0.29558049  0.11709849  0.35561647  1  0.091967  -0.075888  -0.108384  -0.277868  -0.041011  2.537276  -0.053
S  S81  1  0.70441791  0.88290210  0.64438268  1  0.091964  -0.075882  -0.108377  -0.277838  -0.041008  2.537255  -0.053
N  N82  1  0.39707256  0.14509637  0.56720380  1  -1.285746  -0.028711  -0.411886  -0.42871  -0.015533  3.578385  -0.024
N  N83  1  0.60292935  0.85490097  0.43279343  1  -1.285784  -0.028702  -0.411857  -0.428697  -0.015528  3.578529  -0.024
N  N84  1  0.10054718  0.35456523  0.43331661  1  -1.287123  -0.027813  -0.416673  -0.437412  -0.014921  3.578459  -0.023
N  N85  1  0.89945349  0.64543536  0.56668293  1  -1.287721  -0.027816  -0.416649  -0.437398  -0.014922  3.578425  -0.023
N  N86  1  0.64043359  0.10600110  0.40994150  1  -1.194392  0.008039  -0.33091  -0.168329  0.006843  3.662097  0.005
N  N87  1  0.35956490  0.89399624  0.59005552  1  -1.194483  0.008039  -0.330811  -0.168234  0.006843  3.661984  0.005
N  N88  1  0.95676482  0.35056931  0.09164211  1  -1.250425  -0.000147  -0.423404  -0.356051  2e-06  3.564551  0.0
N  N89  1  0.04323892  0.64942914  0.90835825  1  -1.250068  -0.000147  -0.423377  -0.355992  2e-06  3.564609  0.0
N  N90  1  0.21546072  0.99555439  0.91193810  1  -1.242435  -2.9e-05  -0.309609  -0.415425  5e-06  2.865812  0.0
N  N91  1  0.78453413  0.00444949  0.08806518  1  -1.241797  -2.9e-05  -0.309655  -0.41548  5e-06  2.865576  0.0
N  N92  1  0.14397658  0.60375406  0.40763249  1  -1.194505  0.007845  -0.326389  -0.170683  0.006643  3.649207  0.005
N  N93  1  0.85602450  0.39624546  0.59236652  1  -1.194517  0.007845  -0.326376  -0.170633  0.006643  3.649261  0.005
N  N94  1  0.45753207  0.81473465  0.07777765  1  -1.204489  0.00018  -0.410661  -0.338027  0.000299  3.520688  0.0
N  N95  1  0.54247012  0.18526489  0.92222341  1  -1.204427  0.00018  -0.410716  -0.338118  0.000299  3.520759  0.0
N  N96  1  0.69456345  0.45815767  0.89577100  1  -1.205923  2.5e-05  -0.310534  -0.398771  4.9e-05  2.816141  0.0
N  N97  1  0.30544437  0.54184508  0.10422983  1  -1.206004  2.5e-05  -0.310626  -0.398822  4.9e-05  2.816012  0.0
O  O98  1  0.17047690  0.14159409  0.10457215  1  -1.179085  -0.000828  -0.301101  -0.513603  -0.000457  2.153904  0.0
O  O99  1  0.82952148  0.85840336  0.89543301  1  -1.17898  -0.000828  -0.301108  -0.513574  -0.000457  2.153805  0.0
O  O100  1  0.67724613  0.60908747  0.08970668  1  -1.174137  -0.00032  -0.299738  -0.517738  -0.000144  2.179855  0.0
O  O101  1  0.32275638  0.39091425  0.91029598  1  -1.174061  -0.00032  -0.299812  -0.51785  -0.000144  2.179855  0.0
