# generated using pymatgen
data_PrH14C27N5O6
_symmetry_space_group_name_H-M   'P 1'
_cell_length_a   9.48677431
_cell_length_b   9.98703299
_cell_length_c   13.94085368
_cell_angle_alpha   92.61476984
_cell_angle_beta   93.18866220
_cell_angle_gamma   97.13726711
_symmetry_Int_Tables_number   1
_chemical_formula_structural   PrH14C27N5O6
_chemical_formula_sum   'Pr2 H28 C54 N10 O12'
_cell_volume   1306.71788832
_cell_formula_units_Z   2
loop_
 _symmetry_equiv_pos_site_id
 _symmetry_equiv_pos_as_xyz
  1  'x, y, z'
loop_
 _atom_site_type_symbol
 _atom_site_label
 _atom_site_symmetry_multiplicity
 _atom_site_fract_x
 _atom_site_fract_y
 _atom_site_fract_z
 _atom_site_occupancy
 _atom_site_pbe_bader_charge
 _atom_site_pbe_bader_spin_density
 _atom_site_pbe_cm5_charge
 _atom_site_pbe_ddec_charge
 _atom_site_pbe_ddec_spin_density
 _atom_site_pbe_ddec_sum_bond_order
 _atom_site_pbe_magmom
Pr  Pr0  1  0.11371263  0.55696245  0.88431074  1  2.222809  0  1.498128  1.938042  0  2.287339  0
Pr  Pr1  1  0.88628305  0.44303771  0.11568757  1  2.222722  0  1.498094  1.937908  0  2.287512  0
H  H2  1  0.91129433  0.15834866  0.38533018  1  0.553118  0  0.305009  0.286314  0  0.996755  0
H  H3  1  0.08870664  0.84165149  0.61467047  1  0.553137  0  0.305  0.286309  0  0.99677  0
H  H4  1  0.35939382  0.32617246  0.90128018  1  0.120555  0  0.115727  0.079392  0  1.042102  0
H  H5  1  0.64060886  0.67382465  0.09872186  1  0.118432  0  0.115744  0.079411  0  1.042142  0
H  H6  1  0.47746420  0.15065654  0.81452088  1  0.101844  0  0.109218  0.114286  0  0.998823  0
H  H7  1  0.52253636  0.84934060  0.18547749  1  0.101883  0  0.109211  0.114291  0  0.998824  0
H  H8  1  0.39235882  0.08046970  0.64192975  1  0.136816  0  0.115962  0.126129  0  0.988138  0
H  H9  1  0.60764201  0.91952946  0.35806799  1  0.136884  0  0.115956  0.126088  0  0.988209  0
H  H10  1  0.80288821  0.33854697  0.46192422  1  0.095439  0  0.113147  0.120717  0  1.000468  0
H  H11  1  0.19711592  0.66145317  0.53807726  1  0.09554  0  0.11315  0.120725  0  1.000425  0
H  H12  1  0.70998083  0.51850656  0.56437908  1  0.091125  0  0.110445  0.116273  0  0.981204  0
H  H13  1  0.29002370  0.48149662  0.43562182  1  0.091226  0  0.110435  0.116254  0  0.981223  0
H  H14  1  0.83660472  0.59124263  0.72435444  1  0.129994  0  0.116532  0.077946  0  1.048044  0
H  H15  1  0.16340179  0.40875955  0.27564578  1  0.130069  0  0.116537  0.077931  0  1.048041  0
H  H16  1  0.28429852  0.89159628  0.37446405  1  0.102024  0  0.106548  0.111449  0  1.005271  0
H  H17  1  0.71569860  0.10839880  0.62553842  1  0.100197  0  0.106533  0.111478  0  1.005217  0
H  H18  1  0.28907094  0.74462399  0.22539187  1  0.056521  0  0.102132  0.09989  0  1.008519  0
H  H19  1  0.71093160  0.25537210  0.77461228  1  0.056613  0  0.102138  0.099852  0  1.008541  0
H  H20  1  0.96096348  0.94685196  0.08918997  1  0.058197  0  0.110243  0.113389  0  0.985984  0
H  H21  1  0.03904699  0.05314819  0.91081175  1  0.058014  0  0.110243  0.1134  0  0.985895  0
H  H22  1  0.95444363  0.09005515  0.23711010  1  0.136577  0  0.109401  0.118512  0  1.04348  0
H  H23  1  0.04555707  0.90994298  0.76289047  1  0.136656  0  0.109396  0.118533  0  1.043528  0
H  H24  1  0.53838012  0.87057317  0.69513623  1  0.131032  0  0.113882  0.125846  0  1.003468  0
H  H25  1  0.46161331  0.12942600  0.30485908  1  0.131152  0  0.113894  0.125831  0  1.003431  0
H  H26  1  0.75890578  0.80531729  0.78273434  1  0.140596  0  0.110996  0.109854  0  1.032147  0
H  H27  1  0.24109004  0.19468390  0.21726042  1  0.140581  0  0.110981  0.10984  0  1.032111  0
H  H28  1  0.48090300  0.53740551  0.94256495  1  0.100976  0  0.118042  0.077054  0  1.071036  0
H  H29  1  0.51909363  0.46260171  0.05743508  1  0.100933  0  0.118063  0.077095  0  1.070962  0
C  C30  1  0.32505231  0.29312880  0.82714786  1  0.49245  0  0.048103  0.099202  0  3.988857  0
C  C31  1  0.67495101  0.70686528  0.17285337  1  0.495432  0  0.048053  0.099178  0  3.988993  0
C  C32  1  0.39179268  0.19537083  0.77773677  1  0.024164  0  -0.085946  -0.130294  0  3.985597  0
C  C33  1  0.60820669  0.80462527  0.22226439  1  0.023794  0  -0.085952  -0.130286  0  3.985696  0
C  C34  1  0.34606482  0.15717978  0.68345821  1  -0.082762  0  -0.058023  -0.046753  0  3.90249  0
C  C35  1  0.65393560  0.84281634  0.31654084  1  -0.083114  0  -0.057972  -0.046716  0  3.902587  0
C  C36  1  0.23086002  0.21451641  0.64123131  1  0.011033  0  0.00288  -0.005482  0  3.979901  0
C  C37  1  0.76913830  0.78547968  0.35877125  1  0.011073  0  0.002867  -0.005498  0  3.979867  0
C  C38  1  0.17021400  0.17575028  0.54632082  1  0.410246  0  0.084317  0.087657  0  4.108667  0
C  C39  1  0.82978459  0.82424782  0.45368254  1  0.410483  0  0.084325  0.087618  0  4.108611  0
C  C40  1  0.04427162  0.22303178  0.51278572  1  0.420517  0  0.092956  0.08352  0  4.046353  0
C  C41  1  0.95572921  0.77696736  0.48721489  1  0.420579  0  0.092995  0.083572  0  4.046296  0
C  C42  1  0.97732073  0.32003273  0.56547123  1  0.000368  0  0.00294  -0.012802  0  4.015572  0
C  C43  1  0.02268235  0.67996742  0.43452950  1  -0.000425  0  0.002906  -0.012925  0  4.01557  0
C  C44  1  0.85470623  0.37439861  0.53174811  1  -0.00767  0  -0.06406  -0.059197  0  3.9152  0
C  C45  1  0.14529698  0.62560254  0.46825409  1  -0.00678  0  -0.064031  -0.059194  0  3.914999  0
C  C46  1  0.80288576  0.47203086  0.58841969  1  -0.044908  0  -0.083773  -0.128897  0  3.995373  0
C  C47  1  0.19711600  0.52796726  0.41158236  1  -0.045216  0  -0.08379  -0.128822  0  3.995177  0
C  C48  1  0.87281693  0.51293696  0.67830374  1  0.463577  0  0.051238  0.105049  0  3.972926  0
C  C49  1  0.12718482  0.48706116  0.32169831  1  0.463459  0  0.05129  0.105078  0  3.9727  0
C  C50  1  0.04130276  0.36597930  0.65834829  1  0.526355  0  0.12193  0.128104  0  3.979305  0
C  C51  1  0.95869899  0.63401882  0.34165447  1  0.526223  0  0.12192  0.128212  0  3.979271  0
C  C52  1  0.16606008  0.31043414  0.69730917  1  0.48281  0  0.120251  0.128853  0  3.972612  0
C  C53  1  0.83394154  0.68956296  0.30269427  1  0.482859  0  0.120194  0.12886  0  3.972516  0
C  C54  1  0.11477160  0.08019695  0.40568555  1  0.946754  0  0.217954  0.291069  0  4.018702  0
C  C55  1  0.88522580  0.91980016  0.59431701  1  0.946679  0  0.217968  0.29104  0  4.018774  0
C  C56  1  0.11720034  0.99799346  0.31679473  1  -0.057599  0  -0.00858  0.003235  0  4.03218  0
C  C57  1  0.88280062  0.00200668  0.68320736  1  -0.05748  0  -0.008577  0.003317  0  4.032203  0
C  C58  1  0.21422821  0.90252232  0.31140279  1  0.006115  0  -0.085258  -0.113204  0  3.98158  0
C  C59  1  0.78577289  0.09747882  0.68860077  1  0.007925  0  -0.085281  -0.113421  0  3.981586  0
C  C60  1  0.21713069  0.82167035  0.22787790  1  -0.053547  0  -0.089716  -0.11499  0  4.000707  0
C  C61  1  0.78287225  0.17832876  0.77212638  1  -0.054002  0  -0.08965  -0.11478  0  4.000489  0
C  C62  1  0.12567561  0.83645169  0.14757204  1  -0.027321  0  -0.006535  -0.01528  0  3.958241  0
C  C63  1  0.87433221  0.16354441  0.85243016  1  -0.027162  0  -0.006544  -0.015189  0  3.958229  0
C  C64  1  0.03154631  0.93370156  0.15162858  1  -0.0083  0  -0.081074  -0.098411  0  3.963376  0
C  C65  1  0.96846072  0.06629657  0.84837150  1  -0.006041  0  -0.081063  -0.098414  0  3.963438  0
C  C66  1  0.02643979  0.01312769  0.23576245  1  -0.065925  0  -0.083806  -0.11116  0  3.943742  0
C  C67  1  0.97356063  0.98686841  0.76423875  1  -0.068138  0  -0.083832  -0.111273  0  3.943915  0
C  C68  1  0.12380133  0.74425846  0.05978129  1  1.56966  0  0.221471  0.632331  0  4.165636  0
C  C69  1  0.87620518  0.25574373  0.94021821  1  1.569579  0  0.221375  0.632116  0  4.165793  0
C  C70  1  0.39790300  0.73889500  0.77562731  1  0.475622  0  0.12435  0.12345  0  3.958936  0
C  C71  1  0.60209493  0.26110619  0.22436897  1  0.475712  0  0.124366  0.123358  0  3.959005  0
C  C72  1  0.53152141  0.79794714  0.75116487  1  -0.015401  0  -0.070328  -0.126143  0  3.914115  0
C  C73  1  0.46847322  0.20205306  0.24882837  1  -0.015552  0  -0.070229  -0.125839  0  3.914027  0
C  C74  1  0.65260118  0.76084256  0.79871808  1  -0.082632  0  -0.055613  -0.030384  0  3.906506  0
C  C75  1  0.34739371  0.23915964  0.20127812  1  -0.082498  0  -0.055702  -0.030604  0  3.90663  0
C  C76  1  0.63669305  0.66505557  0.86882566  1  0.058436  0  -0.007238  -0.079459  0  3.934019  0
C  C77  1  0.36330317  0.33494864  0.13117066  1  0.058105  0  -0.007168  -0.079315  0  3.933917  0
C  C78  1  0.49872869  0.61222654  0.88883481  1  0.484567  0  0.061647  0.094985  0  3.946154  0
C  C79  1  0.50126872  0.38777867  0.11116375  1  0.484602  0  0.061614  0.094937  0  3.946221  0
C  C80  1  0.26099224  0.77204105  0.72726700  1  1.614061  0  0.215551  0.548552  0  4.24314  0
C  C81  1  0.73900450  0.22795912  0.27272991  1  1.614474  0  0.215474  0.548382  0  4.243343  0
C  C82  1  0.76279752  0.61555580  0.91958887  1  1.600814  0  0.236611  0.63144  0  4.171507  0
C  C83  1  0.23719883  0.38444941  0.08041037  1  1.601222  0  0.236515  0.631378  0  4.171641  0
N  N84  1  0.21664836  0.35053926  0.78878968  1  -1.253469  0  -0.368343  -0.376077  0  3.494565  0
N  N85  1  0.78335391  0.64945483  0.21121152  1  -1.253858  0  -0.368261  -0.376036  0  3.49447  0
N  N86  1  0.98681936  0.46062759  0.71304343  1  -1.234297  0  -0.368496  -0.355149  0  3.504267  0
N  N87  1  0.01318134  0.53937054  0.28695786  1  -1.234209  0  -0.368503  -0.355233  0  3.504171  0
N  N88  1  0.21387794  0.08822833  0.47880547  1  -1.134052  0  -0.342389  -0.399836  0  3.180421  0
N  N89  1  0.78611827  0.91176775  0.52119844  1  -1.134028  0  -0.342442  -0.399826  0  3.180456  0
N  N90  1  0.00989000  0.16027876  0.42364988  1  -1.272245  0  -0.368485  -0.287079  0  3.564859  0
N  N91  1  0.99010978  0.83972037  0.57635141  1  -1.272213  0  -0.368481  -0.287053  0  3.56478  0
N  N92  1  0.38198010  0.64768873  0.84393868  1  -1.266216  0  -0.367394  -0.340947  0  3.490259  0
N  N93  1  0.61801296  0.35231548  0.15605896  1  -1.266413  0  -0.367414  -0.340995  0  3.490504  0
O  O94  1  0.18701922  0.78100429  0.98639000  1  -1.169008  0  -0.355312  -0.58705  0  2.102039  0
O  O95  1  0.81298360  0.21900194  0.01360879  1  -1.168894  0  -0.355272  -0.586911  0  2.10206  0
O  O96  1  0.05441782  0.62516987  0.06255441  1  -1.217722  0  -0.440982  -0.73177  0  2.422775  0
O  O97  1  0.94558065  0.37483535  0.93744347  1  -1.217521  0  -0.440943  -0.73178  0  2.422927  0
O  O98  1  0.26647221  0.84496431  0.65599159  1  -1.177238  0  -0.304785  -0.526197  0  2.16501  0
O  O99  1  0.73352217  0.15504190  0.34400832  1  -1.177074  0  -0.304778  -0.526159  0  2.164955  0
O  O100  1  0.14593059  0.72095492  0.76253979  1  -1.20102  0  -0.408374  -0.641215  0  2.332298  0
O  O101  1  0.85406349  0.27904122  0.23745473  1  -1.201486  0  -0.408327  -0.641035  0  2.332265  0
O  O102  1  0.73934089  0.54723152  0.99340156  1  -1.200618  0  -0.377424  -0.639845  0  2.302131  0
O  O103  1  0.26066207  0.45277571  0.00659871  1  -1.200683  0  -0.377396  -0.639864  0  2.302132  0
O  O104  1  0.88209036  0.64475589  0.88384046  1  -1.193319  0  -0.375693  -0.614902  0  2.275542  0
O  O105  1  0.11790454  0.35524629  0.11615860  1  -1.193354  0  -0.375616  -0.614844  0  2.275575  0
