# generated using pymatgen
data_Al2H16C23S2(N2O5)2
_symmetry_space_group_name_H-M   'P 1'
_cell_length_a   6.65880517
_cell_length_b   12.76817758
_cell_length_c   16.87869190
_cell_angle_alpha   86.16539813
_cell_angle_beta   83.29566553
_cell_angle_gamma   74.52469144
_symmetry_Int_Tables_number   1
_chemical_formula_structural   Al2H16C23S2(N2O5)2
_chemical_formula_sum   'Al2 H16 C23 S2 N4 O10'
_cell_volume   1372.59896450
_cell_formula_units_Z   1
loop_
 _symmetry_equiv_pos_site_id
 _symmetry_equiv_pos_as_xyz
  1  'x, y, z'
loop_
 _atom_site_type_symbol
 _atom_site_label
 _atom_site_symmetry_multiplicity
 _atom_site_fract_x
 _atom_site_fract_y
 _atom_site_fract_z
 _atom_site_occupancy
 _atom_site_pbe_bader_charge
 _atom_site_pbe_bader_spin_density
 _atom_site_pbe_cm5_charge
 _atom_site_pbe_ddec_charge
 _atom_site_pbe_ddec_spin_density
 _atom_site_pbe_ddec_sum_bond_order
 _atom_site_pbe_magmom
Al  Al0  1  0.49874467  0.50741425  0.49536579  1  2.503485  0  0.393221  1.631893  0  2.597545  0
Al  Al1  1  0.99761001  0.50808007  0.49581907  1  2.502517  0  0.394745  1.639515  0  2.577152  0
H  H2  1  0.20097049  0.63325057  0.44331882  1  0.619878  0  0.352917  0.429438  0  0.856313  0
H  H3  1  0.80356867  0.37701077  0.53680407  1  0.605584  0  0.344965  0.415829  0  0.884311  0
H  H4  1  0.85605772  0.56002641  0.73071370  1  0.085302  0  0.107278  0.109032  0  1.006695  0
H  H5  1  0.79045294  0.55613411  0.88065507  1  0.104522  0  0.100445  0.107915  0  1.033449  0
H  H6  1  0.45515933  0.44784941  0.89451678  1  0.104271  0  0.107498  0.1208  0  1.004338  0
H  H7  1  0.61685169  0.45046509  0.09598184  1  0.083327  0  0.108475  0.121458  0  1.005733  0
H  H8  1  0.17062549  0.55749675  0.11094855  1  0.10098  0  0.099791  0.108151  0  1.031625  0
H  H9  1  0.09205919  0.55950865  0.26040384  1  0.096825  0  0.104673  0.107465  0  1.012571  0
H  H10  1  0.30439447  0.86019390  0.44248295  1  0.111316  0  0.116963  0.137913  0  0.985888  0
H  H11  1  0.59719617  0.46204355  0.68025578  1  0.486862  0  0.306142  0.31682  0  0.978298  0
H  H12  1  0.68502374  0.42737242  0.77378144  1  0.446694  0  0.305299  0.301655  0  0.958975  0
H  H13  1  0.46396782  0.44901053  0.31027777  1  0.496508  0  0.309896  0.322647  0  0.969887  0
H  H14  1  0.40181887  0.42694444  0.21544557  1  0.454978  0  0.307631  0.304634  0  0.955925  0
H  H15  1  0.84850427  0.18584705  0.52699496  1  0.057679  0  0.088172  0.121481  0  1.049693  0
H  H16  1  0.81583224  0.08981792  0.60493237  1  0.059726  0  0.093111  0.133984  0  0.989119  0
H  H17  1  0.65217027  0.22537677  0.60780587  1  0.064778  0  0.102185  0.14964  0  0.985121  0
C  C18  1  0.65362463  0.70291265  0.50140607  1  1.575464  0  0.261977  0.651209  0  4.139076  0
C  C19  1  0.78601510  0.50494395  0.35093769  1  1.466911  0  0.255538  0.643335  0  4.1  0
C  C20  1  0.34139554  0.31152344  0.48997838  1  1.533889  0  0.257482  0.651964  0  4.136775  0
C  C21  1  0.21402109  0.50798312  0.63999454  1  1.551142  0  0.259791  0.649941  0  4.095766  0
C  C22  1  0.18965208  0.50468179  0.72802127  1  -0.015494  0  -0.032123  -0.175045  0  3.930437  0
C  C23  1  0.98547372  0.53345994  0.76771747  1  -0.084064  0  -0.088277  -0.070083  0  4.045858  0
C  C24  1  0.94777970  0.53123369  0.84997388  1  0.01534  0  -0.11332  -0.208479  0  4.021271  0
C  C25  1  0.12169775  0.49862926  0.89492492  1  0.334634  0  0.085044  0.195536  0  4.078917  0
C  C26  1  0.32541360  0.47109939  0.85738943  1  -0.019876  0  -0.093048  -0.262437  0  3.885844  0
C  C27  1  0.36567606  0.47270410  0.77326792  1  0.421643  0  0.113196  0.317868  0  4.062613  0
C  C28  1  0.72152909  0.47238452  0.13330796  1  -0.050974  0  -0.093269  -0.265213  0  3.884674  0
C  C29  1  0.89902667  0.49991727  0.09622386  1  0.414429  0  0.086637  0.199054  0  4.081733  0
C  C30  1  0.03725758  0.53194281  0.14138748  1  -0.084136  0  -0.114239  -0.212856  0  4.021276  0
C  C31  1  0.99261184  0.53304355  0.22332472  1  -0.020207  0  -0.088448  -0.066441  0  4.041056  0
C  C32  1  0.81748692  0.50205081  0.26325054  1  0.046736  0  -0.035615  -0.185694  0  3.92869  0
C  C33  1  0.67651234  0.47103399  0.21735489  1  0.478467  0  0.117773  0.32624  0  4.063533  0
C  C34  1  0.57854657  0.12419225  0.52438694  1  0.048247  0  -0.003111  0.145574  0  3.969568  0
C  C35  1  0.41892595  0.89042354  0.46853732  1  0.022548  0  -0.089317  -0.136048  0  3.982879  0
C  C36  1  0.40580499  0.19247696  0.49125839  1  -0.122396  0  -0.024244  -0.200258  0  3.93411  0
C  C37  1  0.59252778  0.82221981  0.49973433  1  -0.151579  0  -0.020548  -0.123863  0  3.983101  0
C  C38  1  0.41510012  0.00046122  0.47537325  1  -0.146186  0  -0.023045  -0.006945  0  4.097258  0
C  C39  1  0.58329578  0.01446708  0.51348048  1  -0.175482  0  -0.023193  -0.079806  0  4.043336  0
C  C40  1  0.73140797  0.15832528  0.56854414  1  -0.0452  0  -0.235877  -0.400214  0  3.960583  0
S  S41  1  0.25137791  0.12397426  0.44992451  1  0.259035  0  0.092735  0.128589  0  2.803911  0
S  S42  1  0.75096455  0.89119867  0.53781607  1  0.25032  0  0.087665  0.126275  0  2.760138  0
N  N43  1  0.10444704  0.49537079  0.97948313  1  -0.501951  0  -0.146694  -0.13158  0  3.25796  0
N  N44  1  0.92253489  0.49675787  0.01200199  1  -0.527426  0  -0.146601  -0.129649  0  3.273591  0
N  N45  1  0.56713169  0.43978194  0.73854377  1  -1.235497  0  -0.589067  -0.611203  0  3.334333  0
N  N46  1  0.50533441  0.43945877  0.25076558  1  -1.278504  0  -0.583101  -0.600753  0  3.342297  0
O  O47  1  0.51514761  0.65564178  0.48823339  1  -1.256969  0  -0.234283  -0.58683  0  2.325629  0
O  O48  1  0.92874092  0.52512042  0.38741224  1  -1.269883  0  -0.24689  -0.610961  0  2.35754  0
O  O49  1  0.15162380  0.35867434  0.47785748  1  -1.25908  0  -0.242823  -0.596131  0  2.315167  0
O  O50  1  0.38648538  0.52245513  0.60453803  1  -1.270813  0  -0.242362  -0.606063  0  2.367425  0
O  O51  1  0.47988050  0.35965012  0.50158391  1  -1.262447  0  -0.230546  -0.581587  0  2.355687  0
O  O52  1  0.06394731  0.49465658  0.60449487  1  -1.263517  0  -0.242083  -0.599553  0  2.34223  0
O  O53  1  0.84165539  0.65571305  0.51516877  1  -1.258055  0  -0.238772  -0.590613  0  2.327069  0
O  O54  1  0.61480274  0.48814794  0.38654461  1  -1.270167  0  -0.242114  -0.608106  0  2.379931  0
O  O55  1  0.23347108  0.55704099  0.46012673  1  -1.423856  0  -0.449335  -0.989846  0  2.197294  0
O  O56  1  0.76441500  0.45581987  0.53113278  1  -1.410276  0  -0.448898  -0.979601  0  2.186965  0
