# generated using pymatgen
data_GdH20C26O11F9
_symmetry_space_group_name_H-M   'P 1'
_cell_length_a   9.51277707
_cell_length_b   10.52810288
_cell_length_c   15.19208084
_cell_angle_alpha   89.02069662
_cell_angle_beta   87.42751342
_cell_angle_gamma   77.55791086
_symmetry_Int_Tables_number   1
_chemical_formula_structural   GdH20C26O11F9
_chemical_formula_sum   'Gd2 H40 C52 O22 F18'
_cell_volume   1484.23560085
_cell_formula_units_Z   2
loop_
 _symmetry_equiv_pos_site_id
 _symmetry_equiv_pos_as_xyz
  1  'x, y, z'
loop_
 _atom_site_type_symbol
 _atom_site_label
 _atom_site_symmetry_multiplicity
 _atom_site_fract_x
 _atom_site_fract_y
 _atom_site_fract_z
 _atom_site_occupancy
 _atom_site_hle17_bader_spin_density
 _atom_site_hle17_ddec_charge
 _atom_site_hle17_ddec_spin_density
 _atom_site_hle17_ddec_sum_bond_order
 _atom_site_hle17_magmom
 _atom_site_hse06_10hf_bader_spin_density
 _atom_site_hse06_10hf_ddec_charge
 _atom_site_hse06_10hf_ddec_spin_density
 _atom_site_hse06_10hf_ddec_sum_bond_order
 _atom_site_hse06_10hf_magmom
 _atom_site_hse06_bader_spin_density
 _atom_site_hse06_ddec_charge
 _atom_site_hse06_ddec_spin_density
 _atom_site_hse06_ddec_sum_bond_order
 _atom_site_hse06_magmom
 _atom_site_pbe_bader_spin_density
 _atom_site_pbe_cm5_charge
 _atom_site_pbe_ddec_charge
 _atom_site_pbe_ddec_spin_density
 _atom_site_pbe_ddec_sum_bond_order
 _atom_site_pbe_magmom
Gd  Gd0  1  0.25833192  0.46232678  0.97474976  1  0  2.175525  0  1.83382  0  0  2.079792  0  2.202248  0  0  2.135935  0  2.144168  0  0  1.480307  2.032643  0  2.254518  0
Gd  Gd1  1  0.74167010  0.53767614  0.02524776  1  0  2.175616  0  1.833786  0  0  2.079847  0  2.202285  0  0  2.135982  0  2.144216  0  0  1.480319  2.032682  0  2.254578  0
H  H2  1  0.10077126  0.94931354  0.02439395  1  0  0.094884  0  0.962348  0  0  0.105655  0  1.023849  0  0  0.108348  0  1.022342  0  0  0.107224  0.103679  0  1.025094  0
H  H3  1  0.89921695  0.05068939  0.97561111  1  0  0.094949  0  0.962217  0  0  0.10563  0  1.023829  0  0  0.108319  0  1.022332  0  0  0.107203  0.103664  0  1.025049  0
H  H4  1  0.03109962  0.14669853  0.12019731  1  0  0.140054  0  0.921236  0  0  0.15046  0  0.975055  0  0  0.1546  0  0.9728  0  0  0.120512  0.147324  0  0.977002  0
H  H5  1  0.96889010  0.85330246  0.87980906  1  0  0.140104  0  0.921101  0  0  0.150432  0  0.975061  0  0  0.154597  0  0.972761  0  0  0.12044  0.147292  0  0.977009  0
H  H6  1  0.15203459  0.90362248  0.34854654  1  0  0.129198  0  0.958141  0  0  0.132453  0  1.024436  0  0  0.137363  0  1.020141  0  0  0.101801  0.129243  0  1.027314  0
H  H7  1  0.84796873  0.09637463  0.65145695  1  0  0.129165  0  0.95796  0  0  0.132359  0  1.024461  0  0  0.137264  0  1.020177  0  0  0.101767  0.129151  0  1.027335  0
H  H8  1  0.22519215  0.71170250  0.25251142  1  0  0.099462  0  0.962526  0  0  0.106934  0  1.02887  0  0  0.108634  0  1.030015  0  0  0.104919  0.105836  0  1.027758  0
H  H9  1  0.77480325  0.28829264  0.74749029  1  0  0.099543  0  0.962558  0  0  0.107061  0  1.02884  0  0  0.108764  0  1.029984  0  0  0.104974  0.10596  0  1.027727  0
H  H10  1  0.29050709  0.38007936  0.20557995  1  0  0.101559  0  0.963661  0  0  0.10883  0  1.029592  0  0  0.111442  0  1.028582  0  0  0.110091  0.106877  0  1.030586  0
H  H11  1  0.70949515  0.61991383  0.79441900  1  0  0.10166  0  0.963514  0  0  0.108907  0  1.029517  0  0  0.111519  0  1.028512  0  0  0.110129  0.106953  0  1.03051  0
H  H12  1  0.39463716  0.40508287  0.35182286  1  0  0.124518  0  0.941871  0  0  0.132017  0  1.003822  0  0  0.135648  0  1.002033  0  0  0.107024  0.129378  0  1.005338  0
H  H13  1  0.60536015  0.59491324  0.64817748  1  0  0.12451  0  0.941879  0  0  0.132022  0  1.003812  0  0  0.135675  0  1.001956  0  0  0.10704  0.129381  0  1.005332  0
H  H14  1  0.98418692  0.63007233  0.44532552  1  0  0.124781  0  0.943361  0  0  0.129351  0  1.010538  0  0  0.133555  0  1.007542  0  0  0.102777  0.126315  0  1.01276  0
H  H15  1  0.01581205  0.36993056  0.55466680  1  0  0.125492  0  0.942274  0  0  0.129339  0  1.010473  0  0  0.133509  0  1.007569  0  0  0.102738  0.126294  0  1.012696  0
H  H16  1  0.88005407  0.60117125  0.30013609  1  0  0.097577  0  0.961142  0  0  0.105762  0  1.025229  0  0  0.109365  0  1.022165  0  0  0.104106  0.10315  0  1.027534  0
H  H17  1  0.11995144  0.39883068  0.69985611  1  0  0.09757  0  0.961238  0  0  0.10575  0  1.02528  0  0  0.109335  0  1.022262  0  0  0.104148  0.103151  0  1.027571  0
H  H18  1  0.26028369  0.74568606  0.77879694  1  0  0.116416  0  0.930345  0  0  0.124302  0  0.989658  0  0  0.128429  0  0.986335  0  0  0.112796  0.121316  0  0.992041  0
H  H19  1  0.73971182  0.25432173  0.22120592  1  0  0.116407  0  0.930294  0  0  0.124271  0  0.989632  0  0  0.128397  0  0.986309  0  0  0.112754  0.121291  0  0.991999  0
H  H20  1  0.23660835  0.92394328  0.66812278  1  0  0.117371  0  0.965831  0  0  0.119799  0  1.036106  0  0  0.124163  0  1.032827  0  0  0.097472  0.116875  0  1.038211  0
H  H21  1  0.76339595  0.07605869  0.33187800  1  0  0.117736  0  0.965094  0  0  0.119776  0  1.036104  0  0  0.12414  0  1.032844  0  0  0.097469  0.116849  0  1.03821  0
H  H22  1  0.59715056  0.04721060  0.77597350  1  0  0.114531  0  0.958361  0  0  0.123822  0  1.019878  0  0  0.126222  0  1.020486  0  0  0.105443  0.122082  0  1.019691  0
H  H23  1  0.40285554  0.95278843  0.22402464  1  0  0.114548  0  0.95834  0  0  0.123821  0  1.019865  0  0  0.126215  0  1.020484  0  0  0.105421  0.122078  0  1.019676  0
H  H24  1  0.62106686  0.86472469  0.88683269  1  0  0.112587  0  0.938035  0  0  0.121702  0  0.996624  0  0  0.125287  0  0.994266  0  0  0.113534  0.119122  0  0.998453  0
H  H25  1  0.37893143  0.13528019  0.11317081  1  0  0.112548  0  0.938086  0  0  0.121687  0  0.996649  0  0  0.125273  0  0.99429  0  0  0.113537  0.119109  0  0.998476  0
H  H26  1  0.44217528  0.48083024  0.75697293  1  0  0.075599  0  0.942795  0  0  0.092282  0  1.009352  0  0  0.09292  0  1.009429  0  0  0.093168  0.091676  0  1.00952  0
H  H27  1  0.55782119  0.51916489  0.24302810  1  0  0.075661  0  0.942897  0  0  0.092357  0  1.009406  0  0  0.09299  0  1.009489  0  0  0.093237  0.09177  0  1.009575  0
H  H28  1  0.51331417  0.31265740  0.73058318  1  0  0.068926  0  0.952135  0  0  0.083079  0  1.025604  0  0  0.083908  0  1.024687  0  0  0.085387  0.082411  0  1.02623  0
H  H29  1  0.48668463  0.68733677  0.26941847  1  0  0.068942  0  0.952161  0  0  0.083079  0  1.025641  0  0  0.083915  0  1.024704  0  0  0.085389  0.082409  0  1.026266  0
H  H30  1  0.32354033  0.37281522  0.74645358  1  0  0.080148  0  0.95973  0  0  0.097153  0  1.027127  0  0  0.098002  0  1.025821  0  0  0.098179  0.09641  0  1.02824  0
H  H31  1  0.67645869  0.62717798  0.25354873  1  0  0.080216  0  0.959727  0  0  0.097243  0  1.027067  0  0  0.098106  0  1.025722  0  0  0.098198  0.096498  0  1.028172  0
H  H32  1  0.17995799  0.07393538  0.90862053  1  0  0.056994  0  0.966263  0  0  0.074646  0  1.036442  0  0  0.073918  0  1.038455  0  0  0.085367  0.07501  0  1.035039  0
H  H33  1  0.82003705  0.92606560  0.09138177  1  0  0.057023  0  0.966308  0  0  0.074628  0  1.03653  0  0  0.073902  0  1.038542  0  0  0.085365  0.074991  0  1.035129  0
H  H34  1  0.20882637  0.19786011  0.83209845  1  0  0.069423  0  0.936048  0  0  0.086107  0  1.002963  0  0  0.086706  0  1.003122  0  0  0.091345  0.08541  0  1.003211  0
H  H35  1  0.79117142  0.80213405  0.16790059  1  0  0.069379  0  0.936153  0  0  0.086088  0  1.003017  0  0  0.086688  0  1.003179  0  0  0.091335  0.085392  0  1.003258  0
H  H36  1  0.34675073  0.12674325  0.90499565  1  0  0.084614  0  0.948152  0  0  0.102174  0  1.011225  0  0  0.102716  0  1.011382  0  0  0.100118  0.10148  0  1.011745  0
H  H37  1  0.65324399  0.87325480  0.09500538  1  0  0.084618  0  0.948049  0  0  0.102208  0  1.011095  0  0  0.102751  0  1.01125  0  0  0.100094  0.101513  0  1.011614  0
H  H38  1  0.53050174  0.35567609  0.88019470  1  0  0.38154  0  0.901223  0  0  0.35877  0  0.970249  0  0  0.369029  0  0.958982  0  0  0.304133  0.35121  0  0.97854  0
H  H39  1  0.46949566  0.64432392  0.11980690  1  0  0.381484  0  0.901272  0  0  0.358714  0  0.970295  0  0  0.368977  0  0.959028  0  0  0.304108  0.351146  0  0.978606  0
H  H40  1  0.07112014  0.26949702  0.97193690  1  0  0.383582  0  0.899245  0  0  0.359592  0  0.970299  0  0  0.369825  0  0.959004  0  0  0.304225  0.351979  0  0.978773  0
H  H41  1  0.92887494  0.73050396  0.02806343  1  0  0.383594  0  0.899125  0  0  0.359607  0  0.970178  0  0  0.36984  0  0.958883  0  0  0.304239  0.351996  0  0.978645  0
C  C42  1  0.01858220  0.47818135  0.15583271  1  0  0.720881  0  3.856874  0  0  0.674609  0  4.14998  0  0  0.710508  0  4.138632  0  0  0.235027  0.64989  0  4.156669  0
C  C43  1  0.98143229  0.52181379  0.84416003  1  0  0.72078  0  3.856981  0  0  0.674578  0  4.15006  0  0  0.710474  0  4.138719  0  0  0.235125  0.649865  0  4.156738  0
C  C44  1  0.07955288  0.49021892  0.24380672  1  0  -0.082619  0  3.737987  0  0  -0.063811  0  3.973073  0  0  -0.072469  0  3.995264  0  0  -0.018737  -0.058199  0  3.957932  0
C  C45  1  0.92045287  0.50977720  0.75619147  1  0  -0.082815  0  3.738968  0  0  -0.063543  0  3.972812  0  0  -0.0722  0  3.995008  0  0  -0.018597  -0.057927  0  3.957669  0
C  C46  1  0.22440421  0.43472537  0.25833751  1  0  -0.032903  0  3.714549  0  0  -0.058361  0  3.968236  0  0  -0.05609  0  3.987323  0  0  -0.075429  -0.059545  0  3.95509  0
C  C47  1  0.77560154  0.56527075  0.74166067  1  0  -0.033451  0  3.715261  0  0  -0.058668  0  3.968376  0  0  -0.056396  0  3.987469  0  0  -0.075559  -0.059844  0  3.955226  0
C  C48  1  0.28283621  0.44891684  0.33915916  1  0  -0.17274  0  3.732372  0  0  -0.197837  0  3.993429  0  0  -0.20268  0  4.012108  0  0  -0.096362  -0.194721  0  3.980947  0
C  C49  1  0.71716286  0.55108511  0.66084041  1  0  -0.172984  0  3.733007  0  0  -0.197793  0  3.993319  0  0  -0.2026  0  4.011893  0  0  -0.096381  -0.19467  0  3.98084  0
C  C50  1  0.19431242  0.52107504  0.40432943  1  0  0.284164  0  3.747633  0  0  0.273276  0  4.021532  0  0  0.281843  0  4.038685  0  0  0.076121  0.26748  0  4.009858  0
C  C51  1  0.80568733  0.47892883  0.59566484  1  0  0.283819  0  3.748687  0  0  0.273311  0  4.021463  0  0  0.281911  0  4.038511  0  0  0.076171  0.267514  0  4.009788  0
C  C52  1  0.04978672  0.57601705  0.39219728  1  0  -0.161023  0  3.729146  0  0  -0.189517  0  3.996468  0  0  -0.194357  0  4.015704  0  0  -0.099239  -0.186178  0  3.983465  0
C  C53  1  0.95021445  0.42398974  0.60779560  1  0  -0.161404  0  3.72986  0  0  -0.189479  0  3.996383  0  0  -0.19433  0  4.015657  0  0  -0.099222  -0.186146  0  3.983401  0
C  C54  1  0.99276232  0.55960524  0.31147005  1  0  -0.033091  0  3.72234  0  0  -0.059793  0  3.977661  0  0  -0.05787  0  3.996319  0  0  -0.077843  -0.060923  0  3.965039  0
C  C55  1  0.00724046  0.44039475  0.68852421  1  0  -0.033825  0  3.723945  0  0  -0.059863  0  3.97759  0  0  -0.057946  0  3.996258  0  0  -0.077881  -0.061006  0  3.964962  0
C  C56  1  0.31428659  0.63435723  0.49839802  1  0  0.997802  0  3.691901  0  0  0.896812  0  4.059348  0  0  0.935773  0  4.023812  0  0  0.376853  0.869796  0  4.083551  0
C  C57  1  0.68572104  0.36563986  0.50159945  1  0  0.997685  0  3.691906  0  0  0.89659  0  4.05977  0  0  0.935545  0  4.024275  0  0  0.37688  0.869587  0  4.083962  0
C  C58  1  0.19901833  0.70033655  0.07639376  1  0  0.658601  0  3.887699  0  0  0.609432  0  4.182107  0  0  0.643155  0  4.174769  0  0  0.208772  0.586673  0  4.185883  0
C  C59  1  0.80097593  0.29966345  0.92360726  1  0  0.658571  0  3.887857  0  0  0.609425  0  4.182228  0  0  0.64315  0  4.174882  0  0  0.208741  0.586659  0  4.185996  0
C  C60  1  0.16546546  0.81834364  0.13258390  1  0  -0.07004  0  3.761347  0  0  -0.049961  0  3.99471  0  0  -0.057558  0  4.016395  0  0  -0.019971  -0.045433  0  3.980738  0
C  C61  1  0.83452293  0.18165440  0.86741792  1  0  -0.070284  0  3.76165  0  0  -0.050191  0  3.994976  0  0  -0.057793  0  4.016661  0  0  -0.02005  -0.045663  0  3.981014  0
C  C62  1  0.11077819  0.94081997  0.09548184  1  0  -0.052624  0  3.746768  0  0  -0.074832  0  3.993244  0  0  -0.073268  0  4.012631  0  0  -0.077962  -0.075627  0  3.980495  0
C  C63  1  0.88921390  0.05918004  0.90452251  1  0  -0.052442  0  3.746666  0  0  -0.074551  0  3.993086  0  0  -0.072987  0  4.01248  0  0  -0.077889  -0.075366  0  3.980336  0
C  C64  1  0.07196291  0.05050527  0.14820911  1  0  -0.163484  0  3.701953  0  0  -0.185467  0  3.956854  0  0  -0.190482  0  3.974804  0  0  -0.088979  -0.181805  0  3.943758  0
C  C65  1  0.92802833  0.94949377  0.85179724  1  0  -0.163695  0  3.701914  0  0  -0.185586  0  3.956856  0  0  -0.190618  0  3.974777  0  0  -0.088901  -0.181929  0  3.943776  0
C  C66  1  0.08559115  0.03564626  0.23910550  1  0  0.303842  0  3.744174  0  0  0.293369  0  4.011663  0  0  0.303484  0  4.029005  0  0  0.088596  0.287076  0  3.998209  0
C  C67  1  0.91440196  0.96435376  0.76090080  1  0  0.303974  0  3.74386  0  0  0.293597  0  4.01143  0  0  0.303732  0  4.028771  0  0  0.08868  0.287305  0  3.997975  0
C  C68  1  0.14103991  0.91508311  0.27782547  1  0  -0.196455  0  3.749037  0  0  -0.222446  0  4.010679  0  0  -0.22768  0  4.028257  0  0  -0.104927  -0.219237  0  3.998569  0
C  C69  1  0.85895557  0.08491593  0.72217817  1  0  -0.196235  0  3.748413  0  0  -0.222308  0  4.010381  0  0  -0.227547  0  4.027964  0  0  -0.104916  -0.219097  0  3.998271  0
C  C70  1  0.18264599  0.80686998  0.22354893  1  0  -0.039822  0  3.727651  0  0  -0.062051  0  3.977101  0  0  -0.060521  0  3.997752  0  0  -0.0767  -0.062568  0  3.963065  0
C  C71  1  0.81734720  0.19313003  0.77645276  1  0  -0.040043  0  3.727795  0  0  -0.062271  0  3.977232  0  0  -0.060748  0  3.997885  0  0  -0.076768  -0.062787  0  3.963201  0
C  C72  1  0.07604509  0.15987293  0.37068136  1  0  1.003995  0  3.676383  0  0  0.902278  0  4.041466  0  0  0.94155  0  4.006134  0  0  0.383358  0.875294  0  4.064953  0
C  C73  1  0.92395471  0.84013001  0.62932280  1  0  1.001218  0  3.681532  0  0  0.902247  0  4.041431  0  0  0.941543  0  4.006093  0  0  0.383348  0.875272  0  4.064914  0
C  C74  1  0.45570540  0.68477644  0.90400319  1  0  0.728598  0  3.857281  0  0  0.68167  0  4.151161  0  0  0.717578  0  4.13959  0  0  0.237349  0.656778  0  4.158613  0
C  C75  1  0.54429087  0.31522842  0.09599575  1  0  0.728871  0  3.857071  0  0  0.681901  0  4.151031  0  0  0.717808  0  4.139456  0  0  0.237434  0.657014  0  4.158492  0
C  C76  1  0.44179009  0.79451310  0.83932412  1  0  -0.099388  0  3.76837  0  0  -0.079858  0  4.001195  0  0  -0.089868  0  4.024876  0  0  -0.024201  -0.073426  0  3.98612  0
C  C77  1  0.55820718  0.20549178  0.16067809  1  0  -0.099552  0  3.768445  0  0  -0.08001  0  4.001251  0  0  -0.090019  0  4.024931  0  0  -0.024286  -0.073563  0  3.986178  0
C  C78  1  0.33388387  0.81199898  0.77779503  1  0  -0.029431  0  3.725581  0  0  -0.053396  0  3.977504  0  0  -0.050869  0  3.99671  0  0  -0.077206  -0.054984  0  3.964184  0
C  C79  1  0.66611556  0.18800588  0.22220384  1  0  -0.029374  0  3.725503  0  0  -0.053364  0  3.977413  0  0  -0.050834  0  3.996612  0  0  -0.077203  -0.054951  0  3.964107  0
C  C80  1  0.32046937  0.91210722  0.71568045  1  0  -0.203197  0  3.766199  0  0  -0.228503  0  4.02784  0  0  -0.235485  0  4.04856  0  0  -0.109929  -0.223735  0  4.012934  0
C  C81  1  0.67953626  0.08789377  0.28431768  1  0  -0.202644  0  3.764831  0  0  -0.228448  0  4.027708  0  0  -0.235439  0  4.048482  0  0  -0.109879  -0.223691  0  4.012824  0
C  C82  1  0.41712796  0.99474406  0.71622556  1  0  0.310225  0  3.734946  0  0  0.29984  0  3.998514  0  0  0.31094  0  4.01457  0  0  0.088675  0.29282  0  3.987255  0
C  C83  1  0.58287708  0.00525498  0.28377326  1  0  0.310408  0  3.734039  0  0  0.299724  0  3.99849  0  0  0.310826  0  4.014554  0  0  0.088628  0.292701  0  3.987222  0
C  C84  1  0.52478924  0.97994973  0.77737636  1  0  -0.163384  0  3.724425  0  0  -0.185147  0  3.978153  0  0  -0.190506  0  3.997238  0  0  -0.095427  -0.181651  0  3.965323  0
C  C85  1  0.47521038  0.02005418  0.22262449  1  0  -0.163239  0  3.724372  0  0  -0.185015  0  3.978109  0  0  -0.190369  0  3.997214  0  0  -0.095356  -0.181522  0  3.965272  0
C  C86  1  0.53719113  0.87924922  0.83876482  1  0  -0.042989  0  3.727871  0  0  -0.064706  0  3.973437  0  0  -0.062508  0  3.992131  0  0  -0.074467  -0.066683  0  3.961331  0
C  C87  1  0.46280799  0.12075663  0.16123799  1  0  -0.042896  0  3.728079  0  0  -0.064654  0  3.973618  0  0  -0.062457  0  3.992312  0  0  -0.07441  -0.066629  0  3.96151  0
C  C88  1  0.32617809  0.11706085  0.58873282  1  0  1.002271  0  3.677985  0  0  0.899982  0  4.045459  0  0  0.938216  0  4.012422  0  0  0.381174  0.873149  0  4.068628  0
C  C89  1  0.67382223  0.88294013  0.41126872  1  0  1.003872  0  3.67507  0  0  0.899936  0  4.045457  0  0  0.938544  0  4.011463  0  0  0.381232  0.873099  0  4.068625  0
C  C90  1  0.42928437  0.38050578  0.76835282  1  0  -0.007568  0  3.641722  0  0  -0.103932  0  3.918853  0  0  -0.096959  0  3.922547  0  0  -0.151909  -0.108793  0  3.916566  0
C  C91  1  0.57071418  0.61948937  0.23164948  1  0  -0.007727  0  3.64186  0  0  -0.104117  0  3.918978  0  0  -0.097127  0  3.922658  0  0  -0.151984  -0.10897  0  3.91669  0
C  C92  1  0.23027256  0.15799956  0.89883967  1  0  -0.005542  0  3.669458  0  0  -0.100713  0  3.944966  0  0  -0.094774  0  3.951361  0  0  -0.150586  -0.104566  0  3.940754  0
C  C93  1  0.76972464  0.84200142  0.10115995  1  0  -0.005504  0  3.669456  0  0  -0.100673  0  3.944908  0  0  -0.094743  0  3.951315  0  0  -0.150513  -0.10452  0  3.940696  0
O  O94  1  0.10481136  0.43458337  0.09156728  1  0  -0.749557  0  2.103122  0  0  -0.710197  0  2.371777  0  0  -0.735968  0  2.358642  0  0  -0.405506  -0.690809  0  2.380691  0
O  O95  1  0.89520280  0.56540400  0.90843084  1  0  -0.749575  0  2.103159  0  0  -0.710257  0  2.371851  0  0  -0.736025  0  2.358721  0  0  -0.405631  -0.690869  0  2.380755  0
O  O96  1  0.88285140  0.51387961  0.14932559  1  0  -0.709797  0  2.021059  0  0  -0.666452  0  2.270107  0  0  -0.69222  0  2.258208  0  0  -0.390306  -0.647499  0  2.278419  0
O  O97  1  0.11715963  0.48612134  0.85066452  1  0  -0.709742  0  2.021101  0  0  -0.666411  0  2.270087  0  0  -0.692178  0  2.258193  0  0  -0.390358  -0.647456  0  2.278357  0
O  O98  1  0.24952037  0.53345225  0.48811633  1  0  -0.41769  0  2.276519  0  0  -0.370165  0  2.516966  0  0  -0.386618  0  2.509173  0  0  -0.174535  -0.358335  0  2.521903  0
O  O99  1  0.75047897  0.46654871  0.51188061  1  0  -0.417334  0  2.275885  0  0  -0.370202  0  2.517041  0  0  -0.386546  0  2.509042  0  0  -0.174621  -0.358382  0  2.521983  0
O  O100  1  0.11416530  0.68818349  0.01547106  1  0  -0.67778  0  2.008392  0  0  -0.630425  0  2.240574  0  0  -0.655919  0  2.232066  0  0  -0.338839  -0.611592  0  2.245998  0
O  O101  1  0.88582850  0.31181845  0.98452863  1  0  -0.67774  0  2.008566  0  0  -0.630388  0  2.240738  0  0  -0.655879  0  2.232228  0  0  -0.338829  -0.611552  0  2.246156  0
O  O102  1  0.30994362  0.61077990  0.09071155  1  0  -0.678501  0  2.048678  0  0  -0.630636  0  2.286738  0  0  -0.656493  0  2.279248  0  0  -0.340491  -0.611564  0  2.291261  0
O  O103  1  0.69004819  0.38922593  0.90928879  1  0  -0.6785  0  2.048638  0  0  -0.630638  0  2.286698  0  0  -0.656491  0  2.279203  0  0  -0.340513  -0.611582  0  2.291236  0
O  O104  1  0.03609705  0.15078212  0.28665274  1  0  -0.406911  0  2.287902  0  0  -0.354011  0  2.524337  0  0  -0.372555  0  2.51815  0  0  -0.160141  -0.340413  0  2.526885  0
O  O105  1  0.96390260  0.84921694  0.71335344  1  0  -0.408568  0  2.289507  0  0  -0.354155  0  2.52435  0  0  -0.372733  0  2.518182  0  0  -0.160183  -0.340565  0  2.526895  0
O  O106  1  0.36661419  0.61137300  0.90123722  1  0  -0.727533  0  2.111302  0  0  -0.685411  0  2.370195  0  0  -0.711376  0  2.358848  0  0  -0.399731  -0.666212  0  2.378274  0
O  O107  1  0.63339522  0.38862993  0.09875882  1  0  -0.727742  0  2.111157  0  0  -0.685581  0  2.370039  0  0  -0.711567  0  2.358728  0  0  -0.399805  -0.666379  0  2.378123  0
O  O108  1  0.55684041  0.67067091  0.95793563  1  0  -0.738228  0  2.069726  0  0  -0.698339  0  2.335503  0  0  -0.723491  0  2.321095  0  0  -0.417428  -0.679188  0  2.345399  0
O  O109  1  0.44316190  0.32933495  0.04206580  1  0  -0.738237  0  2.069875  0  0  -0.698316  0  2.335586  0  0  -0.723454  0  2.321159  0  0  -0.417418  -0.679193  0  2.345507  0
O  O110  1  0.41476101  0.09935000  0.65752884  1  0  -0.40865  0  2.297306  0  0  -0.356576  0  2.536376  0  0  -0.375173  0  2.529301  0  0  -0.160744  -0.34337  0  2.540846  0
O  O111  1  0.58524402  0.90064904  0.34246998  1  0  -0.407986  0  2.29652  0  0  -0.356607  0  2.536518  0  0  -0.374861  0  2.529205  0  0  -0.160788  -0.343399  0  2.540984  0
O  O112  1  0.43391669  0.34749172  0.86055569  1  0  -0.594039  0  2.177457  0  0  -0.53422  0  2.419726  0  0  -0.55357  0  2.410442  0  0  -0.454103  -0.519815  0  2.427252  0
O  O113  1  0.56608247  0.65250537  0.13944525  1  0  -0.593987  0  2.177422  0  0  -0.534177  0  2.419763  0  0  -0.553501  0  2.410417  0  0  -0.454097  -0.519802  0  2.427308  0
O  O114  1  0.17828512  0.25436435  0.96499884  1  0  -0.600344  0  2.201703  0  0  -0.543801  0  2.4513  0  0  -0.562195  0  2.440483  0  0  -0.457406  -0.530156  0  2.459426  0
O  O115  1  0.82171062  0.74563855  0.03499750  1  0  -0.600413  0  2.201564  0  0  -0.543857  0  2.451171  0  0  -0.562248  0  2.440354  0  0  -0.457482  -0.53021  0  2.459292  0
F  F116  1  0.34925898  0.63572919  0.58360713  1  0  -0.256082  0  1.120971  0  0  -0.22524  0  1.289481  0  0  -0.234805  0  1.271751  0  0  -0.090827  -0.218123  0  1.301538  0
F  F117  1  0.65075008  0.36426206  0.41638908  1  0  -0.25586  0  1.120629  0  0  -0.225159  0  1.289573  0  0  -0.234732  0  1.271866  0  0  -0.090881  -0.218103  0  1.301648  0
F  F118  1  0.22806382  0.75258083  0.47913512  1  0  -0.294453  0  1.12728  0  0  -0.253333  0  1.288317  0  0  -0.265397  0  1.272541  0  0  -0.108212  -0.246565  0  1.301106  0
F  F119  1  0.77194542  0.24741822  0.52086427  1  0  -0.293652  0  1.126399  0  0  -0.253233  0  1.288524  0  0  -0.265303  0  1.272761  0  0  -0.108165  -0.246472  0  1.301309  0
F  F120  1  0.43699698  0.62553689  0.44653283  1  0  -0.291764  0  1.142589  0  0  -0.251705  0  1.308312  0  0  -0.261044  0  1.29009  0  0  -0.105253  -0.244607  0  1.320665  0
F  F121  1  0.56300614  0.37445726  0.55346280  1  0  -0.291693  0  1.142466  0  0  -0.251663  0  1.308278  0  0  -0.261245  0  1.290116  0  0  -0.105263  -0.244553  0  1.320621  0
F  F122  1  0.22155620  0.13388759  0.37745564  1  0  -0.275167  0  1.136694  0  0  -0.245618  0  1.309188  0  0  -0.255745  0  1.293043  0  0  -0.099101  -0.237893  0  1.319755  0
F  F123  1  0.77844335  0.86611633  0.62254982  1  0  -0.275959  0  1.137638  0  0  -0.245628  0  1.309194  0  0  -0.255626  0  1.292948  0  0  -0.099133  -0.237932  0  1.319769  0
F  F124  1  0.02186030  0.28286903  0.39720988  1  0  -0.267088  0  1.184827  0  0  -0.224901  0  1.354046  0  0  -0.235597  0  1.338056  0  0  -0.08308  -0.216754  0  1.364495  0
F  F125  1  0.97813739  0.71713392  0.60279497  1  0  -0.254653  0  1.173418  0  0  -0.224927  0  1.354132  0  0  -0.235622  0  1.338103  0  0  -0.083143  -0.216806  0  1.364591  0
F  F126  1  0.02313667  0.07866263  0.42812324  1  0  -0.284899  0  1.140648  0  0  -0.247109  0  1.305913  0  0  -0.26004  0  1.290805  0  0  -0.10232  -0.240551  0  1.319009  0
F  F127  1  0.97686225  0.92133936  0.57188424  1  0  -0.286501  0  1.141927  0  0  -0.247015  0  1.305823  0  0  -0.259881  0  1.290648  0  0  -0.102316  -0.240495  0  1.31893  0
F  F128  1  0.18306708  0.14608870  0.61508978  1  0  -0.296874  0  1.120036  0  0  -0.250805  0  1.279107  0  0  -0.261442  0  1.262481  0  0  -0.101325  -0.243291  0  1.290527  0
F  F129  1  0.81693787  0.85390644  0.38490778  1  0  -0.295965  0  1.119394  0  0  -0.250862  0  1.279023  0  0  -0.261212  0  1.262247  0  0  -0.101408  -0.243342  0  1.290441  0
F  F130  1  0.34637660  0.01149514  0.53547059  1  0  -0.272141  0  1.128722  0  0  -0.246332  0  1.30143  0  0  -0.255353  0  1.282483  0  0  -0.103061  -0.239819  0  1.314284  0
F  F131  1  0.65362961  0.98850779  0.46452816  1  0  -0.280109  0  1.136016  0  0  -0.246275  0  1.30132  0  0  -0.255057  0  1.282291  0  0  -0.103033  -0.239754  0  1.314172  0
F  F132  1  0.35317295  0.21881685  0.54104757  1  0  -0.257212  0  1.140274  0  0  -0.220336  0  1.299235  0  0  -0.229731  0  1.281121  0  0  -0.093457  -0.213655  0  1.311786  0
F  F133  1  0.64682843  0.78118414  0.45895328  1  0  -0.256293  0  1.139906  0  0  -0.220258  0  1.299299  0  0  -0.23176  0  1.283575  0  0  -0.093394  -0.213555  0  1.311842  0
