# generated using pymatgen
data_Zn2H27C41S3(NO4)2
_symmetry_space_group_name_H-M   'P 1'
_cell_length_a   12.76155494
_cell_length_b   13.83747338
_cell_length_c   28.02816428
_cell_angle_alpha   89.98466385
_cell_angle_beta   89.77412421
_cell_angle_gamma   89.88481992
_symmetry_Int_Tables_number   1
_chemical_formula_structural   Zn2H27C41S3(NO4)2
_chemical_formula_sum   'Zn4 H54 C82 S6 N4 O16'
_cell_volume   4949.37978783
_cell_formula_units_Z   2
loop_
 _symmetry_equiv_pos_site_id
 _symmetry_equiv_pos_as_xyz
  1  'x, y, z'
loop_
 _atom_site_type_symbol
 _atom_site_label
 _atom_site_symmetry_multiplicity
 _atom_site_fract_x
 _atom_site_fract_y
 _atom_site_fract_z
 _atom_site_occupancy
 _atom_site_pbe_bader_charge
 _atom_site_pbe_bader_spin_density
 _atom_site_pbe_cm5_charge
 _atom_site_pbe_ddec_charge
 _atom_site_pbe_ddec_spin_density
 _atom_site_pbe_ddec_sum_bond_order
 _atom_site_pbe_magmom
Zn  Zn0  1  0.50001942  0.39877021  0.49911006  1  1.250049  0  0.665173  0.818675  0  2.437123  0
Zn  Zn1  1  0.49928304  0.60127716  0.49916092  1  1.269751  0  0.665325  0.817124  0  2.439316  0
Zn  Zn2  1  0.50029711  0.60151240  0.04406474  1  1.270169  0  0.665471  0.818907  0  2.437697  0
Zn  Zn3  1  0.50046451  0.39903934  0.04401844  1  1.251245  0  0.6652  0.817452  0  2.437295  0
H  H4  1  0.38608611  0.24973228  0.55133962  1  0.112294  0  0.124035  0.099747  0  1.011497  0
H  H5  1  0.61402167  0.24888709  0.44777400  1  0.10026  0  0.124013  0.100212  0  1.010989  0
H  H6  1  0.61347428  0.75050567  0.44787142  1  0.106366  0  0.123703  0.098998  0  1.012703  0
H  H7  1  0.38495190  0.75099335  0.55116151  1  0.116556  0  0.124302  0.099987  0  1.010011  0
H  H8  1  0.50140571  0.65285713  0.33657280  1  0.106977  0  0.112282  0.137373  0  0.985311  0
H  H9  1  0.50140732  0.34678327  0.20664502  1  0.100167  0  0.112351  0.137624  0  0.983671  0
H  H10  1  0.49958602  0.65312153  0.64939390  1  0.101197  0  0.098139  0.10208  0  1.046627  0
H  H11  1  0.49868574  0.34716393  0.64931282  1  0.10098  0  0.098332  0.102379  0  1.04652  0
H  H12  1  0.49941213  0.34665206  0.89370499  1  0.09446  0  0.097938  0.101663  0  1.046405  0
H  H13  1  0.50038201  0.65266672  0.89382305  1  0.098395  0  0.098321  0.102123  0  1.046459  0
H  H14  1  0.14293107  0.34705976  0.49928991  1  0.109514  0  0.112173  0.137216  0  0.984508  0
H  H15  1  0.85649661  0.65292777  0.50027633  1  0.10786  0  0.111947  0.136883  0  0.984526  0
H  H16  1  0.38680060  0.75109804  0.99213872  1  0.112648  0  0.123756  0.099026  0  1.011001  0
H  H17  1  0.61459872  0.75073732  0.09494978  1  0.120109  0  0.124078  0.100169  0  1.011454  0
H  H18  1  0.61467666  0.24914535  0.09491241  1  0.099085  0  0.123802  0.099303  0  1.012362  0
H  H19  1  0.38673531  0.24976038  0.99215943  1  0.112038  0  0.124183  0.09946  0  1.010687  0
H  H20  1  0.14289477  0.65431703  0.04482208  1  0.12898  0  0.112276  0.137555  0  0.983413  0
H  H21  1  0.85808465  0.34820908  0.04397310  1  0.111492  0  0.112003  0.136555  0  0.984486  0
H  H22  1  0.20689661  0.91779303  0.58921231  1  0.045883  0  0.100029  0.135963  0  0.985749  0
H  H23  1  0.29432943  0.81905012  0.59369249  1  0.078252  0  0.099652  0.13618  0  1.013267  0
H  H24  1  0.30454607  0.91762291  0.63354531  1  0.047993  0  0.098012  0.132582  0  0.991551  0
H  H25  1  0.30503154  0.08372523  0.63361347  1  0.055495  0  0.098153  0.132385  0  0.990727  0
H  H26  1  0.29463448  0.18210947  0.59364577  1  0.057762  0  0.099588  0.135839  0  1.01103  0
H  H27  1  0.20715794  0.08355336  0.58940927  1  0.054204  0  0.099804  0.13514  0  0.985764  0
H  H28  1  0.79400789  0.91631223  0.41087784  1  0.044298  0  0.099711  0.13462  0  0.986287  0
H  H29  1  0.70626673  0.81803111  0.40624829  1  0.058478  0  0.099501  0.135805  0  1.011072  0
H  H30  1  0.69670402  0.91681854  0.36644188  1  0.053015  0  0.098849  0.132982  0  0.98826  0
H  H31  1  0.69655640  0.08256385  0.36644189  1  0.048992  0  0.098695  0.133242  0  0.988818  0
H  H32  1  0.70682414  0.18106293  0.40629640  1  0.077561  0  0.09948  0.135682  0  1.014769  0
H  H33  1  0.79409904  0.08216098  0.41081072  1  0.036744  0  0.099541  0.134921  0  0.98688  0
H  H34  1  0.43104724  0.81914972  0.81272905  1  0.039189  0  0.08811  0.11496  0  1.005551  0
H  H35  1  0.50083866  0.76790214  0.86099867  1  0.007791  0  0.090729  0.124668  0  1.027797  0
H  H36  1  0.56927622  0.81874470  0.81215699  1  0.050942  0  0.09182  0.122238  0  0.997691  0
H  H37  1  0.56926982  0.81874816  0.73070749  1  0.031936  0  0.091736  0.122211  0  0.997669  0
H  H38  1  0.49987453  0.76819310  0.68233865  1  0.020332  0  0.090686  0.124388  0  1.028844  0
H  H39  1  0.43100948  0.81951905  0.73108448  1  0.01837  0  0.088293  0.115463  0  1.0062  0
H  H40  1  0.56747791  0.18052109  0.81207206  1  0.040268  0  0.091691  0.122681  0  0.997122  0
H  H41  1  0.49851480  0.23156162  0.86076523  1  0.013299  0  0.090403  0.124525  0  1.027835  0
H  H42  1  0.42922874  0.18088384  0.81227987  1  0.031939  0  0.088486  0.116338  0  1.005446  0
H  H43  1  0.42882195  0.18122925  0.73066199  1  0.028446  0  0.088234  0.115634  0  1.006182  0
H  H44  1  0.49865831  0.23201819  0.68211542  1  0.015254  0  0.090509  0.123987  0  1.028551  0
H  H45  1  0.56705853  0.18053463  0.73060330  1  0.043347  0  0.092002  0.122862  0  0.99633  0
H  H46  1  0.20847906  0.08377993  0.95464537  1  0.061121  0  0.099633  0.134903  0  0.986135  0
H  H47  1  0.29596990  0.18216309  0.94988053  1  0.057616  0  0.099443  0.135519  0  1.011905  0
H  H48  1  0.30623467  0.08349951  0.91002442  1  0.065861  0  0.097861  0.131939  0  0.991278  0
H  H49  1  0.30642304  0.91742033  0.91001752  1  0.024142  0  0.098313  0.13215  0  0.990898  0
H  H50  1  0.29581683  0.81911087  0.95003794  1  0.00968  0  0.099441  0.135371  0  1.01074  0
H  H51  1  0.20845814  0.91807591  0.95452507  1  0.020246  0  0.099737  0.134524  0  0.986146  0
H  H52  1  0.79507750  0.08236925  0.13120953  1  0.028906  0  0.099651  0.134371  0  0.98646  0
H  H53  1  0.70751936  0.18112641  0.13613975  1  0.007071  0  0.099494  0.135547  0  1.010814  0
H  H54  1  0.69771584  0.08238797  0.17596142  1  0.020272  0  0.098809  0.132958  0  0.988065  0
H  H55  1  0.69733078  0.91656668  0.17599516  1  0.060882  0  0.098497  0.133029  0  0.988403  0
H  H56  1  0.70753789  0.81810843  0.13604533  1  0.063742  0  0.099174  0.135151  0  1.014735  0
H  H57  1  0.79492264  0.91662020  0.13128925  1  0.035185  0  0.099629  0.134792  0  0.986709  0
C  C58  1  0.49813896  0.50015967  0.59250835  1  1.511632  0  0.214203  0.596417  0  4.159486  0
C  C59  1  0.29419895  0.49967200  0.49972186  1  1.580135  0  0.203555  0.597392  0  4.224667  0
C  C60  1  0.50206211  0.50031278  0.40572936  1  1.583863  0  0.204856  0.597881  0  4.223664  0
C  C61  1  0.70523277  0.50039052  0.49859278  1  1.575248  0  0.203386  0.596252  0  4.228371  0
C  C62  1  0.49918933  0.49960210  0.95065018  1  1.493027  0  0.214601  0.59725  0  4.159841  0
C  C63  1  0.29494095  0.50171150  0.04413615  1  1.57257  0  0.203614  0.597466  0  4.22564  0
C  C64  1  0.50201022  0.49930900  0.13747484  1  1.604073  0  0.20518  0.598971  0  4.221782  0
C  C65  1  0.70595681  0.50054501  0.04469161  1  1.592375  0  0.20407  0.598244  0  4.224313  0
C  C66  1  0.43530635  0.20365395  0.52914879  1  0.548516  0  0.055752  0.048336  0  3.88466  0
C  C67  1  0.43138765  0.10241877  0.53123141  1  -0.031892  0  0.000356  -0.014273  0  4.005712  0
C  C68  1  0.36201417  0.05042715  0.56294183  1  0.046671  0  -0.001734  0.069678  0  3.917732  0
C  C69  1  0.56501815  0.20323872  0.47019712  1  0.483781  0  0.058964  0.055144  0  3.877871  0
C  C70  1  0.56938392  0.10199029  0.46851369  1  0.045937  0  0.002086  -0.012024  0  4.00289  0
C  C71  1  0.63902911  0.04971178  0.43697764  1  -0.089795  0  -0.000576  0.071803  0  3.915162  0
C  C72  1  0.56450728  0.79651089  0.47021699  1  0.452497  0  0.056426  0.049997  0  3.886162  0
C  C73  1  0.56916800  0.89772915  0.46851056  1  0.047729  0  0.000695  -0.013956  0  4.006566  0
C  C74  1  0.63892941  0.94968739  0.43698321  1  0.069081  0  -0.001574  0.069475  0  3.917137  0
C  C75  1  0.43457491  0.79675780  0.52907699  1  0.45421  0  0.056642  0.050834  0  3.881191  0
C  C76  1  0.43107644  0.89802756  0.53120096  1  0.048608  0  0.0006  -0.013848  0  4.003576  0
C  C77  1  0.36186198  0.95039700  0.56292215  1  -0.088371  0  -0.0014  0.071021  0  3.916697  0
C  C78  1  0.50041629  0.05106570  0.49991526  1  0.103703  0  0.008098  0.012604  0  3.980494  0
C  C79  1  0.50029311  0.94900338  0.49991242  1  -0.069209  0  0.008359  0.013207  0  3.979982  0
C  C80  1  0.50243073  0.57926279  0.32301752  1  0.095904  0  -0.098844  -0.150979  0  3.999555  0
C  C81  1  0.50233973  0.42038724  0.22019154  1  0.03531  0  -0.098988  -0.151536  0  3.997316  0
C  C82  1  0.50256891  0.50007593  0.35308889  1  -0.202549  0  -0.026006  -0.104729  0  3.979609  0
C  C83  1  0.50238176  0.49958352  0.19012056  1  -0.195103  0  -0.026394  -0.104803  0  3.979321  0
C  C84  1  0.50270187  0.44912733  0.26853598  1  -0.122658  0  -0.028766  -0.010343  0  4.079441  0
C  C85  1  0.50269390  0.55052857  0.27466056  1  -0.241827  0  -0.028671  -0.010951  0  4.079116  0
C  C86  1  0.49881477  0.58751968  0.67071296  1  -0.124211  0  -0.090853  -0.146428  0  3.959301  0
C  C87  1  0.49899111  0.59012166  0.72078010  1  0.02458  0  -0.009012  0.024606  0  4.01084  0
C  C88  1  0.49955882  0.68011455  0.74700570  1  -0.076716  0  -0.013261  0.054318  0  3.921196  0
C  C89  1  0.49828640  0.41270484  0.67066110  1  -0.123002  0  -0.091153  -0.146779  0  3.960581  0
C  C90  1  0.49838976  0.40994817  0.72071383  1  0.030524  0  -0.009499  0.024364  0  4.01254  0
C  C91  1  0.49832544  0.31982902  0.74685182  1  -0.075089  0  -0.013148  0.054369  0  3.924729  0
C  C92  1  0.49897103  0.41229565  0.87242016  1  -0.130949  0  -0.090333  -0.14485  0  3.958341  0
C  C93  1  0.49874133  0.40972618  0.82235526  1  0.035997  0  -0.009345  0.023925  0  4.011567  0
C  C94  1  0.49845966  0.31972321  0.79612559  1  0.081146  0  -0.013096  0.054097  0  3.924677  0
C  C95  1  0.49952056  0.58710758  0.87249374  1  0.01796  0  -0.090438  -0.145476  0  3.959417  0
C  C96  1  0.49937011  0.58989532  0.82243289  1  -0.047854  0  -0.00976  0.023926  0  4.010773  0
C  C97  1  0.49973616  0.68000223  0.79628760  1  0.070821  0  -0.013623  0.053632  0  3.922993  0
C  C98  1  0.49830410  0.50014354  0.64597322  1  0.026467  0  -0.024585  -0.028672  0  4.028459  0
C  C99  1  0.49867154  0.49997930  0.74625420  1  -0.05852  0  -0.000302  -0.005815  0  3.95582  0
C  C100  1  0.49915184  0.49965293  0.89718153  1  0.030014  0  -0.025175  -0.030931  0  4.029769  0
C  C101  1  0.49887125  0.49987501  0.79688113  1  0.043454  0  -0.000917  -0.003644  0  3.954621  0
C  C102  1  0.11284905  0.42063425  0.49983869  1  0.038459  0  -0.09934  -0.151731  0  3.998884  0
C  C103  1  0.88656056  0.57935163  0.49992452  1  0.012218  0  -0.099391  -0.151543  0  3.998766  0
C  C104  1  0.17858149  0.49988181  0.50017558  1  -0.199573  0  -0.026413  -0.104031  0  3.979816  0
C  C105  1  0.82082347  0.50012111  0.49916985  1  -0.113731  0  -0.026476  -0.104798  0  3.981328  0
C  C106  1  0.99282176  0.55067217  0.50029872  1  -0.163247  0  -0.029022  -0.010584  0  4.080538  0
C  C107  1  0.00658857  0.44929378  0.49988478  1  -0.189445  0  -0.028687  -0.010028  0  4.079414  0
C  C108  1  0.43615747  0.79691530  0.01413678  1  0.465524  0  0.057124  0.050604  0  3.883054  0
C  C109  1  0.43251120  0.89815611  0.01201955  1  0.037417  0  -0.000483  -0.014394  0  4.005188  0
C  C110  1  0.36332130  0.95051246  0.98050713  1  -0.062208  0  -0.00194  0.069387  0  3.914739  0
C  C111  1  0.56571389  0.79665211  0.07269185  1  0.472813  0  0.058456  0.054814  0  3.87679  0
C  C112  1  0.57026568  0.89787128  0.07433509  1  0.035232  0  0.001836  -0.011874  0  4.002602  0
C  C113  1  0.63991341  0.94979441  0.10565366  1  0.083519  0  -0.000802  0.071621  0  3.915156  0
C  C114  1  0.56581960  0.20339869  0.07265591  1  0.484004  0  0.056142  0.049405  0  3.884864  0
C  C115  1  0.57036325  0.10214399  0.07431810  1  0.053002  0  0.000928  -0.012884  0  4.006752  0
C  C116  1  0.63995592  0.04981736  0.10563000  1  -0.083738  0  -0.002317  0.068321  0  3.91706  0
C  C117  1  0.43617985  0.20377674  0.01413668  1  0.457982  0  0.056841  0.052554  0  3.878927  0
C  C118  1  0.43254974  0.10254082  0.01201766  1  0.063404  0  0.000582  -0.014071  0  4.005107  0
C  C119  1  0.36333793  0.05054334  0.98050029  1  0.060804  0  -0.001629  0.068734  0  3.915798  0
C  C120  1  0.50152562  0.94915509  0.04312077  1  -0.075486  0  0.008397  0.012306  0  3.981352  0
C  C121  1  0.50154460  0.05121163  0.04311273  1  0.069209  0  0.009188  0.013262  0  3.98251  0
C  C122  1  0.11319916  0.58071569  0.04449501  1  0.000672  0  -0.099449  -0.151645  0  3.998909  0
C  C123  1  0.88776851  0.42179878  0.04437867  1  0.014902  0  -0.099298  -0.15035  0  3.999076  0
C  C124  1  0.17933791  0.50149462  0.04419197  1  -0.165298  0  -0.026166  -0.104919  0  3.981646  0
C  C125  1  0.82157194  0.50094535  0.04473568  1  -0.179119  0  -0.027317  -0.106385  0  3.982768  0
C  C126  1  0.99386437  0.45057550  0.04426534  1  -0.164885  0  -0.029157  -0.011574  0  4.080625  0
C  C127  1  0.00706799  0.55196938  0.04454562  1  -0.131825  0  -0.028886  -0.010571  0  4.079649  0
C  C128  1  0.28889686  0.89772329  0.59622466  1  -0.091181  0  -0.231327  -0.403636  0  3.974964  0
C  C129  1  0.28918456  0.10346082  0.59627600  1  -0.085105  0  -0.230956  -0.400852  0  3.972614  0
C  C130  1  0.71200812  0.89667892  0.40376776  1  -0.072946  0  -0.230622  -0.399434  0  3.973145  0
C  C131  1  0.71216111  0.10239481  0.40376547  1  -0.085484  0  -0.230678  -0.401867  0  3.975253  0
C  C132  1  0.50024410  0.77552753  0.82219141  1  -0.053356  0  -0.236924  -0.388259  0  3.991108  0
C  C133  1  0.49992454  0.77573808  0.72115005  1  -0.040952  0  -0.237031  -0.388301  0  3.992469  0
C  C134  1  0.49840039  0.22408096  0.82194967  1  -0.043087  0  -0.237043  -0.390187  0  3.992096  0
C  C135  1  0.49818730  0.22432980  0.72092274  1  -0.073078  0  -0.237294  -0.389237  0  3.991802  0
C  C136  1  0.29051965  0.10351026  0.94739198  1  -0.099456  0  -0.230474  -0.399867  0  3.971488  0
C  C137  1  0.29048892  0.89778641  0.94741225  1  0.019438  0  -0.230816  -0.39908  0  3.971278  0
C  C138  1  0.71311060  0.10245397  0.13858837  1  0.014243  0  -0.230451  -0.398843  0  3.972603  0
C  C139  1  0.71295525  0.89674239  0.13860494  1  -0.069707  0  -0.230044  -0.400615  0  3.973527  0
S  S140  1  0.50243362  0.39029310  0.32281110  1  0.227403  0  0.057896  0.088519  0  2.754296  0
S  S141  1  0.50225613  0.60935695  0.22038312  1  0.215335  0  0.058009  0.088733  0  2.753914  0
S  S142  1  0.11181867  0.60962352  0.50057780  1  0.228095  0  0.057096  0.086649  0  2.755969  0
S  S143  1  0.88756900  0.39036674  0.49913871  1  0.227449  0  0.057374  0.087585  0  2.75549  0
S  S144  1  0.11316458  0.39171159  0.04400822  1  0.217005  0  0.057768  0.088375  0  2.755338  0
S  S145  1  0.88770831  0.61079064  0.04481104  1  0.227862  0  0.05775  0.088078  0  2.755474  0
N  N146  1  0.50003388  0.25100906  0.49955062  1  -1.23458  0  -0.322327  -0.182672  0  3.577673  0
N  N147  1  0.49924556  0.74908447  0.49951211  1  -1.215262  0  -0.322617  -0.182631  0  3.58024  0
N  N148  1  0.50065261  0.74923896  0.04356823  1  -1.248555  0  -0.322862  -0.183454  0  3.576832  0
N  N149  1  0.50073960  0.25116931  0.04354731  1  -1.248211  0  -0.322218  -0.183231  0  3.576156  0
O  O150  1  0.49810924  0.41819456  0.57173690  1  -1.170433  0  -0.3197  -0.550351  0  2.330497  0
O  O151  1  0.49808062  0.58214031  0.57176064  1  -1.161678  0  -0.320185  -0.550257  0  2.333053  0
O  O152  1  0.33877739  0.58221662  0.49951022  1  -1.15819  0  -0.324062  -0.551164  0  2.321045  0
O  O153  1  0.33927963  0.41746083  0.49946879  1  -1.162054  0  -0.321072  -0.543703  0  2.302329  0
O  O154  1  0.50173564  0.58249641  0.42618784  1  -1.156683  0  -0.320774  -0.542053  0  2.305253  0
O  O155  1  0.50183897  0.41776515  0.42613820  1  -1.157382  0  -0.324037  -0.54997  0  2.323115  0
O  O156  1  0.66063173  0.41783333  0.49837097  1  -1.162075  0  -0.324221  -0.55053  0  2.320307  0
O  O157  1  0.66017416  0.58258768  0.49841482  1  -1.167994  0  -0.320918  -0.543763  0  2.305615  0
O  O158  1  0.49907105  0.58152380  0.97144151  1  -1.163826  0  -0.319675  -0.550177  0  2.331094  0
O  O159  1  0.49935591  0.41757884  0.97139235  1  -1.161541  0  -0.320362  -0.550597  0  2.331023  0
O  O160  1  0.33989775  0.41916326  0.04417474  1  -1.166323  0  -0.32408  -0.551786  0  2.320812  0
O  O161  1  0.33964788  0.58391342  0.04408943  1  -1.164783  0  -0.321395  -0.543169  0  2.303281  0
O  O162  1  0.50213622  0.41706823  0.11703633  1  -1.151071  0  -0.321317  -0.543049  0  2.304363  0
O  O163  1  0.50153451  0.58180526  0.11704153  1  -1.166685  0  -0.324017  -0.550389  0  2.321967  0
O  O164  1  0.66097340  0.58307301  0.04466376  1  -1.167084  0  -0.324214  -0.55133  0  2.322724  0
O  O165  1  0.66126015  0.41831791  0.04463020  1  -1.161859  0  -0.321084  -0.544339  0  2.301065  0
