# generated using pymatgen
data_ZnH5C8NO4
_symmetry_space_group_name_H-M   'P 1'
_cell_length_a   7.29580974
_cell_length_b   7.29621612
_cell_length_c   18.10948351
_cell_angle_alpha   94.31379523
_cell_angle_beta   98.05738879
_cell_angle_gamma   117.70295962
_symmetry_Int_Tables_number   1
_chemical_formula_structural   ZnH5C8NO4
_chemical_formula_sum   'Zn4 H20 C32 N4 O16'
_cell_volume   834.16551447
_cell_formula_units_Z   4
loop_
 _symmetry_equiv_pos_site_id
 _symmetry_equiv_pos_as_xyz
  1  'x, y, z'
loop_
 _atom_site_type_symbol
 _atom_site_label
 _atom_site_symmetry_multiplicity
 _atom_site_fract_x
 _atom_site_fract_y
 _atom_site_fract_z
 _atom_site_occupancy
 _atom_site_hle17_bader_spin_density
 _atom_site_hle17_ddec_charge
 _atom_site_hle17_ddec_spin_density
 _atom_site_hle17_ddec_sum_bond_order
 _atom_site_hle17_magmom
 _atom_site_hse06_10hf_bader_spin_density
 _atom_site_hse06_10hf_ddec_charge
 _atom_site_hse06_10hf_ddec_spin_density
 _atom_site_hse06_10hf_ddec_sum_bond_order
 _atom_site_hse06_10hf_magmom
 _atom_site_hse06_bader_spin_density
 _atom_site_hse06_ddec_charge
 _atom_site_hse06_ddec_spin_density
 _atom_site_hse06_ddec_sum_bond_order
 _atom_site_hse06_magmom
 _atom_site_pbe_bader_spin_density
 _atom_site_pbe_cm5_charge
 _atom_site_pbe_ddec_charge
 _atom_site_pbe_ddec_spin_density
 _atom_site_pbe_ddec_sum_bond_order
 _atom_site_pbe_magmom
Zn  Zn0  1  0.16097384  0.30213357  0.68687128  1  0  1.099033  0  1.711744  0  0  0.920147  0  2.173053  0  0  0.970562  0  2.113314  0  0  0.689406  0.884877  0  2.214006  0
Zn  Zn1  1  0.61502230  0.97392145  0.81315011  1  0  1.099059  0  1.712513  0  0  0.919693  0  2.17431  0  0  0.970148  0  2.114636  0  0  0.689382  0.884396  0  2.215256  0
Zn  Zn2  1  0.83903150  0.69786673  0.31312883  1  0  1.099119  0  1.711646  0  0  0.920212  0  2.17296  0  0  0.970609  0  2.113254  0  0  0.689434  0.884939  0  2.213912  0
Zn  Zn3  1  0.38497533  0.02607717  0.18684951  1  0  1.099066  0  1.712493  0  0  0.919687  0  2.174269  0  0  0.970141  0  2.114599  0  0  0.689381  0.884389  0  2.215215  0
H  H4  1  0.12713536  0.58818726  0.32033740  1  0  0.322261  0  0.845376  0  0  0.321226  0  0.881718  0  0  0.326881  0  0.878187  0  0  0.321157  0.317155  0  0.8844  0
H  H5  1  0.26721340  0.30635398  0.17968047  1  0  0.322939  0  0.844968  0  0  0.322245  0  0.880582  0  0  0.32791  0  0.877016  0  0  0.321366  0.31818  0  0.883246  0
H  H6  1  0.87287007  0.41181613  0.67966337  1  0  0.322233  0  0.845461  0  0  0.321195  0  0.881799  0  0  0.326848  0  0.878271  0  0  0.321159  0.317124  0  0.884479  0
H  H7  1  0.73278061  0.69363990  0.82031934  1  0  0.322976  0  0.844962  0  0  0.322282  0  0.880573  0  0  0.327946  0  0.877007  0  0  0.321391  0.318215  0  0.883236  0
H  H8  1  0.24006863  0.84453678  0.33174760  1  0  0.332436  0  0.902263  0  0  0.315118  0  0.966384  0  0  0.322912  0  0.95988  0  0  0.298259  0.309604  0  0.97099  0
H  H9  1  0.51222549  0.40834165  0.16823528  1  0  0.332591  0  0.901326  0  0  0.315022  0  0.965717  0  0  0.322789  0  0.959248  0  0  0.298191  0.309509  0  0.970325  0
H  H10  1  0.75993893  0.15546824  0.66825223  1  0  0.332458  0  0.902224  0  0  0.315124  0  0.966361  0  0  0.322916  0  0.959858  0  0  0.298276  0.309613  0  0.970965  0
H  H11  1  0.48776722  0.59165536  0.83176346  1  0  0.332615  0  0.901296  0  0  0.315089  0  0.96564  0  0  0.32286  0  0.959162  0  0  0.298182  0.309577  0  0.970252  0
H  H12  1  0.36240155  0.47753479  0.55290208  1  0  0.110652  0  0.980163  0  0  0.119401  0  1.042695  0  0  0.122744  0  1.040684  0  0  0.105801  0.116942  0  1.044252  0
H  H13  1  0.92455039  0.30972743  0.94702664  1  0  0.110897  0  0.980062  0  0  0.120166  0  1.042055  0  0  0.123494  0  1.040027  0  0  0.105962  0.117696  0  1.043592  0
H  H14  1  0.63760527  0.52246867  0.44709766  1  0  0.110633  0  0.980215  0  0  0.11942  0  1.042696  0  0  0.122765  0  1.040683  0  0  0.10581  0.116954  0  1.044268  0
H  H15  1  0.07544528  0.69027585  0.05297248  1  0  0.110919  0  0.980094  0  0  0.120162  0  1.042107  0  0  0.123509  0  1.040062  0  0  0.105999  0.117695  0  1.043646  0
H  H16  1  0.24219032  0.45226187  0.41544187  1  0  0.11553  0  0.937477  0  0  0.126278  0  0.995911  0  0  0.130327  0  0.992941  0  0  0.107337  0.123315  0  0.998253  0
H  H17  1  0.03661486  0.32713298  0.08451128  1  0  0.115514  0  0.937879  0  0  0.12655  0  0.996057  0  0  0.13061  0  0.993101  0  0  0.107406  0.123578  0  0.998385  0
H  H18  1  0.75781733  0.54774627  0.58455808  1  0  0.115553  0  0.937485  0  0  0.126277  0  0.995956  0  0  0.130326  0  0.992986  0  0  0.107327  0.123312  0  0.998296  0
H  H19  1  0.96337849  0.67286244  0.91548855  1  0  0.115539  0  0.93791  0  0  0.126562  0  0.996099  0  0  0.130622  0  0.993143  0  0  0.107411  0.123581  0  0.998433  0
H  H20  1  0.14552334  0.98588919  0.46022013  1  0  0.115687  0  0.952219  0  0  0.126885  0  1.011115  0  0  0.129702  0  1.010775  0  0  0.10807  0.124813  0  1.011562  0
H  H21  1  0.52492752  0.18469745  0.03982120  1  0  0.115784  0  0.953377  0  0  0.127041  0  1.012035  0  0  0.129785  0  1.011766  0  0  0.10831  0.124985  0  1.012476  0
H  H22  1  0.85447856  0.01411257  0.53978094  1  0  0.115712  0  0.952231  0  0  0.126943  0  1.011078  0  0  0.129755  0  1.010752  0  0  0.108092  0.124871  0  1.011527  0
H  H23  1  0.47505432  0.81528535  0.96017756  1  0  0.115826  0  0.953375  0  0  0.12707  0  1.012048  0  0  0.12981  0  1.011778  0  0  0.108355  0.125012  0  1.012481  0
C  C24  1  0.24937874  0.88228581  0.55830613  1  0  -0.018201  0  3.727733  0  0  -0.005365  0  3.965011  0  0  -0.007166  0  3.985291  0  0  -0.002988  -0.00419  0  3.951404  0
C  C25  1  0.32351586  0.19059544  0.94171064  1  0  -0.016463  0  3.729458  0  0  -0.003814  0  3.96637  0  0  -0.005592  0  3.986638  0  0  -0.00266  -0.002749  0  3.952865  0
C  C26  1  0.75062808  0.11771760  0.44169471  1  0  -0.018298  0  3.727812  0  0  -0.005385  0  3.964992  0  0  -0.007169  0  3.985282  0  0  -0.003043  -0.004217  0  3.951384  0
C  C27  1  0.67648456  0.80940323  0.05828914  1  0  -0.016502  0  3.729449  0  0  -0.003957  0  3.966465  0  0  -0.005725  0  3.986717  0  0  -0.002713  -0.002909  0  3.952976  0
C  C28  1  0.31689070  0.74257390  0.58463574  1  0  -0.112385  0  3.763413  0  0  -0.102291  0  4.005267  0  0  -0.111355  0  4.02811  0  0  -0.023929  -0.096443  0  3.990027  0
C  C29  1  0.15760738  0.23188934  0.91535918  1  0  -0.113237  0  3.764476  0  0  -0.102987  0  4.006424  0  0  -0.112114  0  4.029354  0  0  -0.023661  -0.097037  0  3.991105  0
C  C30  1  0.68311399  0.25742795  0.41536438  1  0  -0.112309  0  3.76337  0  0  -0.102263  0  4.005232  0  0  -0.111373  0  4.028138  0  0  -0.023921  -0.096397  0  3.989967  0
C  C31  1  0.84239033  0.76811240  0.08464056  1  0  -0.113077  0  3.764555  0  0  -0.10281  0  4.006504  0  0  -0.11194  0  4.029438  0  0  -0.023587  -0.096863  0  3.991193  0
C  C32  1  0.31382630  0.58841964  0.53278034  1  0  -0.054381  0  3.727159  0  0  -0.076397  0  3.978022  0  0  -0.075259  0  3.997969  0  0  -0.080689  -0.076892  0  3.964457  0
C  C33  1  0.05534759  0.28098317  0.96716793  1  0  -0.054385  0  3.725603  0  0  -0.076627  0  3.97613  0  0  -0.075451  0  3.996137  0  0  -0.080895  -0.077137  0  3.962555  0
C  C34  1  0.68618052  0.41158382  0.46721940  1  0  -0.054377  0  3.727139  0  0  -0.076415  0  3.978006  0  0  -0.075255  0  3.99794  0  0  -0.080678  -0.076921  0  3.964442  0
C  C35  1  0.94465078  0.71901698  0.03283289  1  0  -0.05441  0  3.725551  0  0  -0.076623  0  3.976065  0  0  -0.075465  0  3.996059  0  0  -0.080933  -0.077137  0  3.9625  0
C  C36  1  0.24937663  0.57585863  0.45556325  1  0  -0.142112  0  3.699776  0  0  -0.167388  0  3.960761  0  0  -0.171553  0  3.979337  0  0  -0.086608  -0.164743  0  3.948344  0
C  C37  1  0.11998311  0.29393185  0.04440366  1  0  -0.143548  0  3.701055  0  0  -0.169528  0  3.962232  0  0  -0.173737  0  3.98084  0  0  -0.087368  -0.166855  0  3.949824  0
C  C38  1  0.75063028  0.42414794  0.54443660  1  0  -0.142222  0  3.69975  0  0  -0.167505  0  3.960765  0  0  -0.171667  0  3.979336  0  0  -0.086695  -0.164858  0  3.948348  0
C  C39  1  0.88001033  0.70606673  0.95559518  1  0  -0.143633  0  3.700956  0  0  -0.169652  0  3.962116  0  0  -0.173862  0  3.98073  0  0  -0.08741  -0.16697  0  3.949704  0
C  C40  1  0.19379953  0.72216494  0.42978943  1  0  0.28461  0  3.759987  0  0  0.281035  0  4.01568  0  0  0.288229  0  4.037776  0  0  0.08804  0.276152  0  4.00069  0
C  C41  1  0.29184267  0.26381626  0.07019852  1  0  0.286159  0  3.760093  0  0  0.28293  0  4.014614  0  0  0.290171  0  4.036625  0  0  0.088438  0.278011  0  3.999682  0
C  C42  1  0.80620664  0.27784000  0.57021199  1  0  0.284693  0  3.759869  0  0  0.281135  0  4.015542  0  0  0.28833  0  4.037637  0  0  0.088147  0.276253  0  4.000555  0
C  C43  1  0.70814650  0.73617914  0.92979997  1  0  0.286115  0  3.760244  0  0  0.283009  0  4.014594  0  0  0.290249  0  4.036606  0  0  0.088433  0.278092  0  3.999654  0
C  C44  1  0.19450147  0.87583049  0.48096355  1  0  -0.177374  0  3.682447  0  0  -0.204119  0  3.929565  0  0  -0.209522  0  3.950873  0  0  -0.08941  -0.200584  0  3.915341  0
C  C45  1  0.39427374  0.21307890  0.01906715  1  0  -0.177991  0  3.684257  0  0  -0.204965  0  3.930973  0  0  -0.210328  0  3.952319  0  0  -0.089613  -0.201419  0  3.916775  0
C  C46  1  0.80550256  0.12417286  0.51903770  1  0  -0.17738  0  3.682548  0  0  -0.204179  0  3.929657  0  0  -0.209584  0  3.95096  0  0  -0.0894  -0.200643  0  3.915436  0
C  C47  1  0.60571525  0.78691027  0.98093111  1  0  -0.178056  0  3.684339  0  0  -0.205023  0  3.931005  0  0  -0.210383  0  3.952342  0  0  -0.089638  -0.201459  0  3.916814  0
C  C48  1  0.20278124  0.01484172  0.61181440  1  0  0.644384  0  3.93334  0  0  0.592078  0  4.235545  0  0  0.625917  0  4.227771  0  0  0.198008  0.569047  0  4.240032  0
C  C49  1  0.40259190  0.09048150  0.88821077  1  0  0.641117  0  3.937158  0  0  0.589147  0  4.238997  0  0  0.622986  0  4.231271  0  0  0.197111  0.566148  0  4.243451  0
C  C50  1  0.79722911  0.98516333  0.38818614  1  0  0.644414  0  3.933251  0  0  0.592085  0  4.235445  0  0  0.625918  0  4.227678  0  0  0.198007  0.569055  0  4.239937  0
C  C51  1  0.59739505  0.90950920  0.11178744  1  0  0.641206  0  3.936883  0  0  0.589308  0  4.23864  0  0  0.623144  0  4.230907  0  0  0.197156  0.566315  0  4.2431  0
C  C52  1  0.40099342  0.76766371  0.66658501  1  0  0.683874  0  3.850901  0  0  0.62984  0  4.14097  0  0  0.666116  0  4.131966  0  0  0.225434  0.605184  0  4.146432  0
C  C53  1  0.10084992  0.23408636  0.83340412  1  0  0.686712  0  3.850679  0  0  0.63234  0  4.141134  0  0  0.668594  0  4.132103  0  0  0.226497  0.607671  0  4.146619  0
C  C54  1  0.59901052  0.23233653  0.33341611  1  0  0.683902  0  3.850922  0  0  0.629891  0  4.140974  0  0  0.66618  0  4.131967  0  0  0.225479  0.605226  0  4.146439  0
C  C55  1  0.89914565  0.76591377  0.16659599  1  0  0.686588  0  3.850764  0  0  0.63222  0  4.141197  0  0  0.668473  0  4.132167  0  0  0.226502  0.607556  0  4.14668  0
N  N56  1  0.12908171  0.71434803  0.35009306  1  0  -0.672445  0  3.134138  0  0  -0.616404  0  3.39175  0  0  -0.63616  0  3.382638  0  0  -0.591055  -0.602639  0  3.3978  0
N  N57  1  0.36379543  0.27887979  0.14990592  1  0  -0.674186  0  3.132861  0  0  -0.617781  0  3.389218  0  0  -0.63757  0  3.380146  0  0  -0.591219  -0.603984  0  3.395262  0
N  N58  1  0.87092092  0.28565531  0.64990811  1  0  -0.672435  0  3.134098  0  0  -0.616381  0  3.391731  0  0  -0.636137  0  3.38262  0  0  -0.591096  -0.602609  0  3.397758  0
N  N59  1  0.63619866  0.72111726  0.85009234  1  0  -0.674222  0  3.132889  0  0  -0.617891  0  3.389161  0  0  -0.637681  0  3.380085  0  0  -0.591228  -0.604095  0  3.395205  0
O  O60  1  0.36934184  0.61255577  0.70016925  1  0  -0.644165  0  2.10107  0  0  -0.572679  0  2.372877  0  0  -0.600698  0  2.355896  0  0  -0.314581  -0.55319  0  2.383914  0
O  O61  1  0.91215865  0.16889659  0.79983416  1  0  -0.645069  0  2.100124  0  0  -0.573721  0  2.372862  0  0  -0.601728  0  2.355797  0  0  -0.314849  -0.554255  0  2.383974  0
O  O62  1  0.63066136  0.38744290  0.29983178  1  0  -0.644142  0  2.10109  0  0  -0.572681  0  2.372908  0  0  -0.600698  0  2.355921  0  0  -0.314574  -0.553193  0  2.38395  0
O  O63  1  0.08783823  0.83110048  0.20016481  1  0  -0.645009  0  2.100133  0  0  -0.573648  0  2.372841  0  0  -0.601654  0  2.35578  0  0  -0.314841  -0.554181  0  2.383955  0
O  O64  1  0.51519043  0.95661901  0.70232655  1  0  -0.624751  0  2.056035  0  0  -0.5422  0  2.304766  0  0  -0.571897  0  2.290228  0  0  -0.301144  -0.521785  0  2.314425  0
O  O65  1  0.25414075  0.31262004  0.79768319  1  0  -0.626033  0  2.056481  0  0  -0.543722  0  2.305809  0  0  -0.573253  0  2.291106  0  0  -0.301982  -0.523349  0  2.315515  0
O  O66  1  0.48480859  0.04337958  0.29767480  1  0  -0.624787  0  2.056003  0  0  -0.542241  0  2.304721  0  0  -0.571939  0  2.290178  0  0  -0.301159  -0.521807  0  2.314367  0
O  O67  1  0.74585418  0.68738163  0.20231694  1  0  -0.626022  0  2.056542  0  0  -0.543684  0  2.305831  0  0  -0.57321  0  2.291129  0  0  -0.301982  -0.523308  0  2.315534  0
O  O68  1  0.05928945  0.92582736  0.64850450  1  0  -0.620387  0  1.856936  0  0  -0.571674  0  2.072975  0  0  -0.596428  0  2.063331  0  0  -0.325947  -0.554155  0  2.078988  0
O  O69  1  0.27698226  0.91045611  0.85143358  1  0  -0.618483  0  1.858169  0  0  -0.569684  0  2.073741  0  0  -0.594446  0  2.064141  0  0  -0.324748  -0.552171  0  2.079705  0
O  O70  1  0.94072591  0.07418237  0.35149814  1  0  -0.620372  0  1.856875  0  0  -0.571674  0  2.072933  0  0  -0.596425  0  2.063293  0  0  -0.32594  -0.554154  0  2.078946  0
O  O71  1  0.72300543  0.08953619  0.14856362  1  0  -0.618541  0  1.858164  0  0  -0.569764  0  2.073719  0  0  -0.594526  0  2.064112  0  0  -0.32477  -0.55225  0  2.079688  0
O  O72  1  0.30195325  0.21559828  0.61477441  1  0  -0.642279  0  2.02182  0  0  -0.573237  0  2.283934  0  0  -0.603167  0  2.271428  0  0  -0.325202  -0.552196  0  2.291772  0
O  O73  1  0.60047612  0.18671063  0.88534135  1  0  -0.641334  0  2.022487  0  0  -0.572535  0  2.284726  0  0  -0.602427  0  2.2721  0  0  -0.325646  -0.551482  0  2.292518  0
O  O74  1  0.69805497  0.78440518  0.38522596  1  0  -0.642389  0  2.021937  0  0  -0.573296  0  2.284003  0  0  -0.603218  0  2.271485  0  0  -0.325213  -0.552251  0  2.291839  0
O  O75  1  0.39951157  0.81328164  0.11465696  1  0  -0.641416  0  2.022432  0  0  -0.572623  0  2.284636  0  0  -0.602516  0  2.27201  0  0  -0.325702  -0.551569  0  2.292432  0
