# generated using pymatgen
data_TbH11C8NO10
_symmetry_space_group_name_H-M   'P 1'
_cell_length_a   8.47795538
_cell_length_b   10.88497282
_cell_length_c   15.10680550
_cell_angle_alpha   90.00006650
_cell_angle_beta   101.77932596
_cell_angle_gamma   89.99990282
_symmetry_Int_Tables_number   1
_chemical_formula_structural   TbH11C8NO10
_chemical_formula_sum   'Tb4 H44 C32 N4 O40'
_cell_volume   1364.73296272
_cell_formula_units_Z   4
loop_
 _symmetry_equiv_pos_site_id
 _symmetry_equiv_pos_as_xyz
  1  'x, y, z'
loop_
 _atom_site_type_symbol
 _atom_site_label
 _atom_site_symmetry_multiplicity
 _atom_site_fract_x
 _atom_site_fract_y
 _atom_site_fract_z
 _atom_site_occupancy
 _atom_site_hle17_bader_spin_density
 _atom_site_hle17_ddec_charge
 _atom_site_hle17_ddec_spin_density
 _atom_site_hle17_ddec_sum_bond_order
 _atom_site_hle17_magmom
 _atom_site_hse06_10hf_bader_spin_density
 _atom_site_hse06_10hf_ddec_charge
 _atom_site_hse06_10hf_ddec_spin_density
 _atom_site_hse06_10hf_ddec_sum_bond_order
 _atom_site_hse06_10hf_magmom
 _atom_site_hse06_bader_spin_density
 _atom_site_hse06_ddec_charge
 _atom_site_hse06_ddec_spin_density
 _atom_site_hse06_ddec_sum_bond_order
 _atom_site_hse06_magmom
 _atom_site_pbe_bader_spin_density
 _atom_site_pbe_cm5_charge
 _atom_site_pbe_ddec_charge
 _atom_site_pbe_ddec_spin_density
 _atom_site_pbe_ddec_sum_bond_order
 _atom_site_pbe_magmom
Tb  Tb0  1  0.50855556  0.43847538  0.70471909  1  0  2.265891  0  1.579731  0  0  2.103897  0  2.055509  0  0  2.227087  0  1.867088  0  0  1.461959  2.070254  0  2.08507  0
Tb  Tb1  1  0.99144451  0.93847506  0.29528083  1  0  2.265912  0  1.579749  0  0  2.103901  0  2.055536  0  0  2.227099  0  1.867104  0  0  1.462009  2.070256  0  2.085102  0
Tb  Tb2  1  0.49144383  0.56152176  0.29528169  1  0  2.265842  0  1.579787  0  0  2.103822  0  2.055607  0  0  2.227023  0  1.867146  0  0  1.462019  2.070159  0  2.085199  0
Tb  Tb3  1  0.00855612  0.06152116  0.70471811  1  0  2.265852  0  1.579777  0  0  2.103851  0  2.055558  0  0  2.227044  0  1.867132  0  0  1.461992  2.070192  0  2.085137  0
H  H4  1  0.39705431  0.22751110  0.56786496  1  0  0.449233  0  0.789184  0  0  0.432626  0  0.837678  0  0  0.441287  0  0.828746  0  0  0.339063  0.426616  0  0.844505  0
H  H5  1  0.10294170  0.72751427  0.43213451  1  0  0.449302  0  0.78909  0  0  0.432678  0  0.837577  0  0  0.441339  0  0.828643  0  0  0.339099  0.426655  0  0.844432  0
H  H6  1  0.60294272  0.77248512  0.43213157  1  0  0.44932  0  0.789092  0  0  0.432714  0  0.83757  0  0  0.441375  0  0.82864  0  0  0.339118  0.426707  0  0.844392  0
H  H7  1  0.89704807  0.27248562  0.56786447  1  0  0.449277  0  0.789128  0  0  0.432673  0  0.837621  0  0  0.441333  0  0.828686  0  0  0.339112  0.426662  0  0.844446  0
H  H8  1  0.35103474  0.19909589  0.66146273  1  0  0.444801  0  0.858603  0  0  0.412502  0  0.923435  0  0  0.424171  0  0.906669  0  0  0.306753  0.404347  0  0.935313  0
H  H9  1  0.14896252  0.69909609  0.33853754  1  0  0.444714  0  0.858704  0  0  0.412406  0  0.923558  0  0  0.424075  0  0.906794  0  0  0.306723  0.404253  0  0.935434  0
H  H10  1  0.64896710  0.80090125  0.33853504  1  0  0.444738  0  0.858692  0  0  0.412439  0  0.923517  0  0  0.424108  0  0.906752  0  0  0.306737  0.404285  0  0.935393  0
H  H11  1  0.85103205  0.30089829  0.66146334  1  0  0.444789  0  0.85863  0  0  0.412489  0  0.923459  0  0  0.424159  0  0.906692  0  0  0.306771  0.404337  0  0.935335  0
H  H12  1  0.77361610  0.64210185  0.76033988  1  0  0.445061  0  0.854399  0  0  0.41002  0  0.923234  0  0  0.422651  0  0.904856  0  0  0.294935  0.401401  0  0.935804  0
H  H13  1  0.72638454  0.14210021  0.23966119  1  0  0.445111  0  0.854331  0  0  0.410056  0  0.923187  0  0  0.422689  0  0.904806  0  0  0.294965  0.401437  0  0.935758  0
H  H14  1  0.22638569  0.35789896  0.23966251  1  0  0.445143  0  0.854287  0  0  0.410094  0  0.923133  0  0  0.422727  0  0.904753  0  0  0.294985  0.401472  0  0.935708  0
H  H15  1  0.27361125  0.85789417  0.76033851  1  0  0.445075  0  0.854382  0  0  0.410028  0  0.923231  0  0  0.422661  0  0.904851  0  0  0.29493  0.401406  0  0.935807  0
H  H16  1  0.64058082  0.67991454  0.67283625  1  0  0.444956  0  0.807399  0  0  0.428712  0  0.85433  0  0  0.437623  0  0.841448  0  0  0.331718  0.422566  0  0.863423  0
H  H17  1  0.85941733  0.17991379  0.32716521  1  0  0.444959  0  0.807392  0  0  0.42872  0  0.854316  0  0  0.437631  0  0.841435  0  0  0.33172  0.422572  0  0.863411  0
H  H18  1  0.35941979  0.32008259  0.32716402  1  0  0.444931  0  0.807368  0  0  0.428711  0  0.854304  0  0  0.43762  0  0.84143  0  0  0.331748  0.422565  0  0.863396  0
H  H19  1  0.14057846  0.82007967  0.67283448  1  0  0.444938  0  0.807298  0  0  0.428714  0  0.854291  0  0  0.437624  0  0.841412  0  0  0.331742  0.422569  0  0.863381  0
H  H20  1  0.41411005  0.66926341  0.80024500  1  0  0.440863  0  0.857042  0  0  0.410905  0  0.918302  0  0  0.421963  0  0.902231  0  0  0.30019  0.403372  0  0.929331  0
H  H21  1  0.08589453  0.16926373  0.19975412  1  0  0.440858  0  0.857039  0  0  0.410894  0  0.918308  0  0  0.421952  0  0.902237  0  0  0.300168  0.40336  0  0.929337  0
H  H22  1  0.58589542  0.33073740  0.19975320  1  0  0.440861  0  0.857038  0  0  0.410891  0  0.918317  0  0  0.421951  0  0.902243  0  0  0.300182  0.403358  0  0.929346  0
H  H23  1  0.91410005  0.83073708  0.80024609  1  0  0.440897  0  0.85699  0  0  0.410915  0  0.918291  0  0  0.421974  0  0.902217  0  0  0.300175  0.40338  0  0.929322  0
H  H24  1  0.27242125  0.57138360  0.79017148  1  0  0.424577  0  0.893133  0  0  0.393554  0  0.958083  0  0  0.404823  0  0.941973  0  0  0.291755  0.385703  0  0.969422  0
H  H25  1  0.22757988  0.07138284  0.20982848  1  0  0.424674  0  0.893017  0  0  0.393646  0  0.957971  0  0  0.404916  0  0.941859  0  0  0.291787  0.385793  0  0.969313  0
H  H26  1  0.72757818  0.42861904  0.20982666  1  0  0.424609  0  0.893111  0  0  0.393578  0  0.95807  0  0  0.404846  0  0.941963  0  0  0.291758  0.385724  0  0.969412  0
H  H27  1  0.77241469  0.92862073  0.79017174  1  0  0.424674  0  0.89303  0  0  0.393644  0  0.957985  0  0  0.404915  0  0.941872  0  0  0.29177  0.385788  0  0.96933  0
H  H28  1  0.15121953  0.49373341  0.66758164  1  0  0.447964  0  0.813563  0  0  0.427654  0  0.866658  0  0  0.437314  0  0.852365  0  0  0.322446  0.420943  0  0.87675  0
H  H29  1  0.34877350  0.99372875  0.33242102  1  0  0.447959  0  0.81359  0  0  0.427625  0  0.866694  0  0  0.437294  0  0.852393  0  0  0.322501  0.420909  0  0.876792  0
H  H30  1  0.84877748  0.50626648  0.33241688  1  0  0.447956  0  0.813556  0  0  0.427651  0  0.866654  0  0  0.437308  0  0.852365  0  0  0.322451  0.420942  0  0.876742  0
H  H31  1  0.65122106  0.00626655  0.66758052  1  0  0.447974  0  0.813527  0  0  0.427673  0  0.866622  0  0  0.437331  0  0.852331  0  0  0.322459  0.420965  0  0.876709  0
H  H32  1  0.13498806  0.35292828  0.65382002  1  0  0.453355  0  0.832223  0  0  0.423112  0  0.893392  0  0  0.434484  0  0.87659  0  0  0.306175  0.415396  0  0.904843  0
H  H33  1  0.36501137  0.85292362  0.34617533  1  0  0.453286  0  0.832369  0  0  0.423051  0  0.89352  0  0  0.434418  0  0.876726  0  0  0.306182  0.41534  0  0.904967  0
H  H34  1  0.86501255  0.64706701  0.34617958  1  0  0.45332  0  0.832293  0  0  0.423087  0  0.893455  0  0  0.434451  0  0.876657  0  0  0.306159  0.4154  0  0.904877  0
H  H35  1  0.63498809  0.14706892  0.65382017  1  0  0.45333  0  0.832277  0  0  0.423096  0  0.893442  0  0  0.43446  0  0.876644  0  0  0.306164  0.415409  0  0.904864  0
H  H36  1  0.99093323  0.26404766  0.98980590  1  0  0.123875  0  0.938432  0  0  0.129757  0  1.005012  0  0  0.134116  0  1.002157  0  0  0.113395  0.126639  0  1.007015  0
H  H37  1  0.50906961  0.76404844  0.01019289  1  0  0.123868  0  0.938461  0  0  0.129757  0  1.005032  0  0  0.134114  0  1.002179  0  0  0.113394  0.126641  0  1.007033  0
H  H38  1  0.00907101  0.73594764  0.01019414  1  0  0.123921  0  0.938499  0  0  0.12979  0  1.00509  0  0  0.134148  0  1.002238  0  0  0.113408  0.126672  0  1.007094  0
H  H39  1  0.49093584  0.23594870  0.98980597  1  0  0.123893  0  0.938551  0  0  0.129808  0  1.005089  0  0  0.13415  0  1.00226  0  0  0.113411  0.126689  0  1.007097  0
H  H40  1  0.72668544  0.55443920  0.08919561  1  0  0.118722  0  0.950784  0  0  0.126113  0  1.013467  0  0  0.1298  0  1.011632  0  0  0.11543  0.123512  0  1.014783  0
H  H41  1  0.77331415  0.05444042  0.91080592  1  0  0.118742  0  0.950764  0  0  0.126137  0  1.013448  0  0  0.129823  0  1.011611  0  0  0.115447  0.123536  0  1.014763  0
H  H42  1  0.27332961  0.44556345  0.91080769  1  0  0.118763  0  0.950815  0  0  0.12615  0  1.013507  0  0  0.129834  0  1.011663  0  0  0.115445  0.123544  0  1.014823  0
H  H43  1  0.22668161  0.94556223  0.08919576  1  0  0.118711  0  0.950779  0  0  0.126094  0  1.013473  0  0  0.129781  0  1.011638  0  0  0.115413  0.123491  0  1.014789  0
H  H44  1  0.57978796  0.58790905  0.92958359  1  0  0.078344  0  0.952699  0  0  0.085157  0  1.020039  0  0  0.08784  0  1.018114  0  0  0.117278  0.083152  0  1.021536  0
H  H45  1  0.92020553  0.08791148  0.07041857  1  0  0.078359  0  0.952681  0  0  0.085118  0  1.020078  0  0  0.087799  0  1.018155  0  0  0.1173  0.08314  0  1.021553  0
H  H46  1  0.42021140  0.41209360  0.07042050  1  0  0.078339  0  0.952889  0  0  0.085176  0  1.020203  0  0  0.087858  0  1.01828  0  0  0.117287  0.083189  0  1.021682  0
H  H47  1  0.07978299  0.91209301  0.92958291  1  0  0.078348  0  0.952666  0  0  0.085156  0  1.020008  0  0  0.087838  0  1.018084  0  0  0.117263  0.083146  0  1.021502  0
C  C48  1  0.80911363  0.35947559  0.89367847  1  0  0.084416  0  3.755519  0  0  0.093256  0  3.997422  0  0  0.092072  0  4.017916  0  0  0.113414  0.093966  0  3.984907  0
C  C49  1  0.69088780  0.85947537  0.10632155  1  0  0.084486  0  3.755431  0  0  0.093301  0  3.997384  0  0  0.09214  0  4.017847  0  0  0.113425  0.094011  0  3.984868  0
C  C50  1  0.19088334  0.64052246  0.10632269  1  0  0.084389  0  3.755375  0  0  0.093233  0  3.997221  0  0  0.092052  0  4.017738  0  0  0.113392  0.093965  0  3.984675  0
C  C51  1  0.30911522  0.14052269  0.89367901  1  0  0.084376  0  3.755575  0  0  0.093215  0  3.997446  0  0  0.092035  0  4.017958  0  0  0.113413  0.093992  0  3.984841  0
C  C52  1  0.89859726  0.33506305  0.97994838  1  0  -0.106904  0  3.676501  0  0  -0.140612  0  3.924788  0  0  -0.142701  0  3.94368  0  0  -0.067686  -0.138885  0  3.911657  0
C  C53  1  0.60140059  0.83506188  0.02005186  1  0  -0.106993  0  3.676411  0  0  -0.140702  0  3.924732  0  0  -0.142795  0  3.943615  0  0  -0.067755  -0.138973  0  3.911598  0
C  C54  1  0.10139853  0.66493684  0.02005132  1  0  -0.106897  0  3.67638  0  0  -0.140631  0  3.924703  0  0  -0.142716  0  3.943596  0  0  -0.067701  -0.138912  0  3.91157  0
C  C55  1  0.39860484  0.16493434  0.97994832  1  0  -0.106904  0  3.676557  0  0  -0.140668  0  3.924834  0  0  -0.142742  0  3.943743  0  0  -0.067719  -0.138961  0  3.911683  0
C  C56  1  0.86914356  0.40440011  0.05278328  1  0  -0.018457  0  3.716024  0  0  0.000371  0  3.953495  0  0  -0.003424  0  3.974004  0  0  0.000736  0.002708  0  3.939496  0
C  C57  1  0.63085417  0.90439765  0.94721634  1  0  -0.018477  0  3.716037  0  0  0.000361  0  3.953556  0  0  -0.003436  0  3.974068  0  0  0.000764  0.002701  0  3.939557  0
C  C58  1  0.13086189  0.59560161  0.94721624  1  0  -0.018524  0  3.71596  0  0  0.000297  0  3.953468  0  0  -0.003499  0  3.973975  0  0  0.000698  0.002635  0  3.939474  0
C  C59  1  0.36914160  0.09559949  0.05278534  1  0  -0.018488  0  3.716025  0  0  0.000368  0  3.953476  0  0  -0.003426  0  3.97398  0  0  0.000726  0.002706  0  3.939482  0
C  C60  1  0.75312509  0.49730532  0.03484488  1  0  -0.107322  0  3.666515  0  0  -0.130915  0  3.916553  0  0  -0.133698  0  3.935022  0  0  -0.068951  -0.128875  0  3.903722  0
C  C61  1  0.74687366  0.99730457  0.96515494  1  0  -0.107329  0  3.666526  0  0  -0.130926  0  3.916562  0  0  -0.133706  0  3.935028  0  0  -0.068944  -0.128888  0  3.903737  0
C  C62  1  0.24688275  0.50269732  0.96515624  1  0  -0.107279  0  3.666303  0  0  -0.130879  0  3.916385  0  0  -0.133651  0  3.934843  0  0  -0.068898  -0.128836  0  3.903559  0
C  C63  1  0.25312092  0.00269716  0.03484528  1  0  -0.107252  0  3.666494  0  0  -0.130863  0  3.916538  0  0  -0.133646  0  3.935008  0  0  -0.068886  -0.128823  0  3.903706  0
C  C64  1  0.67108688  0.51644718  0.94595325  1  0  0.145178  0  3.694109  0  0  0.116797  0  3.958308  0  0  0.121316  0  3.976981  0  0  0.057205  0.113864  0  3.947384  0
C  C65  1  0.82891040  0.01644878  0.05404665  1  0  0.145211  0  3.694084  0  0  0.116881  0  3.958281  0  0  0.121401  0  3.976955  0  0  0.057184  0.113922  0  3.947356  0
C  C66  1  0.32891610  0.48355179  0.05405061  1  0  0.14519  0  3.694286  0  0  0.116792  0  3.958505  0  0  0.121311  0  3.977178  0  0  0.057215  0.113842  0  3.947578  0
C  C67  1  0.17108419  0.98355295  0.94595290  1  0  0.145169  0  3.694118  0  0  0.116815  0  3.958295  0  0  0.121336  0  3.976967  0  0  0.057231  0.113886  0  3.947366  0
C  C68  1  0.83263754  0.28864208  0.81213639  1  0  0.679591  0  3.853317  0  0  0.62972  0  4.143332  0  0  0.665099  0  4.136794  0  0  0.23832  0.606081  0  4.150125  0
C  C69  1  0.66736401  0.78863926  0.18786491  1  0  0.679622  0  3.853252  0  0  0.629748  0  4.143286  0  0  0.665122  0  4.136745  0  0  0.238346  0.606107  0  4.150079  0
C  C70  1  0.16736303  0.71135322  0.18786718  1  0  0.679327  0  3.853571  0  0  0.629578  0  4.143369  0  0  0.664916  0  4.136909  0  0  0.238293  0.605931  0  4.150158  0
C  C71  1  0.33263540  0.21135512  0.81213455  1  0  0.679522  0  3.853205  0  0  0.629751  0  4.143047  0  0  0.665092  0  4.136576  0  0  0.238306  0.60609  0  4.149838  0
C  C72  1  0.96293132  0.38073080  0.14772349  1  0  0.660785  0  3.881593  0  0  0.606567  0  4.181141  0  0  0.639498  0  4.173263  0  0  0.218695  0.584516  0  4.185208  0
C  C73  1  0.53707006  0.88073198  0.85227720  1  0  0.66081  0  3.88158  0  0  0.606522  0  4.181258  0  0  0.639452  0  4.173381  0  0  0.21864  0.584467  0  4.185328  0
C  C74  1  0.03707531  0.61927277  0.85227749  1  0  0.660817  0  3.881648  0  0  0.606608  0  4.18117  0  0  0.639537  0  4.173293  0  0  0.21872  0.584557  0  4.185241  0
C  C75  1  0.46292934  0.11926975  0.14772358  1  0  0.660713  0  3.881599  0  0  0.606491  0  4.181135  0  0  0.639424  0  4.173258  0  0  0.218646  0.584439  0  4.185205  0
C  C76  1  0.56199040  0.44845591  0.49707005  1  0  0.546313  0  3.970691  0  0  0.50564  0  4.26922  0  0  0.53507  0  4.26775  0  0  0.203384  0.485491  0  4.274609  0
C  C77  1  0.93801818  0.94845324  0.50292360  1  0  0.546381  0  3.970721  0  0  0.50573  0  4.269236  0  0  0.535161  0  4.267763  0  0  0.203434  0.48558  0  4.274628  0
C  C78  1  0.43800794  0.55156144  0.50291869  1  0  0.546368  0  3.970335  0  0  0.50571  0  4.268845  0  0  0.535137  0  4.267373  0  0  0.203391  0.485563  0  4.274237  0
C  C79  1  0.06199814  0.05155676  0.49707455  1  0  0.54623  0  3.970529  0  0  0.50557  0  4.269027  0  0  0.534998  0  4.267558  0  0  0.203412  0.485421  0  4.274417  0
N  N80  1  0.69676088  0.44882085  0.87632630  1  0  -0.356498  0  3.200225  0  0  -0.313098  0  3.459227  0  0  -0.330245  0  3.47883  0  0  -0.329532  -0.306229  0  3.447426  0
N  N81  1  0.80323675  0.94882234  0.12367401  1  0  -0.356541  0  3.200271  0  0  -0.313135  0  3.459259  0  0  -0.330292  0  3.478857  0  0  -0.329509  -0.306264  0  3.447467  0
N  N82  1  0.30323608  0.55117629  0.12367619  1  0  -0.356468  0  3.20035  0  0  -0.313087  0  3.459372  0  0  -0.330237  0  3.478977  0  0  -0.329518  -0.306221  0  3.447569  0
N  N83  1  0.19676265  0.05117756  0.87632611  1  0  -0.356481  0  3.200297  0  0  -0.313105  0  3.459293  0  0  -0.330252  0  3.478898  0  0  -0.329524  -0.306252  0  3.447466  0
O  O84  1  0.74502466  0.32355627  0.73687673  1  0  -0.731313  0  2.177704  0  0  -0.666964  0  2.420681  0  0  -0.703999  0  2.40899  0  0  -0.38768  -0.648181  0  2.427232  0
O  O85  1  0.75497202  0.82355621  0.26312335  1  0  -0.731375  0  2.177797  0  0  -0.666995  0  2.420734  0  0  -0.704032  0  2.409042  0  0  -0.38768  -0.648215  0  2.427299  0
O  O86  1  0.25496632  0.67644087  0.26312173  1  0  -0.731272  0  2.178027  0  0  -0.66692  0  2.420844  0  0  -0.70393  0  2.409156  0  0  -0.38774  -0.648147  0  2.42742  0
O  O87  1  0.24502978  0.17644093  0.73687838  1  0  -0.731305  0  2.17786  0  0  -0.666966  0  2.420714  0  0  -0.70398  0  2.409031  0  0  -0.387663  -0.64819  0  2.427284  0
O  O88  1  0.93396481  0.20265558  0.81959028  1  0  -0.674189  0  2.005003  0  0  -0.626425  0  2.24911  0  0  -0.6605  0  2.238289  0  0  -0.347929  -0.609097  0  2.253587  0
O  O89  1  0.56603091  0.70265564  0.18040827  1  0  -0.67421  0  2.00492  0  0  -0.626447  0  2.249032  0  0  -0.660521  0  2.238208  0  0  -0.347958  -0.609115  0  2.253509  0
O  O90  1  0.06601891  0.79734339  0.18040931  1  0  -0.674137  0  2.004893  0  0  -0.626393  0  2.248878  0  0  -0.660458  0  2.238085  0  0  -0.347939  -0.609063  0  2.253353  0
O  O91  1  0.43397455  0.29734333  0.81958993  1  0  -0.6742  0  2.004769  0  0  -0.626472  0  2.248826  0  0  -0.660534  0  2.23802  0  0  -0.347948  -0.609145  0  2.253309  0
O  O92  1  0.08791603  0.31278633  0.15488492  1  0  -0.643965  0  1.991938  0  0  -0.581024  0  2.20926  0  0  -0.606068  0  2.198194  0  0  -0.314471  -0.563212  0  2.215654  0
O  O93  1  0.41209068  0.81278333  0.84511457  1  0  -0.643915  0  1.99202  0  0  -0.580952  0  2.209383  0  0  -0.605992  0  2.198317  0  0  -0.314404  -0.563141  0  2.215786  0
O  O94  1  0.91209182  0.68721356  0.84511554  1  0  -0.643982  0  1.992121  0  0  -0.581005  0  2.2094  0  0  -0.606047  0  2.198335  0  0  -0.314456  -0.563181  0  2.215765  0
O  O95  1  0.58791477  0.18721197  0.15488495  1  0  -0.643929  0  1.991977  0  0  -0.580976  0  2.209295  0  0  -0.606023  0  2.198229  0  0  -0.314441  -0.563161  0  2.215682  0
O  O96  1  0.91458818  0.42960193  0.21329050  1  0  -0.621413  0  1.958308  0  0  -0.569962  0  2.175318  0  0  -0.592213  0  2.162014  0  0  -0.316717  -0.554234  0  2.183531  0
O  O97  1  0.58540588  0.92960845  0.78670871  1  0  -0.621434  0  1.958198  0  0  -0.569953  0  2.175236  0  0  -0.592204  0  2.161932  0  0  -0.316709  -0.554222  0  2.183451  0
O  O98  1  0.08541605  0.57039980  0.78670954  1  0  -0.621379  0  1.958297  0  0  -0.569933  0  2.17529  0  0  -0.592182  0  2.161985  0  0  -0.316696  -0.554206  0  2.183505  0
O  O99  1  0.41458869  0.07039787  0.21329151  1  0  -0.621385  0  1.958211  0  0  -0.569935  0  2.175214  0  0  -0.592185  0  2.161909  0  0  -0.316718  -0.554205  0  2.183426  0
O  O100  1  0.62302229  0.39574013  0.57053662  1  0  -0.648943  0  2.075094  0  0  -0.603744  0  2.318722  0  0  -0.634221  0  2.306628  0  0  -0.361678  -0.587921  0  2.325243  0
O  O101  1  0.87698866  0.89574202  0.42946787  1  0  -0.648884  0  2.075523  0  0  -0.603731  0  2.319189  0  0  -0.634203  0  2.307089  0  0  -0.361708  -0.587912  0  2.325716  0
O  O102  1  0.37699144  0.60426711  0.42947579  1  0  -0.648825  0  2.075819  0  0  -0.603658  0  2.319476  0  0  -0.63412  0  2.307372  0  0  -0.36172  -0.587842  0  2.326006  0
O  O103  1  0.12302766  0.10426247  0.57053029  1  0  -0.648764  0  2.075509  0  0  -0.603586  0  2.319134  0  0  -0.634056  0  2.307038  0  0  -0.361689  -0.587766  0  2.325657  0
O  O104  1  0.59073539  0.42514571  0.41963533  1  0  -0.670807  0  2.032253  0  0  -0.625825  0  2.271372  0  0  -0.656791  0  2.256264  0  0  -0.386874  -0.610289  0  2.279654  0
O  O105  1  0.90927189  0.92514504  0.58036874  1  0  -0.670938  0  2.031865  0  0  -0.625956  0  2.270974  0  0  -0.656927  0  2.255866  0  0  -0.386945  -0.610418  0  2.279257  0
O  O106  1  0.40926386  0.57486797  0.58037669  1  0  -0.670971  0  2.031111  0  0  -0.625985  0  2.270202  0  0  -0.656959  0  2.255094  0  0  -0.386893  -0.610443  0  2.278483  0
O  O107  1  0.09073963  0.07486680  0.41962686  1  0  -0.670873  0  2.031461  0  0  -0.625884  0  2.270547  0  0  -0.656854  0  2.25544  0  0  -0.386879  -0.610346  0  2.278828  0
O  O108  1  0.43913164  0.23320521  0.63266452  1  0  -0.889825  0  1.904068  0  0  -0.836331  0  2.094268  0  0  -0.864156  0  2.061616  0  0  -0.603997  -0.82239  0  2.11342  0
O  O109  1  0.06086437  0.73320466  0.36733430  1  0  -0.889798  0  1.904071  0  0  -0.836268  0  2.094244  0  0  -0.864094  0  2.061595  0  0  -0.603957  -0.822309  0  2.113432  0
O  O110  1  0.56087024  0.76679560  0.36733060  1  0  -0.889818  0  1.904065  0  0  -0.836316  0  2.094275  0  0  -0.864142  0  2.061619  0  0  -0.604011  -0.822367  0  2.113422  0
O  O111  1  0.93912660  0.26679340  0.63266482  1  0  -0.889862  0  1.904021  0  0  -0.836367  0  2.094215  0  0  -0.864194  0  2.061567  0  0  -0.604077  -0.82242  0  2.113355  0
O  O112  1  0.68159484  0.61147065  0.71205254  1  0  -0.921517  0  1.868887  0  0  -0.875033  0  2.06358  0  0  -0.90362  0  2.023918  0  0  -0.645117  -0.86209  0  2.085821  0
O  O113  1  0.81840464  0.11146805  0.28794903  1  0  -0.921554  0  1.868855  0  0  -0.875056  0  2.063558  0  0  -0.90364  0  2.023881  0  0  -0.645131  -0.862111  0  2.085803  0
O  O114  1  0.31840452  0.38853108  0.28795089  1  0  -0.921536  0  1.868777  0  0  -0.875055  0  2.063527  0  0  -0.903637  0  2.023844  0  0  -0.645174  -0.862108  0  2.085781  0
O  O115  1  0.18158751  0.88852449  0.71205222  1  0  -0.921497  0  1.868778  0  0  -0.875027  0  2.063571  0  0  -0.903611  0  2.023895  0  0  -0.645126  -0.86208  0  2.08582  0
O  O116  1  0.38777990  0.58230684  0.78361970  1  0  -0.958115  0  1.915137  0  0  -0.908382  0  2.124047  0  0  -0.94011  0  2.08572  0  0  -0.674122  -0.893608  0  2.146199  0
O  O117  1  0.11222363  0.08230715  0.21637988  1  0  -0.958182  0  1.915093  0  0  -0.908441  0  2.12401  0  0  -0.940169  0  2.085678  0  0  -0.674115  -0.89367  0  2.146166  0
O  O118  1  0.61222314  0.41769305  0.21637953  1  0  -0.958115  0  1.915151  0  0  -0.908371  0  2.124084  0  0  -0.940101  0  2.085747  0  0  -0.674098  -0.893597  0  2.146238  0
O  O119  1  0.88777218  0.91769458  0.78361783  1  0  -0.958194  0  1.915054  0  0  -0.908452  0  2.124  0  0  -0.940182  0  2.085667  0  0  -0.674116  -0.893673  0  2.14615  0
O  O120  1  0.21131292  0.42174237  0.65468977  1  0  -0.904675  0  1.849745  0  0  -0.858079  0  2.033515  0  0  -0.884515  0  1.99509  0  0  -0.62816  -0.845548  0  2.055798  0
O  O121  1  0.28868036  0.92173505  0.34530425  1  0  -0.904605  0  1.849908  0  0  -0.85799  0  2.033691  0  0  -0.884435  0  1.995268  0  0  -0.628229  -0.845454  0  2.05598  0
O  O122  1  0.78868408  0.57825660  0.34530940  1  0  -0.904617  0  1.849833  0  0  -0.858036  0  2.033581  0  0  -0.884455  0  1.995179  0  0  -0.628145  -0.845535  0  2.055791  0
O  O123  1  0.71131311  0.07825657  0.65468789  1  0  -0.904645  0  1.849773  0  0  -0.858049  0  2.033484  0  0  -0.884468  0  1.995085  0  0  -0.628153  -0.845551  0  2.055695  0
