# generated using pymatgen
data_CaH8C5BrO8
_symmetry_space_group_name_H-M   'P 1'
_cell_length_a   6.81987555
_cell_length_b   7.67638018
_cell_length_c   9.92207085
_cell_angle_alpha   75.61499436
_cell_angle_beta   72.75904096
_cell_angle_gamma   78.84085097
_symmetry_Int_Tables_number   1
_chemical_formula_structural   CaH8C5BrO8
_chemical_formula_sum   'Ca2 H16 C10 Br2 O16'
_cell_volume   476.49301949
_cell_formula_units_Z   2
loop_
 _symmetry_equiv_pos_site_id
 _symmetry_equiv_pos_as_xyz
  1  'x, y, z'
loop_
 _atom_site_type_symbol
 _atom_site_label
 _atom_site_symmetry_multiplicity
 _atom_site_fract_x
 _atom_site_fract_y
 _atom_site_fract_z
 _atom_site_occupancy
 _atom_site_hle17_bader_spin_density
 _atom_site_hle17_ddec_charge
 _atom_site_hle17_ddec_spin_density
 _atom_site_hle17_ddec_sum_bond_order
 _atom_site_hle17_magmom
 _atom_site_hse06_10hf_bader_spin_density
 _atom_site_hse06_10hf_ddec_charge
 _atom_site_hse06_10hf_ddec_spin_density
 _atom_site_hse06_10hf_ddec_sum_bond_order
 _atom_site_hse06_10hf_magmom
 _atom_site_hse06_bader_spin_density
 _atom_site_hse06_ddec_charge
 _atom_site_hse06_ddec_spin_density
 _atom_site_hse06_ddec_sum_bond_order
 _atom_site_hse06_magmom
 _atom_site_pbe_bader_spin_density
 _atom_site_pbe_cm5_charge
 _atom_site_pbe_ddec_charge
 _atom_site_pbe_ddec_spin_density
 _atom_site_pbe_ddec_sum_bond_order
 _atom_site_pbe_magmom
Ca  Ca0  1  0.19772915  0.49135094  0.12445056  1  0  1.599157  0  1.023467  0  0  1.471666  0  1.362106  0  0  1.514204  0  1.317323  0  0  0.85761  1.439449  0  1.39427  0
Ca  Ca1  1  0.80226280  0.50864888  0.87555038  1  0  1.599189  0  1.023388  0  0  1.4717  0  1.36201  0  0  1.514229  0  1.317237  0  0  0.857589  1.439458  0  1.394205  0
H  H2  1  0.28504516  0.16564801  0.98145990  1  0  0.423175  0  0.876016  0  0  0.393846  0  0.93897  0  0  0.403604  0  0.924703  0  0  0.303785  0.387055  0  0.948897  0
H  H3  1  0.71495705  0.83435474  0.01854036  1  0  0.423107  0  0.876021  0  0  0.393769  0  0.939062  0  0  0.403526  0  0.924796  0  0  0.303762  0.386977  0  0.948989  0
H  H4  1  0.25191643  0.08065235  0.14931030  1  0  0.423513  0  0.886142  0  0  0.389408  0  0.954269  0  0  0.401247  0  0.937013  0  0  0.292331  0.381043  0  0.966449  0
H  H5  1  0.74808517  0.91934496  0.85068810  1  0  0.423494  0  0.886164  0  0  0.389393  0  0.954287  0  0  0.401231  0  0.93703  0  0  0.292325  0.381025  0  0.966471  0
H  H6  1  0.12135580  0.31911672  0.45962398  1  0  0.436335  0  0.842463  0  0  0.408201  0  0.905347  0  0  0.41815  0  0.890813  0  0  0.300217  0.400933  0  0.915992  0
H  H7  1  0.87864510  0.68088465  0.54037481  1  0  0.436297  0  0.842502  0  0  0.408161  0  0.905404  0  0  0.418111  0  0.890869  0  0  0.300185  0.400892  0  0.916051  0
H  H8  1  0.20795005  0.16429861  0.37216804  1  0  0.414067  0  0.878229  0  0  0.378338  0  0.957113  0  0  0.387963  0  0.942944  0  0  0.294327  0.371425  0  0.967311  0
H  H9  1  0.79205237  0.83570279  0.62783042  1  0  0.414085  0  0.878171  0  0  0.378359  0  0.957105  0  0  0.387981  0  0.942935  0  0  0.294323  0.371445  0  0.967303  0
H  H10  1  0.25393052  0.88741017  0.92959391  1  0  0.430655  0  0.85142  0  0  0.400117  0  0.918044  0  0  0.410614  0  0.902371  0  0  0.302791  0.392519  0  0.929438  0
H  H11  1  0.74608134  0.11259006  0.07040482  1  0  0.430711  0  0.851282  0  0  0.400159  0  0.917991  0  0  0.410657  0  0.902315  0  0  0.30276  0.392566  0  0.929375  0
H  H12  1  0.03971027  0.82176413  0.95361081  1  0  0.421318  0  0.878548  0  0  0.391415  0  0.94366  0  0  0.402228  0  0.927729  0  0  0.297408  0.383625  0  0.955161  0
H  H13  1  0.96030108  0.17823883  0.04638448  1  0  0.421318  0  0.878627  0  0  0.391422  0  0.943665  0  0  0.402235  0  0.927734  0  0  0.297406  0.383629  0  0.955171  0
H  H14  1  0.88661280  0.75973769  0.27775844  1  0  0.411812  0  0.872693  0  0  0.379647  0  0.952344  0  0  0.38964  0  0.937785  0  0  0.292897  0.372483  0  0.962787  0
H  H15  1  0.11338156  0.24026623  0.72224626  1  0  0.411832  0  0.872699  0  0  0.379657  0  0.952344  0  0  0.389649  0  0.937785  0  0  0.292892  0.372494  0  0.962787  0
H  H16  1  0.09394847  0.78269491  0.30868172  1  0  0.413751  0  0.892413  0  0  0.380437  0  0.960778  0  0  0.391174  0  0.945209  0  0  0.289172  0.372794  0  0.971894  0
H  H17  1  0.90605114  0.21730507  0.69131861  1  0  0.413732  0  0.892437  0  0  0.380421  0  0.960801  0  0  0.391157  0  0.945232  0  0  0.28916  0.372774  0  0.971925  0
C  C18  1  0.48068459  0.66267819  0.39772605  1  0  -0.098679  0  3.711589  0  0  -0.095381  0  3.960075  0  0  -0.098376  0  3.977231  0  0  -0.01161  -0.093472  0  3.948461  0
C  C19  1  0.51930997  0.33732439  0.60227584  1  0  -0.098774  0  3.711579  0  0  -0.095515  0  3.96012  0  0  -0.098468  0  3.977208  0  0  -0.011667  -0.093668  0  3.948586  0
C  C20  1  0.66302938  0.50527247  0.19505322  1  0  0.700411  0  3.945989  0  0  0.645962  0  4.241954  0  0  0.680914  0  4.23173  0  0  0.231194  0.622089  0  4.247803  0
C  C21  1  0.33696503  0.49472196  0.80494621  1  0  0.700351  0  3.946065  0  0  0.645954  0  4.241943  0  0  0.680896  0  4.231732  0  0  0.231104  0.622071  0  4.247806  0
C  C22  1  0.60338659  0.34068278  0.45515815  1  0  0.074451  0  3.66478  0  0  0.072011  0  3.937561  0  0  0.07683  0  3.955308  0  0  -0.002399  0.06864  0  3.925775  0
C  C23  1  0.39661102  0.65931986  0.54484309  1  0  0.074419  0  3.66481  0  0  0.071958  0  3.937625  0  0  0.076784  0  3.955391  0  0  -0.002435  0.068568  0  3.925827  0
C  C24  1  0.46969481  0.83335048  0.28328694  1  0  0.674117  0  3.899658  0  0  0.611716  0  4.213363  0  0  0.645126  0  4.20462  0  0  0.220272  0.589013  0  4.218809  0
C  C25  1  0.53030501  0.16664815  0.71671158  1  0  0.674146  0  3.899609  0  0  0.611775  0  4.213302  0  0  0.645176  0  4.204554  0  0  0.22029  0.589096  0  4.21874  0
C  C26  1  0.58359613  0.50101013  0.35374840  1  0  -0.085696  0  3.718665  0  0  -0.079604  0  3.96046  0  0  -0.082147  0  3.976292  0  0  -0.001387  -0.077587  0  3.949359  0
C  C27  1  0.41639973  0.49899384  0.64625396  1  0  -0.085557  0  3.718525  0  0  -0.0795  0  3.960377  0  0  -0.082047  0  3.976191  0  0  -0.001291  -0.077463  0  3.949292  0
Br  Br28  1  0.73018156  0.12385869  0.38868837  1  0  -0.01385  0  1.430035  0  0  -0.011131  0  1.722519  0  0  -0.011857  0  1.71018  0  0  0.095009  -0.010502  0  1.731865  0
Br  Br29  1  0.26982336  0.87613732  0.61131160  1  0  -0.013836  0  1.43019  0  0  -0.011107  0  1.722662  0  0  -0.011829  0  1.710318  0  0  0.095024  -0.01048  0  1.732021  0
O  O30  1  0.64032927  0.87879917  0.19854078  1  0  -0.650976  0  2.000417  0  0  -0.584026  0  2.222061  0  0  -0.608742  0  2.210665  0  0  -0.301731  -0.566912  0  2.229891  0
O  O31  1  0.35966859  0.12120212  0.80146167  1  0  -0.651004  0  2.000371  0  0  -0.584082  0  2.222004  0  0  -0.608798  0  2.210609  0  0  -0.301748  -0.566962  0  2.229822  0
O  O32  1  0.85515985  0.49040284  0.13779993  1  0  -0.718051  0  2.083891  0  0  -0.656381  0  2.338465  0  0  -0.685883  0  2.330336  0  0  -0.373031  -0.635179  0  2.343132  0
O  O33  1  0.14483586  0.50959298  0.86219998  1  0  -0.718046  0  2.083909  0  0  -0.656374  0  2.338436  0  0  -0.685871  0  2.330313  0  0  -0.372993  -0.63516  0  2.343101  0
O  O34  1  0.53055241  0.52855334  0.12315269  1  0  -0.732252  0  2.017583  0  0  -0.66866  0  2.26511  0  0  -0.697884  0  2.255495  0  0  -0.37403  -0.648084  0  2.270984  0
O  O35  1  0.46943529  0.47145319  0.87684786  1  0  -0.732266  0  2.017642  0  0  -0.668679  0  2.265113  0  0  -0.697898  0  2.255499  0  0  -0.374021  -0.6481  0  2.271  0
O  O36  1  0.29037673  0.91680384  0.27944041  1  0  -0.641669  0  2.061749  0  0  -0.571582  0  2.284309  0  0  -0.597695  0  2.273151  0  0  -0.295717  -0.553378  0  2.292081  0
O  O37  1  0.70962049  0.08319202  0.72055716  1  0  -0.641635  0  2.061768  0  0  -0.571565  0  2.284339  0  0  -0.597682  0  2.273185  0  0  -0.295706  -0.553365  0  2.292106  0
O  O38  1  0.21089743  0.18990254  0.07810628  1  0  -0.883768  0  1.87443  0  0  -0.82098  0  2.058064  0  0  -0.84338  0  2.026754  0  0  -0.605696  -0.804814  0  2.079831  0
O  O39  1  0.78910525  0.81009750  0.92189340  1  0  -0.883714  0  1.874451  0  0  -0.820922  0  2.058159  0  0  -0.843321  0  2.026854  0  0  -0.605661  -0.804753  0  2.079928  0
O  O40  1  0.18480680  0.29618481  0.36151863  1  0  -0.878156  0  1.837585  0  0  -0.829129  0  2.027223  0  0  -0.848994  0  1.998171  0  0  -0.61376  -0.814754  0  2.048003  0
O  O41  1  0.81519740  0.70381526  0.63848072  1  0  -0.878144  0  1.837546  0  0  -0.829136  0  2.027121  0  0  -0.848991  0  1.998092  0  0  -0.613731  -0.814753  0  2.04791  0
O  O42  1  0.15731883  0.80614281  0.99698615  1  0  -0.876548  0  1.817179  0  0  -0.824992  0  1.998379  0  0  -0.844264  0  1.966415  0  0  -0.619591  -0.811103  0  2.021459  0
O  O43  1  0.84269500  0.19385476  0.00300864  1  0  -0.876595  0  1.817112  0  0  -0.825042  0  1.998266  0  0  -0.844316  0  1.966304  0  0  -0.61954  -0.811155  0  2.021345  0
O  O44  1  0.99585640  0.69424682  0.32517842  1  0  -0.843101  0  1.79539  0  0  -0.780843  0  1.967068  0  0  -0.802434  0  1.938595  0  0  -0.578047  -0.765204  0  1.987286  0
O  O45  1  0.00413840  0.30575441  0.67482367  1  0  -0.843124  0  1.795419  0  0  -0.780857  0  1.96705  0  0  -0.802448  0  1.938588  0  0  -0.57804  -0.765213  0  1.987271  0
