# generated using pymatgen
data_CuH12C9(NO2)2
_symmetry_space_group_name_H-M   'P 1'
_cell_length_a   7.94897112
_cell_length_b   8.11504799
_cell_length_c   10.54680300
_cell_angle_alpha   105.14524774
_cell_angle_beta   114.18792707
_cell_angle_gamma   92.93692232
_symmetry_Int_Tables_number   1
_chemical_formula_structural   CuH12C9(NO2)2
_chemical_formula_sum   'Cu2 H24 C18 N4 O8'
_cell_volume   589.29168812
_cell_formula_units_Z   2
loop_
 _symmetry_equiv_pos_site_id
 _symmetry_equiv_pos_as_xyz
  1  'x, y, z'
loop_
 _atom_site_type_symbol
 _atom_site_label
 _atom_site_symmetry_multiplicity
 _atom_site_fract_x
 _atom_site_fract_y
 _atom_site_fract_z
 _atom_site_occupancy
 _atom_site_hse06_10hf_ddec_charge
 _atom_site_hse06_10hf_ddec_spin_density
 _atom_site_hse06_10hf_ddec_sum_bond_order
 _atom_site_hse06_10hf_magmom
 _atom_site_hse06_ddec_charge
 _atom_site_hse06_ddec_spin_density
 _atom_site_hse06_ddec_sum_bond_order
 _atom_site_hse06_magmom
 _atom_site_pbe_cm5_charge
 _atom_site_pbe_ddec_charge
 _atom_site_pbe_ddec_spin_density
 _atom_site_pbe_ddec_sum_bond_order
 _atom_site_pbe_magmom
Cu  Cu0  1  0.04979458  0.58918925  0.13869269  1  0.838853  -0.804463  2.302459  -0.641  0.943548  -0.893748  2.218259  -0.742  0.676331  0.770094  -0.702206  2.363203  -0.547
Cu  Cu1  1  0.95021729  0.41079996  0.86131356  1  0.838857  0.804464  2.302451  0.641  0.943632  0.893749  2.218116  0.742  0.676413  0.770116  0.702169  2.363203  0.547
H  H2  1  0.85404550  0.98201470  0.86438484  1  0.171432  -1.1e-05  1.015795  0.0  0.17395  -3.3e-05  1.015648  0.0  0.104747  0.169602  1.2e-05  1.015913  0.0
H  H3  1  0.14602240  0.01793773  0.13567093  1  0.171261  1.2e-05  1.015709  0.0  0.17375  3.3e-05  1.01559  0.0  0.104708  0.169428  -1.2e-05  1.015819  0.0
H  H4  1  0.70194253  0.96369917  0.94566286  1  0.1446  0.000787  1.026573  0.001  0.145682  0.000526  1.027539  0.001  0.094161  0.143535  0.000913  1.026106  0.001
H  H5  1  0.29809304  0.03635386  0.05438655  1  0.144538  -0.000787  1.026926  -0.001  0.145621  -0.000526  1.027894  -0.001  0.094117  0.143463  -0.000913  1.026446  -0.001
H  H6  1  0.63205229  0.84099299  0.75773450  1  0.161671  -0.00076  0.981805  -0.001  0.163672  -0.00052  0.981229  -0.001  0.101405  0.160042  -0.000874  0.982333  -0.001
H  H7  1  0.36795445  0.15905383  0.24229119  1  0.161842  0.000759  0.981673  0.001  0.163843  0.00052  0.981096  0.001  0.101552  0.160202  0.000873  0.982209  0.001
H  H8  1  0.48665683  0.13259891  0.92513102  1  0.140732  -0.000443  1.031782  -0.001  0.142354  -0.000299  1.031961  0.0  0.096224  0.139447  -0.000509  1.031744  -0.001
H  H9  1  0.51338179  0.86739484  0.07482917  1  0.140672  0.000443  1.031906  0.001  0.142296  0.000298  1.032087  0.0  0.09621  0.139385  0.000509  1.031864  0.001
H  H10  1  0.50304866  0.31537479  0.07178932  1  0.16072  0.000865  0.987762  0.001  0.162415  0.000589  0.98746  0.001  0.10006  0.159212  0.000996  0.988219  0.001
H  H11  1  0.49696663  0.68460870  0.92817710  1  0.160575  -0.000864  0.987637  -0.001  0.162269  -0.000589  0.987339  -0.001  0.099945  0.159068  -0.000996  0.988094  -0.001
H  H12  1  0.38919779  0.31595847  0.88761663  1  0.177749  -0.000345  0.992231  0.0  0.180477  -0.000253  0.991336  0.0  0.106807  0.175713  -0.00038  0.992982  0.0
H  H13  1  0.61083825  0.68403486  0.11236400  1  0.177789  0.000345  0.991972  0.0  0.180535  0.000253  0.991054  0.0  0.106824  0.175743  0.000379  0.992718  0.0
H  H14  1  0.31006448  0.10303009  0.64467188  1  0.133606  4.6e-05  1.004205  0.0  0.137031  2.7e-05  1.00213  0.0  0.125606  0.131109  6.2e-05  1.005844  0.0
H  H15  1  0.68992356  0.89699702  0.35531484  1  0.133744  -4.6e-05  1.004198  0.0  0.137167  -2.6e-05  1.002119  0.0  0.125653  0.131241  -6.2e-05  1.005829  0.0
H  H16  1  0.27166281  0.97089853  0.36138505  1  0.107178  9.1e-05  1.028789  0.0  0.109781  7e-05  1.027879  0.0  0.116232  0.105327  0.000101  1.029344  0.0
H  H17  1  0.72830180  0.02910561  0.63859354  1  0.107316  -9.1e-05  1.02878  0.0  0.109919  -7e-05  1.027873  0.0  0.116273  0.105471  -0.000101  1.029333  0.0
H  H18  1  0.00331075  0.79443092  0.69972235  1  0.137043  2.7e-05  0.997982  0.0  0.137949  7e-06  0.998469  0.0  0.112538  0.136394  4.1e-05  0.997643  0.0
H  H19  1  0.99668210  0.20555530  0.30024859  1  0.137178  -2.7e-05  0.997748  0.0  0.138088  -7e-06  0.998231  0.0  0.112585  0.136517  -4.2e-05  0.997414  0.0
H  H20  1  0.14660396  0.00378773  0.77776928  1  0.133721  3.7e-05  1.024159  0.0  0.135982  7e-06  1.022865  0.0  0.109332  0.131993  6.4e-05  1.025203  0.0
H  H21  1  0.85335998  0.99619821  0.22221469  1  0.133765  -3.7e-05  1.024176  0.0  0.136024  -7e-06  1.022888  0.0  0.109438  0.132034  -6.4e-05  1.025211  0.0
H  H22  1  0.24966877  0.81542132  0.80068343  1  0.118074  -2.9e-05  1.014081  0.0  0.118866  -2.9e-05  1.013881  0.0  0.101973  0.117316  -2.3e-05  1.014457  0.0
H  H23  1  0.75032726  0.18458545  0.19930713  1  0.118026  3e-05  1.014038  0.0  0.118816  2.9e-05  1.013841  0.0  0.101947  0.117264  2.3e-05  1.014414  0.0
H  H24  1  0.92313672  0.46081927  0.33211921  1  0.124342  5e-05  1.056567  0.0  0.12832  6.5e-05  1.053615  0.0  0.106513  0.121485  3e-05  1.058804  0.0
H  H25  1  0.07683192  0.53919077  0.66791041  1  0.124447  -5e-05  1.056225  0.0  0.128428  -6.5e-05  1.053267  0.0  0.106529  0.121568  -3e-05  1.058499  0.0
C  C26  1  0.83996589  0.74519358  0.91564778  1  0.698616  -0.000277  4.119443  0.0  0.73955  -0.000303  4.11278  0.0  0.210763  0.670603  -0.000247  4.123381  0.0
C  C27  1  0.15999824  0.25478795  0.08437261  1  0.698021  0.000279  4.119814  0.0  0.738957  0.0003  4.113166  0.0  0.210486  0.670006  0.000243  4.123736  0.0
C  C28  1  0.74922911  0.89103763  0.86719282  1  -0.524584  0.000294  3.861108  0.0  -0.533588  0.000151  3.864483  0.0  -0.244374  -0.517081  0.000387  3.858399  0.0
C  C29  1  0.25082216  0.10896180  0.13286229  1  -0.524338  -0.000294  3.860915  0.0  -0.533315  -0.00015  3.864328  0.0  -0.244491  -0.516818  -0.00038  3.858191  0.0
C  C30  1  0.68925364  0.35419788  0.97598096  1  0.696861  -0.000284  4.125626  -0.001  0.737819  -0.000309  4.118738  -0.001  0.211124  0.668804  -0.000226  4.129646  -0.001
C  C31  1  0.31076663  0.64580240  0.02400269  1  0.696838  0.000284  4.126162  0.001  0.737801  0.00031  4.119258  0.001  0.210965  0.668782  0.000222  4.13019  0.001
C  C32  1  0.50625515  0.27449287  0.96552027  1  -0.530013  -0.000196  3.877848  0.0  -0.538652  -0.000167  3.880498  0.0  -0.244554  -0.522814  -0.000212  3.875683  0.0
C  C33  1  0.49374141  0.72549876  0.03444690  1  -0.529961  0.000197  3.877643  0.0  -0.538611  0.000167  3.880286  0.0  -0.24455  -0.522764  0.000218  3.875475  0.0
C  C34  1  0.09094332  0.70373196  0.46841612  1  0.27578  0.000314  4.009082  0.0  0.289596  0.000291  4.024622  0.0  0.204846  0.266855  0.00034  3.998201  0.0
C  C35  1  0.90904941  0.29626809  0.53158087  1  0.275858  -0.000314  4.008844  0.0  0.289674  -0.000291  4.024395  0.0  0.204883  0.266952  -0.00034  3.997955  0.0
C  C36  1  0.24453839  0.97666064  0.56384890  1  -0.110628  -0.000107  3.940909  0.0  -0.108762  -0.000107  3.95833  0.0  0.001279  -0.111869  -0.000102  3.929304  0.0
C  C37  1  0.75545637  0.02336027  0.43614168  1  -0.110847  0.000106  3.941027  0.0  -0.108973  0.00011  3.95844  0.0  0.001246  -0.112074  0.000102  3.929401  0.0
C  C38  1  0.22257193  0.90964541  0.42271627  1  -0.016572  0.000252  4.059084  0.0  -0.013875  0.000216  4.078365  0.0  -0.002222  -0.018272  0.00029  4.045903  0.0
C  C39  1  0.77740505  0.09036048  0.57727105  1  -0.016754  -0.00025  4.058965  0.0  -0.01406  -0.000218  4.078251  0.0  -0.002275  -0.01845  -0.000291  4.045796  0.0
C  C40  1  0.13963143  0.86630041  0.72543253  1  -0.276129  4.8e-05  3.875762  0.0  -0.27333  6e-06  3.883825  0.0  -0.129903  -0.277783  9.6e-05  3.870438  0.0
C  C41  1  0.86035116  0.13368751  0.27456538  1  -0.276429  -5e-05  3.875941  0.0  -0.273635  -5e-06  3.884005  0.0  -0.130037  -0.278081  -9.6e-05  3.870606  0.0
C  C42  1  0.99853880  0.53456320  0.44751913  1  -0.171419  -0.000187  4.004528  0.0  -0.171561  -0.00018  4.017266  0.0  -0.092096  -0.171369  -0.000191  3.995927  0.0
C  C43  1  0.00144265  0.46544787  0.55248179  1  -0.171723  0.000187  4.00422  0.0  -0.171873  0.00018  4.016968  0.0  -0.092148  -0.171667  0.000191  3.995647  0.0
N  N44  1  0.16053656  0.84663631  0.59182598  1  0.031369  8.1e-05  3.764882  0.0  0.017229  6.1e-05  3.79146  0.0  -0.242901  0.040595  0.000115  3.746903  0.0
N  N45  1  0.83946518  0.15337079  0.40816010  1  0.031583  -8.1e-05  3.764748  0.0  0.017445  -6.3e-05  3.791324  0.0  -0.243039  0.040806  -0.000115  3.74676  0.0
N  N46  1  0.12582532  0.74270566  0.36369366  1  -0.363687  0.000773  3.462611  0.0  -0.385624  0.000783  3.475259  0.0  -0.358896  -0.34901  0.000712  3.454697  0.0
N  N47  1  0.87417950  0.25730777  0.63631173  1  -0.363649  -0.000773  3.462427  0.0  -0.385602  -0.000782  3.475074  0.0  -0.358809  -0.348982  -0.000712  3.454544  0.0
O  O48  1  0.91825840  0.76777215  0.05312611  1  -0.576362  -0.0487  2.355625  -0.071  -0.621384  -0.038296  2.349315  -0.059  -0.316795  -0.54641  -0.051231  2.360236  -0.071
O  O49  1  0.08171687  0.23219195  0.94688601  1  -0.575965  0.048696  2.355406  0.071  -0.620994  0.038296  2.349109  0.059  -0.316573  -0.546029  0.051235  2.360028  0.072
O  O50  1  0.83368625  0.61371445  0.81566263  1  -0.555561  0.052795  2.308103  0.077  -0.600611  0.041064  2.300138  0.063  -0.316631  -0.525758  0.055922  2.313899  0.078
O  O51  1  0.16624995  0.38626956  0.18436107  1  -0.55547  -0.052796  2.308241  -0.077  -0.600518  -0.041066  2.300302  -0.063  -0.316479  -0.525663  -0.05591  2.314018  -0.078
O  O52  1  0.71490433  0.30837226  0.86141550  1  -0.551105  0.050763  2.304721  0.074  -0.595292  0.039742  2.297034  0.061  -0.315641  -0.521697  0.0535  2.310115  0.075
O  O53  1  0.28512150  0.69161915  0.13857406  1  -0.551037  -0.050731  2.3048  -0.074  -0.595204  -0.039715  2.297115  -0.061  -0.315491  -0.521603  -0.053462  2.310126  -0.074
O  O54  1  0.80179337  0.46227305  0.09921685  1  -0.576122  -0.049515  2.382159  -0.072  -0.62142  -0.0389  2.375049  -0.06  -0.315904  -0.54589  -0.05223  2.387236  -0.073
O  O55  1  0.19821623  0.53773303  0.90077640  1  -0.576301  0.049485  2.382356  0.072  -0.621602  0.038875  2.375217  0.06  -0.31591  -0.546089  0.052212  2.387469  0.073
