# generated using pymatgen
data_CdH8C7(N2Cl)2
_symmetry_space_group_name_H-M   'P 1'
_cell_length_a   9.15350821
_cell_length_b   9.15361248
_cell_length_c   13.99969544
_cell_angle_alpha   98.06034644
_cell_angle_beta   106.95332629
_cell_angle_gamma   109.85330236
_symmetry_Int_Tables_number   1
_chemical_formula_structural   CdH8C7(N2Cl)2
_chemical_formula_sum   'Cd4 H32 C28 N16 Cl8'
_cell_volume   1017.34183386
_cell_formula_units_Z   4
loop_
 _symmetry_equiv_pos_site_id
 _symmetry_equiv_pos_as_xyz
  1  'x, y, z'
loop_
 _atom_site_type_symbol
 _atom_site_label
 _atom_site_symmetry_multiplicity
 _atom_site_fract_x
 _atom_site_fract_y
 _atom_site_fract_z
 _atom_site_occupancy
 _atom_site_pbe_bader_charge
 _atom_site_pbe_bader_spin_density
 _atom_site_pbe_cm5_charge
 _atom_site_pbe_ddec_charge
 _atom_site_pbe_ddec_spin_density
 _atom_site_pbe_ddec_sum_bond_order
 _atom_site_pbe_magmom
Cd  Cd0  1  0.00218064  0.05823612  0.86035193  1  1.161693  0  0.605572  0.785481  0  2.387914  0
Cd  Cd1  1  0.69789237  0.14179100  0.63970076  1  1.160461  0  0.605544  0.784902  0  2.389321  0
Cd  Cd2  1  0.99781884  0.94176373  0.13964734  1  1.16165  0  0.605583  0.78553  0  2.387852  0
Cd  Cd3  1  0.30210882  0.85820986  0.36029902  1  1.16046  0  0.605539  0.784897  0  2.389345  0
H  H4  1  0.16509725  0.82153257  0.97914790  1  0.195241  0  0.110953  0.094866  0  1.080404  0
H  H5  1  0.34235653  0.18576030  0.52079390  1  0.177576  0  0.111176  0.094807  0  1.080712  0
H  H6  1  0.83490788  0.17846951  0.02085703  1  0.195235  0  0.110945  0.094845  0  1.080392  0
H  H7  1  0.65764388  0.81423934  0.47920631  1  0.177596  0  0.111174  0.094761  0  1.080746  0
H  H8  1  0.51683979  0.88136836  0.83084908  1  0.15338  0  0.114573  0.124629  0  1.035553  0
H  H9  1  0.55032818  0.68576195  0.66906877  1  0.170795  0  0.114633  0.124954  0  1.035346  0
H  H10  1  0.48315727  0.11862977  0.16914897  1  0.153219  0  0.114571  0.124631  0  1.035525  0
H  H11  1  0.44967130  0.31423790  0.33093051  1  0.170807  0  0.114637  0.124949  0  1.035406  0
H  H12  1  0.29280100  0.00881056  0.74143431  1  0.114106  0  0.109171  0.109412  0  1.027481  0
H  H13  1  0.76724609  0.55115690  0.75852026  1  0.135294  0  0.109189  0.109293  0  1.029231  0
H  H14  1  0.70719349  0.99118781  0.25856600  1  0.113957  0  0.109162  0.109418  0  1.027447  0
H  H15  1  0.23275339  0.44884295  0.24147902  1  0.135282  0  0.109193  0.109296  0  1.02921  0
H  H16  1  0.16690555  0.45810197  0.98334289  1  0.1628  0  0.129174  0.105318  0  1.003999  0
H  H17  1  0.97467958  0.18342376  0.51670172  1  0.148967  0  0.129031  0.105103  0  1.005015  0
H  H18  1  0.83309393  0.54189788  0.01665638  1  0.1628  0  0.129177  0.105316  0  1.003978  0
H  H19  1  0.02532448  0.81657697  0.48329972  1  0.14895  0  0.129016  0.105122  0  1.005028  0
H  H20  1  0.31320659  0.25086821  0.75834453  1  0.108618  0  0.114947  0.110851  0  1.016705  0
H  H21  1  0.99244003  0.55510361  0.74145984  1  0.111545  0  0.114641  0.110965  0  1.016089  0
H  H22  1  0.68679604  0.74913408  0.24165668  1  0.1083  0  0.114925  0.110827  0  1.016723  0
H  H23  1  0.00756051  0.44490003  0.25853929  1  0.111857  0  0.114643  0.110963  0  1.016071  0
H  H24  1  0.52262313  0.57676598  0.83863879  1  0.168789  0  0.108107  0.115105  0  1.075949  0
H  H25  1  0.23801687  0.68395369  0.66109875  1  0.166458  0  0.108672  0.115906  0  1.07547  0
H  H26  1  0.47737921  0.42323673  0.16136335  1  0.168812  0  0.108113  0.115109  0  1.075958  0
H  H27  1  0.76198411  0.31604809  0.33890081  1  0.166305  0  0.108676  0.115943  0  1.075492  0
H  H28  1  0.56715279  0.78389070  0.00205469  1  0.158365  0  0.124813  0.105485  0  1.000399  0
H  H29  1  0.28173036  0.56481147  0.49780155  1  0.131956  0  0.125064  0.105615  0  1.000815  0
H  H30  1  0.43284812  0.21611058  0.99794601  1  0.158324  0  0.124809  0.105474  0  1.000388  0
H  H31  1  0.71826984  0.43518612  0.50219724  1  0.131848  0  0.125058  0.105618  0  1.000801  0
H  H32  1  0.40410979  0.74289360  0.05435373  1  0.132541  0  0.123266  0.100216  0  1.009126  0
H  H33  1  0.18838103  0.34948000  0.44556519  1  0.14007  0  0.123386  0.100305  0  1.008347  0
H  H34  1  0.59589112  0.25710768  0.94564698  1  0.1326  0  0.123265  0.100204  0  1.009152  0
H  H35  1  0.81161938  0.65051964  0.55443501  1  0.140075  0  0.123379  0.100286  0  1.00835  0
C  C36  1  0.22528911  0.85423185  0.92442881  1  0.945303  0  0.132198  0.089356  0  3.926827  0
C  C37  1  0.42972082  0.30068438  0.57551713  1  0.959337  0  0.130068  0.08717  0  3.927196  0
C  C38  1  0.77471267  0.14576871  0.07557397  1  0.945368  0  0.132149  0.089293  0  3.926939  0
C  C39  1  0.57027716  0.69931354  0.42448186  1  0.959376  0  0.130083  0.087208  0  3.927244  0
C  C40  1  0.40912289  0.88694756  0.84621243  1  0.296739  0  -0.000322  -0.096641  0  3.904469  0
C  C41  1  0.54060019  0.56270208  0.65372805  1  0.329061  0  -0.000551  -0.097574  0  3.905754  0
C  C42  1  0.59087531  0.11305242  0.15378797  1  0.296855  0  -0.00031  -0.096643  0  3.904445  0
C  C43  1  0.45939951  0.43729685  0.34627144  1  0.329017  0  -0.000577  -0.097604  0  3.905794  0
C  C44  1  0.29897457  0.95272900  0.80478168  1  0.39328  0  -0.006723  -0.030357  0  3.992982  0
C  C45  1  0.64782432  0.49399360  0.69516416  1  0.325933  0  -0.006514  -0.030351  0  3.99366  0
C  C46  1  0.70102335  0.04727139  0.19521964  1  0.393407  0  -0.006641  -0.030233  0  3.992641  0
C  C47  1  0.35217610  0.50600604  0.30483605  1  0.326022  0  -0.006518  -0.030339  0  3.993562  0
C  C48  1  0.23200178  0.44298949  0.93167661  1  0.962136  0  0.138364  0.097915  0  3.922953  0
C  C49  1  0.01118904  0.30024462  0.56829791  1  0.998071  0  0.137165  0.096643  0  3.922625  0
C  C50  1  0.76799913  0.55701179  0.06832409  1  0.961824  0  0.138388  0.097978  0  3.922866  0
C  C51  1  0.98881480  0.69975704  0.43170331  1  0.998062  0  0.137203  0.096665  0  3.922659  0
C  C52  1  0.31308471  0.34150866  0.81693090  1  0.39387  0  -0.00537  -0.024258  0  3.984022  0
C  C53  1  0.02455300  0.49624368  0.68297033  1  0.372267  0  -0.006078  -0.025924  0  3.984404  0
C  C54  1  0.68691892  0.65849392  0.18307010  1  0.394104  0  -0.005358  -0.024263  0  3.983972  0
C  C55  1  0.97544798  0.50375810  0.31702924  1  0.371946  0  -0.006064  -0.025852  0  3.984321  0
C  C56  1  0.41653484  0.50219732  0.85433593  1  0.270943  0  -0.00528  -0.105206  0  3.925005  0
C  C57  1  0.14781285  0.56216936  0.64553619  1  0.304489  0  -0.005277  -0.10498  0  3.923763  0
C  C58  1  0.58346701  0.49780375  0.14566571  1  0.270909  0  -0.005294  -0.105184  0  3.924976  0
C  C59  1  0.85218820  0.43783293  0.35446224  1  0.304663  0  -0.005322  -0.105123  0  3.923875  0
C  C60  1  0.43195711  0.73345619  0.98326754  1  0.608301  0  0.057225  0.010341  0  3.844088  0
C  C61  1  0.25004161  0.44844114  0.51663989  1  0.642821  0  0.057694  0.010718  0  3.840787  0
C  C62  1  0.56804380  0.26654509  0.01673316  1  0.608307  0  0.057228  0.010356  0  3.844211  0
C  C63  1  0.74995816  0.55155829  0.48335846  1  0.642969  0  0.057717  0.010763  0  3.840745  0
N  N64  1  0.18607823  0.93266297  0.85476317  1  -1.219892  0  -0.3606  -0.29352  0  3.517086  0
N  N65  1  0.57781738  0.33113726  0.64517757  1  -1.23327  0  -0.359835  -0.291711  0  3.513693  0
N  N66  1  0.81392018  0.06733906  0.14523865  1  -1.219891  0  -0.360674  -0.293661  0  3.517151  0
N  N67  1  0.42218375  0.66886310  0.35482335  1  -1.233365  0  -0.359864  -0.291733  0  3.513668  0
N  N68  1  0.36032889  0.82467351  0.92186659  1  -1.245363  0  -0.248242  0.014093  0  3.769183  0
N  N69  1  0.40268587  0.43825098  0.57805697  1  -1.235675  0  -0.247738  0.014643  0  3.771453  0
N  N70  1  0.63967031  0.17532676  0.07813361  1  -1.245366  0  -0.248183  0.014224  0  3.769104  0
N  N71  1  0.59731384  0.56174794  0.42194252  1  -1.235679  0  -0.247696  0.014684  0  3.771444  0
N  N72  1  0.19962577  0.30606935  0.86633016  1  -1.202656  0  -0.356609  -0.285599  0  3.521445  0
N  N73  1  0.93965957  0.33335612  0.63363838  1  -1.222291  0  -0.356008  -0.284712  0  3.522026  0
N  N74  1  0.80037707  0.69393202  0.13367127  1  -1.202389  0  -0.356611  -0.285624  0  3.521348  0
N  N75  1  0.06034134  0.66664516  0.36636232  1  -1.222331  0  -0.356008  -0.284729  0  3.522007  0
N  N76  1  0.36387506  0.56469905  0.92718735  1  -1.217117  0  -0.24743  0.012301  0  3.786008  0
N  N77  1  0.13740275  0.43655470  0.57272672  1  -1.244691  0  -0.246178  0.014045  0  3.781706  0
N  N78  1  0.63612607  0.43530130  0.07281357  1  -1.216994  0  -0.247443  0.012254  0  3.786102  0
N  N79  1  0.86259822  0.56344708  0.42727284  1  -1.244642  0  -0.246186  0.014033  0  3.781604  0
Cl  Cl80  1  0.79812177  0.21470486  0.84519738  1  -0.665631  0  -0.319798  -0.514875  0  1.226945  0
Cl  Cl81  1  0.86959800  0.95299246  0.65483959  1  -0.666017  0  -0.319689  -0.51446  0  1.226939  0
Cl  Cl82  1  0.20188413  0.78530088  0.15480349  1  -0.665625  0  -0.319795  -0.514872  0  1.226941  0
Cl  Cl83  1  0.13040320  0.04700840  0.34516019  1  -0.666016  0  -0.319699  -0.514481  0  1.226938  0
Cl  Cl84  1  0.82300170  0.82741228  0.91927458  1  -0.675021  0  -0.318243  -0.525142  0  1.210421  0
Cl  Cl85  1  0.40816406  0.90366089  0.58071510  1  -0.673627  0  -0.318145  -0.525145  0  1.211635  0
Cl  Cl86  1  0.17699721  0.17259139  0.08072773  1  -0.674943  0  -0.31824  -0.525136  0  1.2104  0
Cl  Cl87  1  0.59183613  0.09633968  0.41928489  1  -0.673624  0  -0.318148  -0.525156  0  1.211651  0
