# generated using pymatgen
data_LaH15(C3O4)3
_symmetry_space_group_name_H-M   'P 1'
_cell_length_a   7.28270987
_cell_length_b   10.12817483
_cell_length_c   10.65732010
_cell_angle_alpha   114.99145434
_cell_angle_beta   105.59647667
_cell_angle_gamma   98.85995105
_symmetry_Int_Tables_number   1
_chemical_formula_structural   LaH15(C3O4)3
_chemical_formula_sum   'La2 H30 C18 O24'
_cell_volume   653.21657960
_cell_formula_units_Z   2
loop_
 _symmetry_equiv_pos_site_id
 _symmetry_equiv_pos_as_xyz
  1  'x, y, z'
loop_
 _atom_site_type_symbol
 _atom_site_label
 _atom_site_symmetry_multiplicity
 _atom_site_fract_x
 _atom_site_fract_y
 _atom_site_fract_z
 _atom_site_occupancy
 _atom_site_hle17_bader_spin_density
 _atom_site_hle17_ddec_charge
 _atom_site_hle17_ddec_spin_density
 _atom_site_hle17_ddec_sum_bond_order
 _atom_site_hle17_magmom
 _atom_site_hse06_10hf_bader_spin_density
 _atom_site_hse06_10hf_ddec_charge
 _atom_site_hse06_10hf_ddec_spin_density
 _atom_site_hse06_10hf_ddec_sum_bond_order
 _atom_site_hse06_10hf_magmom
 _atom_site_hse06_bader_spin_density
 _atom_site_hse06_ddec_charge
 _atom_site_hse06_ddec_spin_density
 _atom_site_hse06_ddec_sum_bond_order
 _atom_site_hse06_magmom
 _atom_site_pbe_bader_spin_density
 _atom_site_pbe_cm5_charge
 _atom_site_pbe_ddec_charge
 _atom_site_pbe_ddec_spin_density
 _atom_site_pbe_ddec_sum_bond_order
 _atom_site_pbe_magmom
La  La0  1  0.85861697  0.20784894  0.66385152  1  0  2.215096  0  1.677472  0  0  2.119063  0  2.14089  0  0  2.21235  0  2.041722  0  0  1.380466  2.0473  0  2.213369  0
La  La1  1  0.69475863  0.54404293  0.33615581  1  0  2.214766  0  1.677894  0  0  2.118061  0  2.142433  0  0  2.211626  0  2.042693  0  0  1.379916  2.046043  0  2.215044  0
H  H2  1  0.86884778  0.86157802  0.74454423  1  0  0.109532  0  0.973896  0  0  0.113237  0  1.04784  0  0  0.117807  0  1.043141  0  0  0.115348  0.109556  0  1.051858  0
H  H3  1  0.62388736  0.11706317  0.25541649  1  0  0.110051  0  0.973291  0  0  0.113895  0  1.047064  0  0  0.118579  0  1.042082  0  0  0.11576  0.110317  0  1.050818  0
H  H4  1  0.07382323  0.62908104  0.98471496  1  0  0.10357  0  0.956936  0  0  0.109953  0  1.026272  0  0  0.114457  0  1.02144  0  0  0.113427  0.106839  0  1.02935  0
H  H5  1  0.58866334  0.64446573  0.01517270  1  0  0.102876  0  0.957484  0  0  0.10923  0  1.02711  0  0  0.113628  0  1.022397  0  0  0.112899  0.106064  0  1.030284  0
H  H6  1  0.10776727  0.10287573  0.22428839  1  0  0.096668  0  0.968631  0  0  0.103217  0  1.038559  0  0  0.107904  0  1.03361  0  0  0.107675  0.099564  0  1.042759  0
H  H7  1  0.38352365  0.87888039  0.77564555  1  0  0.097793  0  0.966763  0  0  0.104141  0  1.036856  0  0  0.108687  0  1.032078  0  0  0.107781  0.100462  0  1.041194  0
H  H8  1  0.21895720  0.32314953  0.58686514  1  0  0.424344  0  0.881851  0  0  0.390167  0  0.951077  0  0  0.402366  0  0.933177  0  0  0.29953  0.38147  0  0.963855  0
H  H9  1  0.13192206  0.73635148  0.41322716  1  0  0.423843  0  0.882681  0  0  0.389385  0  0.951967  0  0  0.401485  0  0.934292  0  0  0.299122  0.380711  0  0.964668  0
H  H10  1  0.12696927  0.14607281  0.46496036  1  0  0.433733  0  0.860871  0  0  0.402732  0  0.924393  0  0  0.41304  0  0.909472  0  0  0.304049  0.395336  0  0.935136  0
H  H11  1  0.16205864  0.68128501  0.53519263  1  0  0.435032  0  0.859535  0  0  0.403637  0  0.923729  0  0  0.413981  0  0.908745  0  0  0.304247  0.396167  0  0.934586  0
H  H12  1  0.04092091  0.90930292  0.57519100  1  0  0.438618  0  0.855036  0  0  0.410835  0  0.914285  0  0  0.421509  0  0.898564  0  0  0.304083  0.40301  0  0.925835  0
H  H13  1  0.96582050  0.33415118  0.42493668  1  0  0.438169  0  0.855826  0  0  0.410386  0  0.91501  0  0  0.42107  0  0.899274  0  0  0.303926  0.402576  0  0.926502  0
H  H14  1  0.17892190  0.04564938  0.73493112  1  0  0.418656  0  0.891352  0  0  0.388375  0  0.955151  0  0  0.398712  0  0.940193  0  0  0.296888  0.38098  0  0.965864  0
H  H15  1  0.94385209  0.31060803  0.26515724  1  0  0.419145  0  0.890738  0  0  0.389214  0  0.954094  0  0  0.399492  0  0.939203  0  0  0.297441  0.381862  0  0.96474  0
H  H16  1  0.30975612  0.28372968  0.88092087  1  0  0.42547  0  0.880932  0  0  0.391898  0  0.947886  0  0  0.404387  0  0.93  0  0  0.299432  0.38305  0  0.960543  0
H  H17  1  0.92852718  0.40257376  0.11908381  1  0  0.424928  0  0.88122  0  0  0.391522  0  0.948117  0  0  0.404002  0  0.930242  0  0  0.299184  0.38268  0  0.960787  0
H  H18  1  0.29956871  0.41411335  0.83352761  1  0  0.417683  0  0.88806  0  0  0.385821  0  0.955263  0  0  0.396426  0  0.939914  0  0  0.301989  0.378378  0  0.965982  0
H  H19  1  0.96598165  0.58034741  0.16644561  1  0  0.417472  0  0.888618  0  0  0.385557  0  0.955713  0  0  0.396146  0  0.940398  0  0  0.301873  0.378084  0  0.966461  0
H  H20  1  0.45061352  0.15078060  0.43704137  1  0  0.416593  0  0.889075  0  0  0.38792  0  0.950438  0  0  0.39796  0  0.93584  0  0  0.301107  0.380734  0  0.960909  0
H  H21  1  0.51404859  0.71389126  0.56304241  1  0  0.41656  0  0.889201  0  0  0.387792  0  0.950642  0  0  0.397814  0  0.936075  0  0  0.301181  0.380616  0  0.961117  0
H  H22  1  0.52777419  0.31696550  0.46378106  1  0  0.440566  0  0.854595  0  0  0.410544  0  0.917528  0  0  0.421369  0  0.901632  0  0  0.304424  0.402669  0  0.929094  0
H  H23  1  0.56423674  0.85331360  0.53627622  1  0  0.441017  0  0.854031  0  0  0.411157  0  0.916682  0  0  0.421954  0  0.90082  0  0  0.304573  0.403257  0  0.928278  0
H  H24  1  0.39354902  0.01514881  0.54330631  1  0  0.426328  0  0.879223  0  0  0.392403  0  0.947276  0  0  0.404716  0  0.929316  0  0  0.299847  0.383521  0  0.960258  0
H  H25  1  0.35019938  0.47191163  0.45663486  1  0  0.424827  0  0.881305  0  0  0.390785  0  0.949662  0  0  0.403126  0  0.931652  0  0  0.29881  0.381889  0  0.962669  0
H  H26  1  0.49331841  0.07254863  0.71921693  1  0  0.437134  0  0.847316  0  0  0.404455  0  0.919478  0  0  0.414836  0  0.904287  0  0  0.307958  0.396927  0  0.93051  0
H  H27  1  0.27392094  0.35330063  0.28078596  1  0  0.435427  0  0.849699  0  0  0.402854  0  0.92187  0  0  0.413296  0  0.906627  0  0  0.307282  0.395384  0  0.932747  0
H  H28  1  0.60578460  0.41965137  0.79763599  1  0  0.431263  0  0.871004  0  0  0.400106  0  0.93486  0  0  0.410657  0  0.919608  0  0  0.298055  0.392447  0  0.945947  0
H  H29  1  0.30798002  0.62184622  0.20225844  1  0  0.433957  0  0.867576  0  0  0.40251  0  0.931899  0  0  0.413048  0  0.916649  0  0  0.299014  0.394911  0  0.942886  0
H  H30  1  0.74582646  0.41500681  0.94082055  1  0  0.433109  0  0.866643  0  0  0.405106  0  0.925784  0  0  0.416483  0  0.9091  0  0  0.296324  0.396721  0  0.938054  0
H  H31  1  0.30496270  0.47415900  0.05904630  1  0  0.433796  0  0.865542  0  0  0.405364  0  0.925327  0  0  0.416776  0  0.908598  0  0  0.296609  0.397104  0  0.937393  0
C  C32  1  0.98862711  0.99890745  0.98497359  1  0  -0.092672  0  3.750612  0  0  -0.065275  0  3.990658  0  0  -0.076732  0  4.014582  0  0  -0.018792  -0.058057  0  3.974626  0
C  C33  1  0.50348143  0.01408921  0.01499520  1  0  -0.088981  0  3.749092  0  0  -0.062471  0  3.989747  0  0  -0.073895  0  4.013631  0  0  -0.018242  -0.055238  0  3.973773  0
C  C34  1  0.93536371  0.86354890  0.85012919  1  0  -0.032075  0  3.640826  0  0  -0.071474  0  3.889247  0  0  -0.066061  0  3.905556  0  0  -0.061068  -0.074184  0  3.878494  0
C  C35  1  0.58486240  0.01348366  0.14983429  1  0  -0.03419  0  3.642106  0  0  -0.073444  0  3.891316  0  0  -0.067982  0  3.907504  0  0  -0.061297  -0.076258  0  3.88041  0
C  C36  1  0.96813644  0.73083729  0.85063275  1  0  -0.088544  0  3.725967  0  0  -0.062806  0  3.964518  0  0  -0.074156  0  3.987137  0  0  -0.016552  -0.055659  0  3.949242  0
C  C37  1  0.61707284  0.88025893  0.14930192  1  0  -0.087115  0  3.725532  0  0  -0.061894  0  3.964946  0  0  -0.0732  0  3.987519  0  0  -0.016591  -0.054922  0  3.949877  0
C  C38  1  0.04983236  0.73315718  0.98651441  1  0  -0.036201  0  3.675176  0  0  -0.075769  0  3.927344  0  0  -0.070189  0  3.944268  0  0  -0.065073  -0.078689  0  3.914813  0
C  C39  1  0.56286417  0.74672912  0.01340113  1  0  -0.034506  0  3.674025  0  0  -0.074211  0  3.926289  0  0  -0.068584  0  3.943286  0  0  -0.064004  -0.07695  0  3.913826  0
C  C40  1  0.09765540  0.86644256  0.12144156  1  0  -0.098006  0  3.777386  0  0  -0.072638  0  4.024187  0  0  -0.084544  0  4.048927  0  0  -0.022915  -0.064966  0  4.00781  0
C  C41  1  0.47595315  0.74515255  0.87848519  1  0  -0.098974  0  3.78012  0  0  -0.073169  0  4.026381  0  0  -0.085028  0  4.050962  0  0  -0.023003  -0.065606  0  4.009949  0
C  C42  1  0.06886661  0.99885340  0.11949337  1  0  -0.035743  0  3.689662  0  0  -0.076839  0  3.941428  0  0  -0.072059  0  3.959544  0  0  -0.069305  -0.080359  0  3.930165  0
C  C43  1  0.44914616  0.87956785  0.88046220  1  0  -0.038933  0  3.691087  0  0  -0.079849  0  3.943617  0  0  -0.075021  0  3.961817  0  0  -0.069942  -0.083546  0  3.932565  0
C  C44  1  0.91192009  0.58406162  0.70665801  1  0  0.707024  0  3.8514  0  0  0.660596  0  4.14337  0  0  0.697685  0  4.134831  0  0  0.233764  0.635057  0  4.148331  0
C  C45  1  0.70506888  0.87741642  0.29326293  1  0  0.707771  0  3.850232  0  0  0.661269  0  4.14242  0  0  0.698311  0  4.133907  0  0  0.234054  0.63568  0  4.147496  0
C  C46  1  0.17477273  0.86965606  0.26755560  1  0  0.697067  0  3.824485  0  0  0.630815  0  4.129294  0  0  0.665574  0  4.121031  0  0  0.233811  0.606989  0  4.134671  0
C  C47  1  0.40711352  0.60225497  0.73239431  1  0  0.699488  0  3.821699  0  0  0.633359  0  4.126309  0  0  0.668233  0  4.117902  0  0  0.234689  0.609577  0  4.131581  0
C  C48  1  0.96084357  0.14404827  0.98813003  1  0  0.697921  0  3.84764  0  0  0.641722  0  4.146842  0  0  0.677307  0  4.138823  0  0  0.23128  0.617675  0  4.151121  0
C  C49  1  0.47279034  0.15617395  0.01191887  1  0  0.696371  0  3.849221  0  0  0.640675  0  4.148122  0  0  0.676303  0  4.140099  0  0  0.230584  0.61657  0  4.152336  0
O  O50  1  0.08994810  0.23845065  0.51795695  1  0  -0.880861  0  1.893158  0  0  -0.829542  0  2.083625  0  0  -0.854347  0  2.050497  0  0  -0.605217  -0.811362  0  2.107063  0
O  O51  1  0.07193520  0.72064301  0.48218207  1  0  -0.881714  0  1.893317  0  0  -0.829722  0  2.085163  0  0  -0.854623  0  2.051949  0  0  -0.605004  -0.811405  0  2.108725  0
O  O52  1  0.23522871  0.99804014  0.38725452  1  0  -0.654734  0  2.06071  0  0  -0.578073  0  2.27766  0  0  -0.604772  0  2.26677  0  0  -0.296769  -0.559369  0  2.285212  0
O  O53  1  0.34789527  0.61092647  0.61268422  1  0  -0.656097  0  2.059858  0  0  -0.579135  0  2.276694  0  0  -0.605814  0  2.265647  0  0  -0.297418  -0.560579  0  2.284291  0
O  O54  1  0.06148252  0.01718396  0.64538627  1  0  -0.904884  0  1.880799  0  0  -0.86548  0  2.078226  0  0  -0.889125  0  2.045907  0  0  -0.63617  -0.847463  0  2.101388  0
O  O55  1  0.91618797  0.37183341  0.35472598  1  0  -0.904349  0  1.881116  0  0  -0.864807  0  2.077908  0  0  -0.888602  0  2.045787  0  0  -0.635909  -0.846988  0  2.100705  0
O  O56  1  0.17630521  0.74411796  0.26885465  1  0  -0.659926  0  2.082326  0  0  -0.581278  0  2.299523  0  0  -0.607828  0  2.288094  0  0  -0.298141  -0.562974  0  2.307425  0
O  O57  1  0.40754822  0.47551197  0.73123470  1  0  -0.660577  0  2.081545  0  0  -0.582426  0  2.298801  0  0  -0.609285  0  2.287549  0  0  -0.298278  -0.563907  0  2.306636  0
O  O58  1  0.22940786  0.35448171  0.87008205  1  0  -0.869537  0  1.885186  0  0  -0.813213  0  2.07151  0  0  -0.839226  0  2.038563  0  0  -0.596988  -0.794459  0  2.094421  0
O  O59  1  0.85913954  0.48419355  0.12989242  1  0  -0.868851  0  1.885649  0  0  -0.812523  0  2.07084  0  0  -0.838565  0  2.037942  0  0  -0.596406  -0.793663  0  2.094007  0
O  O60  1  0.97724832  0.47676689  0.71270731  1  0  -0.695068  0  2.015308  0  0  -0.649118  0  2.270773  0  0  -0.682219  0  2.262971  0  0  -0.379083  -0.624767  0  2.275094  0
O  O61  1  0.76439923  0.76407512  0.28713275  1  0  -0.696748  0  2.013602  0  0  -0.650494  0  2.268896  0  0  -0.683512  0  2.26088  0  0  -0.379746  -0.626166  0  2.273551  0
O  O62  1  0.80038232  0.57613492  0.58766538  1  0  -0.69844  0  2.021491  0  0  -0.647648  0  2.275358  0  0  -0.681733  0  2.267317  0  0  -0.394879  -0.622485  0  2.279943  0
O  O63  1  0.71272632  0.98844531  0.41231330  1  0  -0.69836  0  2.02309  0  0  -0.647295  0  2.276608  0  0  -0.681399  0  2.268606  0  0  -0.394369  -0.622094  0  2.281102  0
O  O64  1  0.56802150  0.24339960  0.49516562  1  0  -0.886065  0  1.872101  0  0  -0.843709  0  2.066886  0  0  -0.867269  0  2.03457  0  0  -0.632481  -0.826175  0  2.090034  0
O  O65  1  0.57334325  0.74843589  0.50497394  1  0  -0.886049  0  1.871423  0  0  -0.843666  0  2.066156  0  0  -0.867247  0  2.033903  0  0  -0.63258  -0.82604  0  2.089158  0
O  O66  1  0.51695792  0.03103075  0.62492340  1  0  -0.878483  0  1.906783  0  0  -0.823412  0  2.103586  0  0  -0.84781  0  2.069424  0  0  -0.604288  -0.805392  0  2.128105  0
O  O67  1  0.39198394  0.40616190  0.37508434  1  0  -0.874946  0  1.909267  0  0  -0.819517  0  2.105058  0  0  -0.844069  0  2.070775  0  0  -0.602509  -0.80154  0  2.129399  0
O  O68  1  0.88220894  0.14251076  0.86643170  1  0  -0.678871  0  2.023036  0  0  -0.628576  0  2.281526  0  0  -0.661151  0  2.273258  0  0  -0.377879  -0.604975  0  2.286223  0
O  O69  1  0.51575792  0.27622355  0.13365720  1  0  -0.679169  0  2.02447  0  0  -0.629082  0  2.282774  0  0  -0.661711  0  2.274517  0  0  -0.378201  -0.605288  0  2.287428  0
O  O70  1  0.70450764  0.37307024  0.83116948  1  0  -0.910866  0  1.874008  0  0  -0.86934  0  2.072905  0  0  -0.89454  0  2.040202  0  0  -0.648895  -0.850939  0  2.096347  0
O  O71  1  0.37317083  0.54172676  0.16876280  1  0  -0.914316  0  1.870517  0  0  -0.872291  0  2.070452  0  0  -0.89758  0  2.037636  0  0  -0.650261  -0.853868  0  2.093512  0
O  O72  1  0.01914802  0.26442366  0.11643793  1  0  -0.669294  0  2.046134  0  0  -0.595057  0  2.262767  0  0  -0.621829  0  2.250553  0  0  -0.305126  -0.576222  0  2.270743  0
O  O73  1  0.40312019  0.14844354  0.88366353  1  0  -0.66952  0  2.04661  0  0  -0.594518  0  2.262149  0  0  -0.621398  0  2.249987  0  0  -0.305021  -0.575624  0  2.270217  0
