# generated using pymatgen
data_AgH9C11N4O5
_symmetry_space_group_name_H-M   'P 1'
_cell_length_a   6.45488021
_cell_length_b   7.40507550
_cell_length_c   12.88587147
_cell_angle_alpha   78.77794600
_cell_angle_beta   86.65259468
_cell_angle_gamma   79.26420769
_symmetry_Int_Tables_number   1
_chemical_formula_structural   AgH9C11N4O5
_chemical_formula_sum   'Ag2 H18 C22 N8 O10'
_cell_volume   593.42241198
_cell_formula_units_Z   2
loop_
 _symmetry_equiv_pos_site_id
 _symmetry_equiv_pos_as_xyz
  1  'x, y, z'
loop_
 _atom_site_type_symbol
 _atom_site_label
 _atom_site_symmetry_multiplicity
 _atom_site_fract_x
 _atom_site_fract_y
 _atom_site_fract_z
 _atom_site_occupancy
 _atom_site_hle17_bader_spin_density
 _atom_site_hle17_ddec_charge
 _atom_site_hle17_ddec_spin_density
 _atom_site_hle17_ddec_sum_bond_order
 _atom_site_hle17_magmom
 _atom_site_hse06_10hf_bader_spin_density
 _atom_site_hse06_10hf_ddec_charge
 _atom_site_hse06_10hf_ddec_spin_density
 _atom_site_hse06_10hf_ddec_sum_bond_order
 _atom_site_hse06_10hf_magmom
 _atom_site_hse06_bader_spin_density
 _atom_site_hse06_ddec_charge
 _atom_site_hse06_ddec_spin_density
 _atom_site_hse06_ddec_sum_bond_order
 _atom_site_hse06_magmom
 _atom_site_pbe_bader_spin_density
 _atom_site_pbe_cm5_charge
 _atom_site_pbe_ddec_charge
 _atom_site_pbe_ddec_spin_density
 _atom_site_pbe_ddec_sum_bond_order
 _atom_site_pbe_magmom
Ag  Ag0  1  0.47386662  0.16960307  0.55544844  1  0  0.54483  0  1.417825  0  0  0.404696  0  1.872586  0  0  0.437442  0  1.821881  0  0  0.449933  0.381084  0  1.908523  0
Ag  Ag1  1  0.52614655  0.83039459  0.44454896  1  0  0.544882  0  1.417747  0  0  0.404687  0  1.872621  0  0  0.437428  0  1.821916  0  0  0.449946  0.381079  0  1.90856  0
H  H2  1  0.72831651  0.59855224  0.04365824  1  0  0.36043  0  0.944974  0  0  0.329536  0  1.026315  0  0  0.342852  0  1.01397  0  0  0.297154  0.320205  0  1.034893  0
H  H3  1  0.27169085  0.40145943  0.95634320  1  0  0.360389  0  0.945242  0  0  0.329518  0  1.026556  0  0  0.342835  0  1.014212  0  0  0.297202  0.320187  0  1.03513  0
H  H4  1  0.08785060  0.31206727  0.45292478  1  0  0.344353  0  0.921211  0  0  0.32458  0  0.986496  0  0  0.3326  0  0.980091  0  0  0.298555  0.318934  0  0.990927  0
H  H5  1  0.91216378  0.68792481  0.54707631  1  0  0.344267  0  0.921378  0  0  0.324482  0  0.98668  0  0  0.332502  0  0.980277  0  0  0.298512  0.318837  0  0.991107  0
H  H6  1  0.80965465  0.34441754  0.46146046  1  0  0.341654  0  0.916389  0  0  0.320938  0  0.986573  0  0  0.329774  0  0.978244  0  0  0.293173  0.314692  0  0.992382  0
H  H7  1  0.19035662  0.65558151  0.53853451  1  0  0.341599  0  0.916413  0  0  0.320882  0  0.986605  0  0  0.329718  0  0.978273  0  0  0.293119  0.314635  0  0.992411  0
H  H8  1  0.02993544  0.58327632  0.30217916  1  0  0.132295  0  0.919571  0  0  0.143984  0  0.972202  0  0  0.14812  0  0.969858  0  0  0.121754  0.140973  0  0.974064  0
H  H9  1  0.97007292  0.41672275  0.69782368  1  0  0.132226  0  0.919566  0  0  0.143957  0  0.972164  0  0  0.148092  0  0.969819  0  0  0.121722  0.140942  0  0.974025  0
H  H10  1  0.86724171  0.79864424  0.14173503  1  0  0.114844  0  0.944282  0  0  0.121107  0  1.008011  0  0  0.125188  0  1.004411  0  0  0.11274  0.118043  0  1.010879  0
H  H11  1  0.13274870  0.20135202  0.85827264  1  0  0.114856  0  0.944203  0  0  0.1211  0  1.007961  0  0  0.125174  0  1.004364  0  0  0.112722  0.118034  0  1.010828  0
H  H12  1  0.10902654  0.88529057  0.98451335  1  0  0.116057  0  0.959521  0  0  0.12427  0  1.023313  0  0  0.127413  0  1.021645  0  0  0.116443  0.122004  0  1.024645  0
H  H13  1  0.89095879  0.11470707  0.01548892  1  0  0.115998  0  0.959559  0  0  0.12421  0  1.023344  0  0  0.127351  0  1.021682  0  0  0.116455  0.121943  0  1.024676  0
H  H14  1  0.34150194  0.86373789  0.72623545  1  0  0.077373  0  0.95139  0  0  0.086161  0  1.017276  0  0  0.088112  0  1.013767  0  0  0.115665  0.084646  0  1.01997  0
H  H15  1  0.65849335  0.13626396  0.27376366  1  0  0.077378  0  0.951365  0  0  0.086142  0  1.01727  0  0  0.088093  0  1.013763  0  0  0.115671  0.084627  0  1.019965  0
H  H16  1  0.02268237  0.75289852  0.82112251  1  0  0.129537  0  0.955245  0  0  0.138154  0  1.016061  0  0  0.141902  0  1.015662  0  0  0.108385  0.135562  0  1.016464  0
H  H17  1  0.97732773  0.24709915  0.17887655  1  0  0.129571  0  0.955244  0  0  0.138188  0  1.016049  0  0  0.141937  0  1.015647  0  0  0.108397  0.135599  0  1.016451  0
H  H18  1  0.66804766  0.91693020  0.75069725  1  0  0.077649  0  0.964589  0  0  0.086112  0  1.031615  0  0  0.088905  0  1.026763  0  0  0.113323  0.083984  0  1.035224  0
H  H19  1  0.33195522  0.08306465  0.24930084  1  0  0.077627  0  0.964663  0  0  0.086095  0  1.031659  0  0  0.088876  0  1.026832  0  0  0.113315  0.083968  0  1.035268  0
C  C20  1  0.44594757  0.45258829  0.33936773  1  0  0.63546  0  3.953363  0  0  0.579046  0  4.25946  0  0  0.613316  0  4.250236  0  0  0.208152  0.555686  0  4.264967  0
C  C21  1  0.55404952  0.54741215  0.66062992  1  0  0.635594  0  3.95326  0  0  0.579131  0  4.259392  0  0  0.613399  0  4.25017  0  0  0.208185  0.555766  0  4.264906  0
C  C22  1  0.34360216  0.56147103  0.23729452  1  0  0.023877  0  3.567231  0  0  0.017101  0  3.823702  0  0  0.020456  0  3.834795  0  0  0.11551  0.014557  0  3.816804  0
C  C23  1  0.65639120  0.43854062  0.76270587  1  0  0.02376  0  3.567325  0  0  0.017106  0  3.823639  0  0  0.020463  0  3.834735  0  0  0.115519  0.014562  0  3.816741  0
C  C24  1  0.12691072  0.62687076  0.23320077  1  0  -0.061881  0  3.668549  0  0  -0.088775  0  3.927452  0  0  -0.089385  0  3.941294  0  0  -0.061489  -0.088788  0  3.918832  0
C  C25  1  0.87308847  0.37313530  0.76680160  1  0  -0.061761  0  3.668273  0  0  -0.088718  0  3.927155  0  0  -0.089329  0  3.940996  0  0  -0.06143  -0.088727  0  3.918527  0
C  C26  1  0.03585846  0.74535134  0.14376526  1  0  -0.018465  0  3.702532  0  0  -0.04462  0  3.970421  0  0  -0.040363  0  3.982862  0  0  -0.072486  -0.047333  0  3.962525  0
C  C27  1  0.96413127  0.25464771  0.85623747  1  0  -0.018481  0  3.702462  0  0  -0.044637  0  3.970383  0  0  -0.04037  0  3.982811  0  0  -0.072484  -0.047349  0  3.96248  0
C  C28  1  0.16698127  0.79481226  0.05769770  1  0  -0.070317  0  3.71978  0  0  -0.097752  0  3.97823  0  0  -0.098325  0  3.993541  0  0  -0.067903  -0.097676  0  3.968262  0
C  C29  1  0.83300404  0.20518538  0.94230380  1  0  -0.070285  0  3.719793  0  0  -0.097645  0  3.978287  0  0  -0.098221  0  3.99359  0  0  -0.067892  -0.09757  0  3.968325  0
C  C30  1  0.38165307  0.72511306  0.06028188  1  0  -0.0331  0  3.664197  0  0  -0.03868  0  3.920042  0  0  -0.038561  0  3.934625  0  0  0.097322  -0.038727  0  3.910486  0
C  C31  1  0.61833651  0.27487899  0.93972088  1  0  -0.032996  0  3.663809  0  0  -0.038786  0  3.919869  0  0  -0.03865  0  3.934452  0  0  0.097326  -0.038835  0  3.910317  0
C  C32  1  0.51972146  0.78233283  0.96657440  1  0  0.625767  0  3.86391  0  0  0.572324  0  4.176459  0  0  0.606253  0  4.165669  0  0  0.223799  0.549292  0  4.18317  0
C  C33  1  0.48026950  0.21766761  0.03342657  1  0  0.625667  0  3.86374  0  0  0.572356  0  4.176185  0  0  0.606259  0  4.165429  0  0  0.223742  0.549328  0  4.1829  0
C  C34  1  0.97080640  0.14383390  0.57820212  1  0  0.624038  0  3.818673  0  0  0.576271  0  4.085165  0  0  0.602512  0  4.096293  0  0  0.340326  0.558516  0  4.077294  0
C  C35  1  0.02919927  0.85616235  0.42179493  1  0  0.623858  0  3.819022  0  0  0.576179  0  4.085377  0  0  0.60242  0  4.0965  0  0  0.340265  0.558422  0  4.077508  0
C  C36  1  0.18293805  0.92620805  0.69962975  1  0  0.210652  0  3.718141  0  0  0.172659  0  3.974085  0  0  0.188583  0  3.987861  0  0  0.062705  0.162267  0  3.964531  0
C  C37  1  0.81706350  0.07379381  0.30037146  1  0  0.210717  0  3.718063  0  0  0.172735  0  3.974008  0  0  0.188664  0  3.987779  0  0  0.062741  0.162341  0  3.964458  0
C  C38  1  0.00802062  0.86442100  0.75210930  1  0  -0.217492  0  3.73317  0  0  -0.2323  0  3.995698  0  0  -0.248069  0  4.017742  0  0  -0.108625  -0.2221  0  3.980746  0
C  C39  1  0.99198225  0.13558227  0.24789403  1  0  -0.217553  0  3.733149  0  0  -0.232349  0  3.995666  0  0  -0.248113  0  4.017701  0  0  -0.108617  -0.222151  0  3.98072  0
C  C40  1  0.81292197  0.95230464  0.71142337  1  0  0.207837  0  3.714439  0  0  0.167666  0  3.970427  0  0  0.183243  0  3.985035  0  0  0.056765  0.157581  0  3.960277  0
C  C41  1  0.18708418  0.04769722  0.28857535  1  0  0.207903  0  3.714377  0  0  0.167746  0  3.970378  0  0  0.183314  0  3.984974  0  0  0.056779  0.15766  0  3.960234  0
N  N42  1  0.46664783  0.60361630  0.14879786  1  0  0.243552  0  3.632336  0  0  0.287066  0  3.890495  0  0  0.288709  0  3.912098  0  0  -0.094879  0.28533  0  3.876034  0
N  N43  1  0.53334690  0.39638835  0.85120095  1  0  0.243507  0  3.632273  0  0  0.287064  0  3.890435  0  0  0.288702  0  3.91204  0  0  -0.094863  0.28533  0  3.875974  0
N  N44  1  0.79188365  0.08724844  0.62438141  1  0  -0.470832  0  3.231903  0  0  -0.383234  0  3.518075  0  0  -0.411595  0  3.531402  0  0  -0.356362  -0.363764  0  3.508664  0
N  N45  1  0.20811692  0.91274220  0.37561490  1  0  -0.470766  0  3.23204  0  0  -0.383228  0  3.518218  0  0  -0.411561  0  3.531511  0  0  -0.356315  -0.363758  0  3.508813  0
N  N46  1  0.16751323  0.06653140  0.61565416  1  0  -0.473158  0  3.189495  0  0  -0.390516  0  3.473846  0  0  -0.416799  0  3.483839  0  0  -0.350796  -0.372368  0  3.466803  0
N  N47  1  0.83248933  0.93346484  0.38434223  1  0  -0.473197  0  3.189615  0  0  -0.390543  0  3.473889  0  0  -0.416839  0  3.483891  0  0  -0.350837  -0.372389  0  3.466844  0
N  N48  1  0.95355387  0.28238392  0.49384183  1  0  -0.688045  0  3.093359  0  0  -0.648518  0  3.329873  0  0  -0.672138  0  3.326918  0  0  -0.570765  -0.631969  0  3.331506  0
N  N49  1  0.04645084  0.71760953  0.50615634  1  0  -0.687861  0  3.093436  0  0  -0.648361  0  3.329936  0  0  -0.67198  0  3.32698  0  0  -0.570684  -0.631807  0  3.331565  0
O  O50  1  0.35015735  0.32283613  0.38694523  1  0  -0.636053  0  2.090358  0  0  -0.564614  0  2.355402  0  0  -0.594844  0  2.344912  0  0  -0.319417  -0.543134  0  2.361782  0
O  O51  1  0.64984717  0.67716572  0.61305044  1  0  -0.636085  0  2.090161  0  0  -0.564635  0  2.355231  0  0  -0.594865  0  2.34474  0  0  -0.319426  -0.543153  0  2.361617  0
O  O52  1  0.60373540  0.50233855  0.37017658  1  0  -0.603946  0  1.988215  0  0  -0.554985  0  2.240943  0  0  -0.578423  0  2.227441  0  0  -0.312918  -0.538329  0  2.24963  0
O  O53  1  0.39627783  0.49765070  0.62981789  1  0  -0.604  0  1.988224  0  0  -0.554989  0  2.240875  0  0  -0.578424  0  2.227378  0  0  -0.312952  -0.53835  0  2.249602  0
O  O54  1  0.66711204  0.52163108  0.14767671  1  0  -0.468047  0  1.798038  0  0  -0.428167  0  2.014283  0  0  -0.453318  0  2.017084  0  0  -0.208277  -0.410338  0  2.012099  0
O  O55  1  0.33288461  0.47837218  0.85232607  1  0  -0.467968  0  1.79812  0  0  -0.428147  0  2.014397  0  0  -0.453299  0  2.017201  0  0  -0.208297  -0.410319  0  2.012214  0
O  O56  1  0.71597332  0.68836097  0.96745826  1  0  -0.532927  0  2.064451  0  0  -0.482691  0  2.283767  0  0  -0.505842  0  2.272705  0  0  -0.325764  -0.466634  0  2.291024  0
O  O57  1  0.28402436  0.31166048  0.03254473  1  0  -0.53288  0  2.064493  0  0  -0.482697  0  2.283773  0  0  -0.505839  0  2.272716  0  0  -0.325818  -0.466642  0  2.291033  0
O  O58  1  0.44931292  0.91041697  0.89443891  1  0  -0.535969  0  1.941685  0  0  -0.496842  0  2.165097  0  0  -0.517739  0  2.157543  0  0  -0.282029  -0.482212  0  2.169749  0
O  O59  1  0.55067286  0.08958627  0.10556348  1  0  -0.535937  0  1.941611  0  0  -0.49682  0  2.164952  0  0  -0.517718  0  2.157437  0  0  -0.281997  -0.482193  0  2.169605  0
