# generated using pymatgen
data_AgH8C12S2I2NO4
_symmetry_space_group_name_H-M   'P 1'
_cell_length_a   8.99361482
_cell_length_b   9.13184513
_cell_length_c   10.82883972
_cell_angle_alpha   92.38225988
_cell_angle_beta   111.56438823
_cell_angle_gamma   110.88603365
_symmetry_Int_Tables_number   1
_chemical_formula_structural   AgH8C12S2I2NO4
_chemical_formula_sum   'Ag2 H16 C24 S4 I4 N2 O8'
_cell_volume   757.35647350
_cell_formula_units_Z   2
loop_
 _symmetry_equiv_pos_site_id
 _symmetry_equiv_pos_as_xyz
  1  'x, y, z'
loop_
 _atom_site_type_symbol
 _atom_site_label
 _atom_site_symmetry_multiplicity
 _atom_site_fract_x
 _atom_site_fract_y
 _atom_site_fract_z
 _atom_site_occupancy
 _atom_site_hle17_bader_spin_density
 _atom_site_hle17_ddec_charge
 _atom_site_hle17_ddec_spin_density
 _atom_site_hle17_ddec_sum_bond_order
 _atom_site_hle17_magmom
 _atom_site_hse06_10hf_bader_spin_density
 _atom_site_hse06_10hf_ddec_charge
 _atom_site_hse06_10hf_ddec_spin_density
 _atom_site_hse06_10hf_ddec_sum_bond_order
 _atom_site_hse06_10hf_magmom
 _atom_site_hse06_bader_spin_density
 _atom_site_hse06_ddec_charge
 _atom_site_hse06_ddec_spin_density
 _atom_site_hse06_ddec_sum_bond_order
 _atom_site_hse06_magmom
 _atom_site_pbe_bader_spin_density
 _atom_site_pbe_cm5_charge
 _atom_site_pbe_ddec_charge
 _atom_site_pbe_ddec_spin_density
 _atom_site_pbe_ddec_sum_bond_order
 _atom_site_pbe_magmom
Ag  Ag0  1  0.83059914  0.55155790  0.60284098  1  0  0.518496  0  1.509436  0  0  0.410936  0  1.963834  0  0  0.437917  0  1.916601  0  0  0.36514  0.392328  0  1.996559  0
Ag  Ag1  1  0.16940129  0.44844030  0.39715755  1  0  0.518511  0  1.509459  0  0  0.410937  0  1.963863  0  0  0.437921  0  1.916629  0  0  0.365141  0.392332  0  1.996588  0
H  H2  1  0.42338661  0.38037991  0.95723629  1  0  0.122349  0  0.956152  0  0  0.129006  0  1.021034  0  0  0.132641  0  1.018006  0  0  0.10972  0.126354  0  1.023293  0
H  H3  1  0.57661727  0.61962067  0.04276428  1  0  0.122369  0  0.95612  0  0  0.129014  0  1.021025  0  0  0.132649  0  1.017995  0  0  0.109732  0.126359  0  1.023282  0
H  H4  1  0.22992585  0.13748914  0.99769553  1  0  0.100406  0  0.978232  0  0  0.107607  0  1.047367  0  0  0.110864  0  1.046117  0  0  0.091108  0.105166  0  1.048588  0
H  H5  1  0.77007683  0.86251145  0.00230468  1  0  0.100427  0  0.978262  0  0  0.10763  0  1.047377  0  0  0.110888  0  1.046126  0  0  0.091131  0.105187  0  1.048609  0
H  H6  1  0.04960386  0.90222022  0.58361035  1  0  0.10377  0  0.977088  0  0  0.113874  0  1.041738  0  0  0.117077  0  1.039743  0  0  0.099052  0.111349  0  1.043556  0
H  H7  1  0.95039709  0.09777917  0.41638837  1  0  0.103775  0  0.977096  0  0  0.113879  0  1.04174  0  0  0.117081  0  1.039746  0  0  0.099058  0.111353  0  1.043559  0
H  H8  1  0.24187540  0.15069563  0.54244300  1  0  0.096087  0  0.959263  0  0  0.106116  0  1.02569  0  0  0.108999  0  1.023498  0  0  0.104125  0.103932  0  1.027602  0
H  H9  1  0.75812676  0.84930376  0.45755701  1  0  0.096104  0  0.959227  0  0  0.106132  0  1.025663  0  0  0.109016  0  1.02347  0  0  0.104132  0.103949  0  1.027574  0
H  H10  1  0.45730782  0.94880734  0.90146893  1  0  0.099759  0  0.962491  0  0  0.110657  0  1.024303  0  0  0.112982  0  1.023735  0  0  0.1048  0.10919  0  1.024356  0
H  H11  1  0.54268748  0.05118727  0.09852977  1  0  0.099768  0  0.962495  0  0  0.11066  0  1.024307  0  0  0.112985  0  1.023741  0  0  0.104809  0.109195  0  1.024358  0
H  H12  1  0.69414558  0.21582124  0.93977629  1  0  0.113671  0  0.948951  0  0  0.122103  0  1.012998  0  0  0.125776  0  1.010818  0  0  0.099716  0.119333  0  1.014895  0
H  H13  1  0.30584790  0.78417457  0.06022562  1  0  0.113701  0  0.949004  0  0  0.122133  0  1.013027  0  0  0.125807  0  1.010845  0  0  0.09971  0.119364  0  1.014924  0
H  H14  1  0.74507144  0.05600543  0.58156032  1  0  0.105955  0  0.944552  0  0  0.120122  0  0.999213  0  0  0.122525  0  0.999131  0  0  0.101885  0.118405  0  0.999394  0
H  H15  1  0.25492862  0.94399995  0.41844300  1  0  0.105945  0  0.944536  0  0  0.120098  0  0.999209  0  0  0.1225  0  0.999129  0  0  0.101879  0.118383  0  0.99939  0
H  H16  1  0.51071175  0.78897157  0.54609015  1  0  0.120324  0  0.963955  0  0  0.129132  0  1.028737  0  0  0.132168  0  1.026948  0  0  0.105402  0.126869  0  1.030113  0
H  H17  1  0.48928892  0.21103261  0.45390868  1  0  0.120312  0  0.963967  0  0  0.129136  0  1.028727  0  0  0.132175  0  1.026942  0  0  0.105405  0.126872  0  1.030103  0
C  C18  1  0.33962259  0.28118939  0.74577131  1  0  -0.119501  0  3.75198  0  0  -0.093067  0  3.997129  0  0  -0.100103  0  4.019731  0  0  -0.02142  -0.088704  0  3.982402  0
C  C19  1  0.66037889  0.71881119  0.25422763  1  0  -0.119548  0  3.751963  0  0  -0.093082  0  3.997073  0  0  -0.100118  0  4.019677  0  0  -0.021407  -0.08872  0  3.98234  0
C  C20  1  0.34043243  0.27760896  0.87446088  1  0  -0.033149  0  3.69984  0  0  -0.059504  0  3.95034  0  0  -0.05742  0  3.96773  0  0  -0.078451  -0.060728  0  3.938814  0
C  C21  1  0.65956838  0.72239283  0.12553790  1  0  -0.033161  0  3.699791  0  0  -0.059526  0  3.950315  0  0  -0.057441  0  3.967704  0  0  -0.078471  -0.060761  0  3.938825  0
C  C22  1  0.23111582  0.13909965  0.89765609  1  0  -0.097543  0  3.747162  0  0  -0.117074  0  3.998021  0  0  -0.120001  0  4.01824  0  0  -0.098671  -0.115261  0  3.984746  0
C  C23  1  0.76888618  0.86090213  0.10234305  1  0  -0.097547  0  3.747182  0  0  -0.117075  0  3.998043  0  0  -0.120003  0  4.018261  0  0  -0.098684  -0.115266  0  3.984759  0
C  C24  1  0.12355837  0.00708992  0.79142581  1  0  0.023912  0  3.663412  0  0  0.048278  0  3.919356  0  0  0.050775  0  3.943616  0  0  -0.049754  0.046366  0  3.90302  0
C  C25  1  0.87644058  0.99291307  0.20857246  1  0  0.023923  0  3.66336  0  0  0.048291  0  3.919297  0  0  0.050788  0  3.943557  0  0  -0.049747  0.046379  0  3.902961  0
C  C26  1  0.12738882  0.00841065  0.66363480  1  0  -0.103627  0  3.765958  0  0  -0.121897  0  4.011301  0  0  -0.125759  0  4.033998  0  0  -0.099392  -0.118979  0  3.99584  0
C  C27  1  0.87261268  0.99158994  0.33636506  1  0  -0.10361  0  3.765845  0  0  -0.121886  0  4.01121  0  0  -0.125746  0  4.0339  0  0  -0.099376  -0.118969  0  3.995749  0
C  C28  1  0.23598222  0.14678259  0.64099571  1  0  -0.050658  0  3.734475  0  0  -0.071997  0  3.977219  0  0  -0.071492  0  3.997693  0  0  -0.083088  -0.072508  0  3.963768  0
C  C29  1  0.76401861  0.85321919  0.35900400  1  0  -0.050698  0  3.734407  0  0  -0.072052  0  3.977161  0  0  -0.071549  0  3.997637  0  0  -0.083127  -0.072561  0  3.963705  0
C  C30  1  0.47259107  0.85408805  0.72347684  1  0  -0.112619  0  3.728849  0  0  -0.084526  0  3.971528  0  0  -0.091109  0  3.993679  0  0  -0.020604  -0.080296  0  3.95673  0
C  C31  1  0.52740818  0.14591015  0.27652226  1  0  -0.11253  0  3.728751  0  0  -0.084414  0  3.971387  0  0  -0.090998  0  3.993537  0  0  -0.02056  -0.080189  0  3.956594  0
C  C32  1  0.52257660  0.97355381  0.83309143  1  0  -0.047139  0  3.734113  0  0  -0.070493  0  3.98087  0  0  -0.070086  0  4.002162  0  0  -0.082054  -0.070626  0  3.966198  0
C  C33  1  0.47742043  0.02644200  0.16690876  1  0  -0.047197  0  3.734189  0  0  -0.070562  0  3.980948  0  0  -0.070156  0  4.00224  0  0  -0.082084  -0.070696  0  3.966277  0
C  C34  1  0.65483641  0.12294617  0.85389895  1  0  -0.104288  0  3.748768  0  0  -0.124728  0  4.002336  0  0  -0.128103  0  4.023463  0  0  -0.098141  -0.122495  0  3.988169  0
C  C35  1  0.34515998  0.87705083  0.14610387  1  0  -0.104341  0  3.748884  0  0  -0.124733  0  4.00243  0  0  -0.128108  0  4.023556  0  0  -0.098123  -0.122502  0  3.988265  0
C  C36  1  0.73522333  0.14990101  0.76339869  1  0  0.032217  0  3.660807  0  0  0.054848  0  3.920057  0  0  0.057801  0  3.943434  0  0  -0.050796  0.052744  0  3.904293  0
C  C37  1  0.26477652  0.85009836  0.23660709  1  0  0.032312  0  3.660761  0  0  0.054887  0  3.920073  0  0  0.057839  0  3.943449  0  0  -0.050774  0.052785  0  3.904307  0
C  C38  1  0.68244957  0.03179858  0.65190367  1  0  -0.103853  0  3.767304  0  0  -0.121415  0  4.014939  0  0  -0.125084  0  4.036983  0  0  -0.098834  -0.119  0  3.999964  0
C  C39  1  0.31755078  0.96820200  0.34810046  1  0  -0.10387  0  3.767331  0  0  -0.121408  0  4.014992  0  0  -0.125078  0  4.037042  0  0  -0.098826  -0.118983  0  3.999992  0
C  C40  1  0.55023749  0.88248534  0.63155401  1  0  -0.064676  0  3.737769  0  0  -0.089017  0  3.985689  0  0  -0.088435  0  4.005825  0  0  -0.088921  -0.089199  0  3.971895  0
C  C41  1  0.44976214  0.11751645  0.36844534  1  0  -0.064709  0  3.737765  0  0  -0.089064  0  3.98567  0  0  -0.088487  0  4.005809  0  0  -0.088948  -0.089245  0  3.971878  0
S  S42  1  0.46761533  0.45670808  0.70813211  1  0  1.244405  0  5.422472  0  0  1.149592  0  5.924177  0  0  1.19548  0  5.908354  0  0  0.543702  1.118015  0  5.934267  0
S  S43  1  0.53238669  0.54329370  0.29186795  1  0  1.244462  0  5.42236  0  0  1.149651  0  5.924061  0  0  1.195531  0  5.908244  0  0  0.54372  1.118074  0  5.934147  0
S  S44  1  0.29628065  0.66830967  0.69658433  1  0  1.240176  0  5.419388  0  0  1.14956  0  5.915963  0  0  1.195002  0  5.901331  0  0  0.539113  1.118214  0  5.925008  0
S  S45  1  0.70371858  0.33168853  0.30341384  1  0  1.240114  0  5.419343  0  0  1.149512  0  5.9159  0  0  1.194948  0  5.901274  0  0  0.539128  1.118167  0  5.924942  0
I  I46  1  0.94510286  0.80405066  0.82210125  1  0  0.079901  0  1.755971  0  0  0.076109  0  2.159563  0  0  0.070073  0  2.143192  0  0  0.181209  0.080837  0  2.171002  0
I  I47  1  0.05489795  0.19595112  0.17789753  1  0  0.079901  0  1.756007  0  0  0.076117  0  2.159605  0  0  0.070079  0  2.143235  0  0  0.181214  0.080842  0  2.171044  0
I  I48  1  0.94861805  0.36680808  0.79911482  1  0  0.071176  0  1.681952  0  0  0.065074  0  2.062462  0  0  0.060577  0  2.046428  0  0  0.154165  0.068188  0  2.074069  0
I  I49  1  0.05137627  0.63319489  0.20089408  1  0  0.071134  0  1.681915  0  0  0.065048  0  2.062455  0  0  0.060549  0  2.046423  0  0  0.154145  0.068161  0  2.074063  0
N  N50  1  0.33055809  0.53232001  0.62386228  1  0  -0.770401  0  3.030509  0  0  -0.689088  0  3.360979  0  0  -0.716976  0  3.355041  0  0  -0.442051  -0.669745  0  3.364408  0
N  N51  1  0.66944116  0.46767818  0.37613681  1  0  -0.770354  0  3.030384  0  0  -0.689079  0  3.360906  0  0  -0.716956  0  3.354962  0  0  -0.442059  -0.669734  0  3.364333  0
O  O52  1  0.52271486  0.40101765  0.61154527  1  0  -0.619401  0  2.055864  0  0  -0.568554  0  2.340094  0  0  -0.589999  0  2.325312  0  0  -0.321469  -0.553403  0  2.349601  0
O  O53  1  0.47728767  0.59898533  0.38845407  1  0  -0.619419  0  2.055893  0  0  -0.568564  0  2.340127  0  0  -0.590007  0  2.325342  0  0  -0.321476  -0.553423  0  2.349651  0
O  O54  1  0.60197365  0.56320270  0.83440563  1  0  -0.607495  0  1.970017  0  0  -0.549051  0  2.218604  0  0  -0.570007  0  2.207897  0  0  -0.315611  -0.534545  0  2.225793  0
O  O55  1  0.39802665  0.43679789  0.16559388  1  0  -0.607556  0  1.969915  0  0  -0.549118  0  2.218507  0  0  -0.570072  0  2.207803  0  0  -0.315653  -0.534611  0  2.225697  0
O  O56  1  0.14158223  0.67711563  0.59319176  1  0  -0.62933  0  2.014706  0  0  -0.580075  0  2.296393  0  0  -0.602332  0  2.281774  0  0  -0.32913  -0.564325  0  2.306045  0
O  O57  1  0.85841580  0.32288257  0.40680513  1  0  -0.629334  0  2.014738  0  0  -0.580073  0  2.296416  0  0  -0.602327  0  2.281801  0  0  -0.329144  -0.564321  0  2.306065  0
O  O58  1  0.29294041  0.64527066  0.82795653  1  0  -0.60892  0  1.946723  0  0  -0.552519  0  2.19379  0  0  -0.573742  0  2.183468  0  0  -0.320747  -0.537457  0  2.200347  0
O  O59  1  0.70705815  0.35472874  0.17204149  1  0  -0.608883  0  1.946677  0  0  -0.552498  0  2.193749  0  0  -0.573718  0  2.183431  0  0  -0.320749  -0.537436  0  2.200305  0
