# generated using pymatgen
data_CdH8Au2(C7N3)2
_symmetry_space_group_name_H-M   'P 1'
_cell_length_a   8.94155640
_cell_length_b   8.94168922
_cell_length_c   19.87100149
_cell_angle_alpha   90.00196150
_cell_angle_beta   89.99880262
_cell_angle_gamma   120.00064950
_symmetry_Int_Tables_number   1
_chemical_formula_structural   CdH8Au2(C7N3)2
_chemical_formula_sum   'Cd3 H24 Au6 C42 N18'
_cell_volume   1375.87898241
_cell_formula_units_Z   3
loop_
 _symmetry_equiv_pos_site_id
 _symmetry_equiv_pos_as_xyz
  1  'x, y, z'
loop_
 _atom_site_type_symbol
 _atom_site_label
 _atom_site_symmetry_multiplicity
 _atom_site_fract_x
 _atom_site_fract_y
 _atom_site_fract_z
 _atom_site_occupancy
 _atom_site_hle17_bader_spin_density
 _atom_site_hle17_ddec_charge
 _atom_site_hle17_ddec_spin_density
 _atom_site_hle17_ddec_sum_bond_order
 _atom_site_hle17_magmom
 _atom_site_hse06_10hf_bader_spin_density
 _atom_site_hse06_10hf_ddec_charge
 _atom_site_hse06_10hf_ddec_spin_density
 _atom_site_hse06_10hf_ddec_sum_bond_order
 _atom_site_hse06_10hf_magmom
 _atom_site_hse06_bader_spin_density
 _atom_site_hse06_ddec_charge
 _atom_site_hse06_ddec_spin_density
 _atom_site_hse06_ddec_sum_bond_order
 _atom_site_hse06_magmom
 _atom_site_pbe_bader_spin_density
 _atom_site_pbe_cm5_charge
 _atom_site_pbe_ddec_charge
 _atom_site_pbe_ddec_spin_density
 _atom_site_pbe_ddec_sum_bond_order
 _atom_site_pbe_magmom
Cd  Cd0  1  0.63663030  0.27325068  0.16668875  1  0  1.096462  0  1.942425  0  0  0.892596  0  2.423224  0  0  0.94209  0  2.376388  0  0  0.84128  0.857967  0  2.455136  0
Cd  Cd1  1  0.72669945  0.36335067  0.50000136  1  0  1.096471  0  1.942705  0  0  0.892577  0  2.423522  0  0  0.942079  0  2.376669  0  0  0.841269  0.857946  0  2.455429  0
Cd  Cd2  1  0.63663195  0.36337956  0.83331462  1  0  1.096474  0  1.942373  0  0  0.892601  0  2.423171  0  0  0.942091  0  2.376345  0  0  0.841309  0.857971  0  2.455082  0
H  H3  1  0.38192454  0.38149975  0.09407038  1  0  0.069197  0  0.961676  0  0  0.072471  0  1.035697  0  0  0.075166  0  1.033181  0  0  0.104858  0.070522  0  1.037478  0
H  H4  1  0.61845718  0.00046068  0.42736208  1  0  0.069235  0  0.961579  0  0  0.07257  0  1.035526  0  0  0.075222  0  1.033071  0  0  0.104944  0.070613  0  1.03731  0
H  H5  1  0.99947683  0.61794713  0.76064063  1  0  0.069244  0  0.961827  0  0  0.072548  0  1.035826  0  0  0.075221  0  1.033336  0  0  0.104884  0.070606  0  1.03761  0
H  H6  1  0.61845523  0.61799605  0.57264133  1  0  0.069205  0  0.961558  0  0  0.072517  0  1.035541  0  0  0.075181  0  1.033071  0  0  0.104914  0.070561  0  1.037325  0
H  H7  1  0.38192759  0.00042417  0.90593343  1  0  0.069199  0  0.961626  0  0  0.072503  0  1.035623  0  0  0.07518  0  1.033126  0  0  0.104872  0.070552  0  1.037399  0
H  H8  1  0.99946979  0.38152639  0.23936162  1  0  0.069288  0  0.961773  0  0  0.072579  0  1.035775  0  0  0.075265  0  1.033274  0  0  0.104908  0.070637  0  1.03756  0
H  H9  1  0.36728062  0.64389912  0.05939681  1  0  0.090416  0  0.968385  0  0  0.095977  0  1.039603  0  0  0.099471  0  1.037746  0  0  0.097921  0.0935  0  1.041009  0
H  H10  1  0.35605189  0.72338197  0.39270377  1  0  0.090781  0  0.968115  0  0  0.096196  0  1.039467  0  0  0.099681  0  1.037624  0  0  0.098022  0.093715  0  1.040874  0
H  H11  1  0.27661999  0.63268314  0.72603742  1  0  0.090619  0  0.96813  0  0  0.09606  0  1.039446  0  0  0.099546  0  1.037603  0  0  0.097922  0.093579  0  1.040857  0
H  H12  1  0.35604608  0.63266389  0.60729870  1  0  0.090792  0  0.96813  0  0  0.096197  0  1.039461  0  0  0.099682  0  1.037618  0  0  0.098009  0.093715  0  1.040872  0
H  H13  1  0.36728426  0.72338114  0.94060564  1  0  0.090463  0  0.968522  0  0  0.096012  0  1.039736  0  0  0.099502  0  1.037887  0  0  0.097932  0.093531  0  1.041145  0
H  H14  1  0.27661295  0.64393638  0.27396166  1  0  0.090648  0  0.968161  0  0  0.096084  0  1.03946  0  0  0.099568  0  1.037617  0  0  0.09795  0.093601  0  1.04087  0
H  H15  1  0.63088100  0.93676261  0.07856897  1  0  0.104002  0  0.954688  0  0  0.113031  0  1.014294  0  0  0.115144  0  1.014056  0  0  0.106472  0.111523  0  1.014452  0
H  H16  1  0.06317396  0.69408592  0.41189419  1  0  0.104048  0  0.954657  0  0  0.113079  0  1.014235  0  0  0.115204  0  1.014008  0  0  0.106402  0.111562  0  1.014393  0
H  H17  1  0.30596575  0.36915657  0.74528291  1  0  0.104062  0  0.954586  0  0  0.11305  0  1.014245  0  0  0.115181  0  1.014013  0  0  0.106405  0.111534  0  1.014404  0
H  H18  1  0.06317109  0.36908308  0.58810727  1  0  0.104127  0  0.954613  0  0  0.113192  0  1.014145  0  0  0.11532  0  1.013919  0  0  0.10646  0.111677  0  1.014303  0
H  H19  1  0.63088162  0.69411646  0.92143001  1  0  0.103997  0  0.954693  0  0  0.113055  0  1.014267  0  0  0.115167  0  1.01403  0  0  0.106498  0.111548  0  1.014426  0
H  H20  1  0.30596078  0.93680838  0.25471813  1  0  0.104063  0  0.954614  0  0  0.113068  0  1.014245  0  0  0.1152  0  1.014014  0  0  0.1064  0.111553  0  1.014409  0
H  H21  1  0.88520689  0.95472179  0.13518207  1  0  0.10581  0  0.951549  0  0  0.11739  0  1.009419  0  0  0.120092  0  1.00911  0  0  0.106174  0.115471  0  1.009805  0
H  H22  1  0.04522060  0.93045158  0.46851276  1  0  0.105977  0  0.951626  0  0  0.117561  0  1.009452  0  0  0.120261  0  1.009147  0  0  0.106267  0.115636  0  1.009848  0
H  H23  1  0.06959139  0.11484979  0.80189773  1  0  0.105941  0  0.951548  0  0  0.11746  0  1.009492  0  0  0.120159  0  1.009185  0  0  0.106201  0.115536  0  1.009883  0
H  H24  1  0.04521670  0.11476390  0.53148772  1  0  0.106015  0  0.951544  0  0  0.117589  0  1.009386  0  0  0.12029  0  1.009081  0  0  0.106277  0.115664  0  1.009782  0
H  H25  1  0.88520868  0.93048224  0.86481698  1  0  0.105819  0  0.951523  0  0  0.117401  0  1.009401  0  0  0.120103  0  1.009095  0  0  0.106185  0.115475  0  1.009796  0
H  H26  1  0.06958927  0.95474437  0.19810170  1  0  0.10593  0  0.951522  0  0  0.117462  0  1.009453  0  0  0.120155  0  1.009162  0  0  0.106197  0.115542  0  1.009839  0
Au  Au27  1  0.09797099  0.27678331  0.98639282  1  0  0.091823  0  2.340391  0  0  0.043605  0  2.788271  0  0  0.051219  0  2.761031  0  0  0.281387  0.039018  0  2.806467  0
Au  Au28  1  0.72344831  0.82128557  0.31972359  1  0  0.091957  0  2.340662  0  0  0.043762  0  2.788548  0  0  0.051377  0  2.761297  0  0  0.281395  0.039195  0  2.806713  0
Au  Au29  1  0.17875672  0.90201270  0.65306728  1  0  0.091841  0  2.340503  0  0  0.043643  0  2.788408  0  0  0.051262  0  2.761154  0  0  0.281398  0.039064  0  2.806605  0
Au  Au30  1  0.72343766  0.90215763  0.68027775  1  0  0.091977  0  2.340707  0  0  0.043789  0  2.788594  0  0  0.051407  0  2.761345  0  0  0.281426  0.039232  0  2.806752  0
Au  Au31  1  0.09797810  0.82118931  0.01361059  1  0  0.091789  0  2.340394  0  0  0.043579  0  2.788246  0  0  0.051194  0  2.761002  0  0  0.281393  0.038993  0  2.806442  0
Au  Au32  1  0.17876337  0.27675565  0.34693498  1  0  0.091891  0  2.340493  0  0  0.043702  0  2.788382  0  0  0.051321  0  2.761126  0  0  0.281429  0.039118  0  2.806585  0
C  C33  1  0.91234626  0.26600368  0.04289847  1  0  0.067423  0  3.639646  0  0  0.065402  0  3.983417  0  0  0.072278  0  3.993355  0  0  -0.008548  0.060547  0  3.976488  0
C  C34  1  0.73411555  0.64638698  0.37622413  1  0  0.06736  0  3.639966  0  0  0.065325  0  3.983756  0  0  0.072203  0  3.993695  0  0  -0.008522  0.060465  0  3.976824  0
C  C35  1  0.35363981  0.08766071  0.70955057  1  0  0.067196  0  3.639875  0  0  0.065147  0  3.983667  0  0  0.072025  0  3.993608  0  0  -0.008622  0.060286  0  3.976739  0
C  C36  1  0.73410859  0.08772701  0.62377908  1  0  0.067342  0  3.639957  0  0  0.065299  0  3.983758  0  0  0.072176  0  3.993699  0  0  -0.00858  0.060439  0  3.976832  0
C  C37  1  0.91234935  0.64634386  0.95710393  1  0  0.067372  0  3.639543  0  0  0.065349  0  3.983314  0  0  0.072223  0  3.993252  0  0  -0.008612  0.060493  0  3.976383  0
C  C38  1  0.35364938  0.26599466  0.29045278  1  0  0.067311  0  3.63982  0  0  0.065263  0  3.983609  0  0  0.072145  0  3.993547  0  0  -0.008482  0.060402  0  3.976679  0
C  C39  1  0.28681522  0.99411076  0.06953927  1  0  0.074866  0  3.638946  0  0  0.071023  0  3.982069  0  0  0.07868  0  3.992537  0  0  2e-06  0.065668  0  3.974779  0
C  C40  1  0.00579722  0.29263129  0.40285308  1  0  0.074785  0  3.63926  0  0  0.070931  0  3.98237  0  0  0.078582  0  3.992846  0  0  0.000109  0.065573  0  3.97508  0
C  C41  1  0.70753288  0.71332328  0.73620310  1  0  0.07441  0  3.639931  0  0  0.070549  0  3.983043  0  0  0.078203  0  3.993505  0  0  -0.000263  0.065191  0  3.975759  0
C  C42  1  0.00579526  0.71316685  0.59714999  1  0  0.074795  0  3.639166  0  0  0.070947  0  3.982267  0  0  0.078597  0  3.992744  0  0  0.000157  0.065588  0  3.974978  0
C  C43  1  0.28681100  0.29269875  0.93046332  1  0  0.074747  0  3.638872  0  0  0.070901  0  3.981992  0  0  0.078557  0  3.992462  0  0  -4.1e-05  0.065545  0  3.974696  0
C  C44  1  0.70754355  0.99421259  0.26379776  1  0  0.074447  0  3.639951  0  0  0.070585  0  3.983079  0  0  0.07824  0  3.99354  0  0  -0.00023  0.065228  0  3.975792  0
C  C45  1  0.48970966  0.51156412  0.10315647  1  0  0.14076  0  3.719693  0  0  0.113379  0  3.963011  0  0  0.119624  0  3.982484  0  0  0.049621  0.109416  0  3.94959  0
C  C46  1  0.48839283  0.97815525  0.43646586  1  0  0.141045  0  3.718806  0  0  0.113605  0  3.962056  0  0  0.119878  0  3.981555  0  0  0.049752  0.109645  0  3.948631  0
C  C47  1  0.02179903  0.51021476  0.76976472  1  0  0.140996  0  3.719215  0  0  0.113588  0  3.962529  0  0  0.119852  0  3.981992  0  0  0.049759  0.109616  0  3.949119  0
C  C48  1  0.48838670  0.51023679  0.56353789  1  0  0.141146  0  3.718615  0  0  0.113727  0  3.961856  0  0  0.119993  0  3.981346  0  0  0.049823  0.109766  0  3.948436  0
C  C49  1  0.48971207  0.97814257  0.89684678  1  0  0.140753  0  3.719486  0  0  0.113351  0  3.962816  0  0  0.11961  0  3.982297  0  0  0.049581  0.109389  0  3.949393  0
C  C50  1  0.02179875  0.51158575  0.23023731  1  0  0.140887  0  3.719006  0  0  0.113491  0  3.962326  0  0  0.119743  0  3.981783  0  0  0.049709  0.109516  0  3.948918  0
C  C51  1  0.48333182  0.65753705  0.08317222  1  0  -0.115121  0  3.733044  0  0  -0.123039  0  3.972965  0  0  -0.13083  0  3.996201  0  0  -0.082132  -0.117968  0  3.95723  0
C  C52  1  0.34240002  0.82577598  0.41648701  1  0  -0.115692  0  3.733188  0  0  -0.12353  0  3.973158  0  0  -0.131304  0  3.99638  0  0  -0.082429  -0.118465  0  3.957421  0
C  C53  1  0.17419901  0.51663249  0.74981790  1  0  -0.115627  0  3.732838  0  0  -0.123416  0  3.972718  0  0  -0.131196  0  3.995943  0  0  -0.082246  -0.118344  0  3.956982  0
C  C54  1  0.34239390  0.51662103  0.58351548  1  0  -0.115792  0  3.733329  0  0  -0.123596  0  3.973301  0  0  -0.131372  0  3.996527  0  0  -0.082464  -0.118532  0  3.957566  0
C  C55  1  0.48333435  0.82578969  0.91682953  1  0  -0.115242  0  3.733267  0  0  -0.123149  0  3.97321  0  0  -0.130938  0  3.99644  0  0  -0.082148  -0.118078  0  3.957475  0
C  C56  1  0.17420017  0.65757227  0.25018387  1  0  -0.115576  0  3.732993  0  0  -0.123359  0  3.972898  0  0  -0.131135  0  3.99612  0  0  -0.082266  -0.118287  0  3.957159  0
C  C57  1  0.62846809  0.81885832  0.09419185  1  0  0.008253  0  3.7025  0  0  -0.007795  0  3.944169  0  0  -0.004908  0  3.965064  0  0  -0.064256  -0.009346  0  3.929771  0
C  C58  1  0.18109693  0.80959093  0.42752031  1  0  0.008107  0  3.703261  0  0  -0.007868  0  3.944864  0  0  -0.005015  0  3.965791  0  0  -0.064152  -0.009397  0  3.930445  0
C  C59  1  0.19043095  0.37153949  0.76088158  1  0  0.008273  0  3.702462  0  0  -0.007687  0  3.94401  0  0  -0.004829  0  3.964921  0  0  -0.064169  -0.009225  0  3.92959  0
C  C60  1  0.18109482  0.37150907  0.57248246  1  0  0.008104  0  3.703275  0  0  -0.007893  0  3.944844  0  0  -0.005046  0  3.965774  0  0  -0.064192  -0.009429  0  3.930432  0
C  C61  1  0.62846416  0.80960401  0.90580915  1  0  0.008352  0  3.70247  0  0  -0.007703  0  3.944112  0  0  -0.004815  0  3.965006  0  0  -0.064273  -0.009254  0  3.929709  0
C  C62  1  0.19043055  0.81888833  0.23912067  1  0  0.00821  0  3.702695  0  0  -0.007764  0  3.944245  0  0  -0.004907  0  3.965156  0  0  -0.064202  -0.009302  0  3.929828  0
C  C63  1  0.77187748  0.82892887  0.12627570  1  0  -0.14382  0  3.718759  0  0  -0.165056  0  3.973126  0  0  -0.172531  0  3.994853  0  0  -0.082196  -0.160251  0  3.958507  0
C  C64  1  0.17101105  0.94291399  0.45960733  1  0  -0.143894  0  3.718593  0  0  -0.16523  0  3.973031  0  0  -0.172692  0  3.994747  0  0  -0.082351  -0.160428  0  3.958406  0
C  C65  1  0.05709507  0.22813876  0.79296605  1  0  -0.144029  0  3.718996  0  0  -0.165292  0  3.973385  0  0  -0.172776  0  3.995141  0  0  -0.082317  -0.160499  0  3.958784  0
C  C66  1  0.17101093  0.22809685  0.54039394  1  0  -0.14398  0  3.718423  0  0  -0.165313  0  3.972886  0  0  -0.172775  0  3.994604  0  0  -0.082372  -0.160508  0  3.958255  0
C  C67  1  0.77187732  0.94294565  0.87372456  1  0  -0.143878  0  3.718675  0  0  -0.165151  0  3.973089  0  0  -0.172622  0  3.994807  0  0  -0.082221  -0.160346  0  3.958465  0
C  C68  1  0.05709282  0.82895555  0.20703542  1  0  -0.144049  0  3.718716  0  0  -0.165312  0  3.973115  0  0  -0.172797  0  3.994869  0  0  -0.082309  -0.160523  0  3.958523  0
C  C69  1  0.76640282  0.67684503  0.14767156  1  0  0.16912  0  3.765621  0  0  0.163635  0  4.012279  0  0  0.170297  0  4.032275  0  0  0.11635  0.159225  0  3.998718  0
C  C70  1  0.32310473  0.08954019  0.48100211  1  0  0.16916  0  3.765352  0  0  0.163685  0  4.011925  0  0  0.170348  0  4.031918  0  0  0.11634  0.159268  0  3.998373  0
C  C71  1  0.91044582  0.23358890  0.81432739  1  0  0.169352  0  3.765501  0  0  0.163859  0  4.012218  0  0  0.170523  0  4.032195  0  0  0.116395  0.159441  0  3.998662  0
C  C72  1  0.32310523  0.23356317  0.51899928  1  0  0.169155  0  3.765285  0  0  0.163679  0  4.011896  0  0  0.170341  0  4.031889  0  0  0.116317  0.159264  0  3.998344  0
C  C73  1  0.76640470  0.08955980  0.85232907  1  0  0.169068  0  3.765621  0  0  0.163593  0  4.012278  0  0  0.170254  0  4.032278  0  0  0.116311  0.159186  0  3.998713  0
C  C74  1  0.91043927  0.67685423  0.18567300  1  0  0.169488  0  3.765409  0  0  0.163982  0  4.012137  0  0  0.170642  0  4.032122  0  0  0.116469  0.159569  0  3.998577  0
N  N75  1  0.80246242  0.25785361  0.07731641  1  0  -0.431701  0  2.979566  0  0  -0.367763  0  3.244021  0  0  -0.38727  0  3.259311  0  0  -0.359662  -0.354391  0  3.233521  0
N  N76  1  0.74218116  0.54459739  0.41063275  1  0  -0.431673  0  2.979904  0  0  -0.367715  0  3.24437  0  0  -0.387225  0  3.259664  0  0  -0.359654  -0.35434  0  3.233864  0
N  N77  1  0.45538448  0.19758529  0.74395081  1  0  -0.431504  0  2.979694  0  0  -0.36752  0  3.244138  0  0  -0.38703  0  3.259435  0  0  -0.359629  -0.354142  0  3.233635  0
N  N78  1  0.74217865  0.19758495  0.58937045  1  0  -0.43165  0  2.979824  0  0  -0.367697  0  3.2443  0  0  -0.387207  0  3.259596  0  0  -0.359598  -0.354324  0  3.233799  0
N  N79  1  0.80246540  0.54461199  0.92268768  1  0  -0.431638  0  2.979562  0  0  -0.367689  0  3.244021  0  0  -0.387196  0  3.259311  0  0  -0.35958  -0.354315  0  3.233517  0
N  N80  1  0.45539140  0.25780542  0.25605337  1  0  -0.431628  0  2.979742  0  0  -0.36766  0  3.244203  0  0  -0.387172  0  3.259496  0  0  -0.359757  -0.354282  0  3.233698  0
N  N81  1  0.39843472  0.09431826  0.10372589  1  0  -0.434733  0  3.00947  0  0  -0.363595  0  3.278996  0  0  -0.384284  0  3.293442  0  0  -0.362464  -0.349468  0  3.269073  0
N  N82  1  0.90558586  0.30403376  0.43703394  1  0  -0.434606  0  3.009939  0  0  -0.363509  0  3.279532  0  0  -0.384198  0  3.293982  0  0  -0.362556  -0.349383  0  3.269603  0
N  N83  1  0.69604075  0.60166008  0.77037571  1  0  -0.434376  0  3.010214  0  0  -0.363257  0  3.279725  0  0  -0.383944  0  3.294171  0  0  -0.362254  -0.349132  0  3.269803  0
N  N84  1  0.90558628  0.60155205  0.56296848  1  0  -0.434587  0  3.009904  0  0  -0.363499  0  3.279511  0  0  -0.384187  0  3.293962  0  0  -0.362578  -0.349372  0  3.269586  0
N  N85  1  0.39843167  0.30411335  0.89627789  1  0  -0.434618  0  3.009467  0  0  -0.36348  0  3.278999  0  0  -0.384168  0  3.293445  0  0  -0.362406  -0.349352  0  3.269067  0
N  N86  1  0.69604340  0.09438028  0.22962555  1  0  -0.434369  0  3.010235  0  0  -0.363236  0  3.279718  0  0  -0.383924  0  3.294166  0  0  -0.362234  -0.349113  0  3.269797  0
N  N87  1  0.62697284  0.52160956  0.13434658  1  0  -0.344647  0  3.250735  0  0  -0.275078  0  3.50606  0  0  -0.293293  0  3.524059  0  0  -0.324217  -0.262554  0  3.493458  0
N  N88  1  0.47833550  0.10535555  0.46766599  1  0  -0.344697  0  3.25046  0  0  -0.275023  0  3.505675  0  0  -0.293235  0  3.52366  0  0  -0.32415  -0.2625  0  3.49308  0
N  N89  1  0.89459441  0.37296449  0.80096384  1  0  -0.344707  0  3.250268  0  0  -0.275128  0  3.50563  0  0  -0.293347  0  3.523637  0  0  -0.324225  -0.262602  0  3.493033  0
N  N90  1  0.47833566  0.37297853  0.53233665  1  0  -0.344707  0  3.25025  0  0  -0.275059  0  3.505493  0  0  -0.293273  0  3.523484  0  0  -0.324123  -0.262537  0  3.492894  0
N  N91  1  0.62697497  0.10536456  0.86565479  1  0  -0.344548  0  3.250634  0  0  -0.274973  0  3.505957  0  0  -0.293186  0  3.523951  0  0  -0.324139  -0.262453  0  3.493363  0
N  N92  1  0.89458749  0.52162599  0.19903809  1  0  -0.344756  0  3.250259  0  0  -0.275168  0  3.505616  0  0  -0.293386  0  3.52363  0  0  -0.324234  -0.262641  0  3.493014  0
