# generated using pymatgen
data_GdH11C9(NO2)4
_symmetry_space_group_name_H-M   'P 1'
_cell_length_a   7.04676929
_cell_length_b   10.99254945
_cell_length_c   11.03874311
_cell_angle_alpha   110.77142691
_cell_angle_beta   102.06979360
_cell_angle_gamma   106.75437055
_symmetry_Int_Tables_number   1
_chemical_formula_structural   GdH11C9(NO2)4
_chemical_formula_sum   'Gd2 H22 C18 N8 O16'
_cell_volume   717.78708815
_cell_formula_units_Z   2
loop_
 _symmetry_equiv_pos_site_id
 _symmetry_equiv_pos_as_xyz
  1  'x, y, z'
loop_
 _atom_site_type_symbol
 _atom_site_label
 _atom_site_symmetry_multiplicity
 _atom_site_fract_x
 _atom_site_fract_y
 _atom_site_fract_z
 _atom_site_occupancy
 _atom_site_hle17_bader_spin_density
 _atom_site_hle17_ddec_charge
 _atom_site_hle17_ddec_spin_density
 _atom_site_hle17_ddec_sum_bond_order
 _atom_site_hle17_magmom
 _atom_site_hse06_10hf_bader_spin_density
 _atom_site_hse06_10hf_ddec_charge
 _atom_site_hse06_10hf_ddec_spin_density
 _atom_site_hse06_10hf_ddec_sum_bond_order
 _atom_site_hse06_10hf_magmom
 _atom_site_hse06_bader_spin_density
 _atom_site_hse06_ddec_charge
 _atom_site_hse06_ddec_spin_density
 _atom_site_hse06_ddec_sum_bond_order
 _atom_site_hse06_magmom
 _atom_site_pbe_bader_spin_density
 _atom_site_pbe_cm5_charge
 _atom_site_pbe_ddec_charge
 _atom_site_pbe_ddec_spin_density
 _atom_site_pbe_ddec_sum_bond_order
 _atom_site_pbe_magmom
Gd  Gd0  1  0.71052837  0.78337343  0.68192446  1  0  2.227349  0  1.759391  0  0  2.145486  0  2.108673  0  0  2.193984  0  2.055988  0  0  1.476462  2.104522  0  2.155367  0
Gd  Gd1  1  0.28946840  0.21662557  0.31807764  1  0  2.22725  0  1.759415  0  0  2.145533  0  2.108486  0  0  2.19394  0  2.05593  0  0  1.476444  2.104566  0  2.155196  0
H  H2  1  0.41772994  0.81862840  0.39055834  1  0  0.120212  0  0.952095  0  0  0.124351  0  1.024693  0  0  0.128803  0  1.020275  0  0  0.114625  0.121163  0  1.027831  0
H  H3  1  0.58227872  0.18137127  0.60944360  1  0  0.120263  0  0.95214  0  0  0.124465  0  1.024658  0  0  0.128919  0  1.020234  0  0  0.114637  0.121278  0  1.027792  0
H  H4  1  0.21129033  0.75788870  0.96972141  1  0  0.105466  0  0.962521  0  0  0.115454  0  1.025455  0  0  0.1192  0  1.022177  0  0  0.111977  0.11246  0  1.028352  0
H  H5  1  0.78872058  0.24210910  0.03028649  1  0  0.105373  0  0.962492  0  0  0.115357  0  1.025442  0  0  0.119102  0  1.022164  0  0  0.111924  0.11237  0  1.028335  0
H  H6  1  0.31292549  0.42533936  0.05496205  1  0  0.098397  0  0.962418  0  0  0.108601  0  1.02736  0  0  0.11278  0  1.022893  0  0  0.10981  0.105421  0  1.030866  0
H  H7  1  0.68706727  0.57465736  0.94503876  1  0  0.09845  0  0.962477  0  0  0.10866  0  1.027395  0  0  0.112807  0  1.022965  0  0  0.109835  0.105477  0  1.030899  0
H  H8  1  0.29853815  0.79366142  0.70851825  1  0  0.449653  0  0.810549  0  0  0.429929  0  0.864462  0  0  0.439402  0  0.850548  0  0  0.325324  0.423136  0  0.87426  0
H  H9  1  0.70145125  0.20633810  0.29147409  1  0  0.449559  0  0.810615  0  0  0.429865  0  0.864516  0  0  0.439332  0  0.850612  0  0  0.325338  0.423076  0  0.874254  0
H  H10  1  0.32458951  0.67719186  0.75105126  1  0  0.415192  0  0.89325  0  0  0.379134  0  0.966464  0  0  0.389493  0  0.951544  0  0  0.302007  0.37174  0  0.977108  0
H  H11  1  0.67540302  0.32281095  0.24894533  1  0  0.415207  0  0.893234  0  0  0.37913  0  0.966471  0  0  0.389487  0  0.951554  0  0  0.302001  0.371737  0  0.977115  0
H  H12  1  0.82472794  0.95203452  0.53781720  1  0  0.440402  0  0.814019  0  0  0.421355  0  0.870246  0  0  0.429793  0  0.860828  0  0  0.325216  0.415166  0  0.877197  0
H  H13  1  0.17526980  0.04796659  0.46218485  1  0  0.440381  0  0.814038  0  0  0.421343  0  0.870245  0  0  0.429778  0  0.860829  0  0  0.325214  0.415156  0  0.87719  0
H  H14  1  0.90851018  0.83263663  0.47406505  1  0  0.393261  0  0.927563  0  0  0.348866  0  1.013248  0  0  0.360491  0  0.996681  0  0  0.291564  0.340591  0  1.025028  0
H  H15  1  0.09148394  0.16736321  0.52593340  1  0  0.393279  0  0.927547  0  0  0.348886  0  1.013228  0  0  0.360508  0  0.996664  0  0  0.291573  0.34061  0  1.025008  0
H  H16  1  0.95292017  0.63826441  0.53392629  1  0  0.391217  0  0.931353  0  0  0.346089  0  1.01827  0  0  0.358054  0  1.001212  0  0  0.295659  0.337628  0  1.03027  0
H  H17  1  0.04707082  0.36173214  0.46606791  1  0  0.391231  0  0.931346  0  0  0.346102  0  1.018264  0  0  0.358067  0  1.001207  0  0  0.295693  0.33764  0  1.030265  0
H  H18  1  0.99767861  0.62689879  0.67876278  1  0  0.41026  0  0.889433  0  0  0.373877  0  0.970353  0  0  0.384376  0  0.955061  0  0  0.302319  0.366317  0  0.981336  0
H  H19  1  0.00231797  0.37310016  0.32123474  1  0  0.41023  0  0.889494  0  0  0.373883  0  0.970346  0  0  0.384382  0  0.955053  0  0  0.302344  0.366323  0  0.981328  0
H  H20  1  0.84013959  0.72127585  0.89748333  1  0  0.422007  0  0.865834  0  0  0.394872  0  0.93204  0  0  0.404617  0  0.917399  0  0  0.308051  0.387864  0  0.942605  0
H  H21  1  0.15986350  0.27872143  0.10251529  1  0  0.422023  0  0.865817  0  0  0.394894  0  0.932009  0  0  0.404636  0  0.917375  0  0  0.30807  0.38789  0  0.94257  0
H  H22  1  0.01406439  0.87833463  0.99960804  1  0  0.467653  0  0.820832  0  0  0.438543  0  0.878007  0  0  0.450335  0  0.860978  0  0  0.306018  0.43011  0  0.890157  0
H  H23  1  0.98593875  0.12166574  0.00039258  1  0  0.467662  0  0.820821  0  0  0.438544  0  0.878009  0  0  0.450336  0  0.860979  0  0  0.306027  0.430111  0  0.890159  0
C  C24  1  0.42178248  0.55575500  0.33363252  1  0  0.738277  0  3.844315  0  0  0.685607  0  4.145556  0  0  0.721737  0  4.134391  0  0  0.239491  0.660925  0  4.152384  0
C  C25  1  0.57821776  0.44424214  0.66636934  1  0  0.738017  0  3.844342  0  0  0.685356  0  4.145593  0  0  0.721488  0  4.134433  0  0  0.239382  0.660672  0  4.152417  0
C  C26  1  0.36956591  0.61502975  0.23383249  1  0  -0.080191  0  3.745284  0  0  -0.056963  0  3.988332  0  0  -0.067053  0  4.011782  0  0  -0.017852  -0.050955  0  3.973373  0
C  C27  1  0.63043838  0.38496969  0.76617157  1  0  -0.079939  0  3.745201  0  0  -0.056752  0  3.988291  0  0  -0.066842  0  4.011738  0  0  -0.017815  -0.050742  0  3.973327  0
C  C28  1  0.37492358  0.75248800  0.28059009  1  0  -0.040932  0  3.638519  0  0  -0.0848  0  3.892274  0  0  -0.08053  0  3.909452  0  0  -0.064011  -0.087334  0  3.880941  0
C  C29  1  0.62509226  0.24751202  0.71940559  1  0  -0.041137  0  3.638545  0  0  -0.085018  0  3.892279  0  0  -0.080742  0  3.909449  0  0  -0.064024  -0.087551  0  3.880946  0
C  C30  1  0.31612967  0.80278330  0.18477012  1  0  -0.054112  0  3.749159  0  0  -0.025585  0  3.982679  0  0  -0.035176  0  4.005481  0  0  -0.010845  -0.019598  0  3.967471  0
C  C31  1  0.68388452  0.19722183  0.81523440  1  0  -0.053966  0  3.749172  0  0  -0.02554  0  3.982794  0  0  -0.035133  0  4.005598  0  0  -0.010755  -0.019553  0  3.967588  0
C  C32  1  0.30869663  0.94557520  0.23459963  1  0  0.662922  0  3.883202  0  0  0.614272  0  4.177527  0  0  0.648597  0  4.170163  0  0  0.207999  0.590929  0  4.181377  0
C  C33  1  0.69130085  0.05442275  0.76539584  1  0  0.663031  0  3.883061  0  0  0.6144  0  4.177366  0  0  0.648727  0  4.170009  0  0  0.208008  0.591056  0  4.181217  0
C  C34  1  0.25589956  0.71742490  0.04318339  1  0  -0.071476  0  3.651794  0  0  -0.108549  0  3.894909  0  0  -0.106074  0  3.912483  0  0  -0.069116  -0.109923  0  3.883528  0
C  C35  1  0.74409447  0.28257184  0.95681215  1  0  -0.071429  0  3.651867  0  0  -0.108463  0  3.894978  0  0  -0.105987  0  3.912555  0  0  -0.069111  -0.10984  0  3.88359  0
C  C36  1  0.25212731  0.58015658  0.99587457  1  0  0.005081  0  3.79761  0  0  0.02717  0  4.036541  0  0  0.023343  0  4.059587  0  0  -0.001709  0.02939  0  4.020928  0
C  C37  1  0.74788596  0.41984338  0.00413074  1  0  0.005132  0  3.797373  0  0  0.027232  0  4.036256  0  0  0.023407  0  4.059293  0  0  -0.001652  0.02945  0  4.020648  0
C  C38  1  0.31068386  0.53063544  0.09230500  1  0  -0.065878  0  3.675142  0  0  -0.108114  0  3.929693  0  0  -0.105528  0  3.947415  0  0  -0.069685  -0.109136  0  3.917699  0
C  C39  1  0.68931296  0.46936666  0.90769911  1  0  -0.066109  0  3.675112  0  0  -0.108356  0  3.929686  0  0  -0.10574  0  3.947408  0  0  -0.069802  -0.109375  0  3.917687  0
C  C40  1  0.18106991  0.48559900  0.84868998  1  0  0.263596  0  3.793696  0  0  0.238818  0  4.06879  0  0  0.246908  0  4.088601  0  0  0.213971  0.233593  0  4.05521  0
C  C41  1  0.81892633  0.51440201  0.15131185  1  0  0.263532  0  3.793817  0  0  0.238745  0  4.068917  0  0  0.246832  0  4.088731  0  0  0.213922  0.233523  0  4.055335  0
N  N42  1  0.15517017  0.34849141  0.79819925  1  0  -0.283965  0  2.912831  0  0  -0.272098  0  3.194972  0  0  -0.281488  0  3.209947  0  0  -0.215026  -0.265706  0  3.18497  0
N  N43  1  0.84482548  0.65150237  0.20179906  1  0  -0.283853  0  2.913045  0  0  -0.271979  0  3.195183  0  0  -0.281367  0  3.210154  0  0  -0.214938  -0.265587  0  3.185177  0
N  N44  1  0.08863964  0.30079077  0.66118517  1  0  -0.096326  0  3.092227  0  0  -0.059884  0  3.369357  0  0  -0.063287  0  3.382399  0  0  -0.083209  -0.057234  0  3.360527  0
N  N45  1  0.91136389  0.69921062  0.33881314  1  0  -0.096427  0  3.092282  0  0  -0.059993  0  3.369417  0  0  -0.063394  0  3.382452  0  0  -0.083276  -0.057341  0  3.360588  0
N  N46  1  0.07467891  0.40346775  0.62860539  1  0  -0.097042  0  3.091487  0  0  -0.066123  0  3.357446  0  0  -0.06956  0  3.370961  0  0  -0.091837  -0.063556  0  3.348194  0
N  N47  1  0.92532474  0.59653367  0.37139567  1  0  -0.09695  0  3.091459  0  0  -0.066028  0  3.357414  0  0  -0.069462  0  3.370926  0  0  -0.091812  -0.063464  0  3.34816  0
N  N48  1  0.13137590  0.52183132  0.74442790  1  0  -0.348442  0  3.065882  0  0  -0.298068  0  3.321542  0  0  -0.3117  0  3.336081  0  0  -0.213951  -0.288675  0  3.311755  0
N  N49  1  0.86861735  0.47816953  0.25557352  1  0  -0.348466  0  3.065902  0  0  -0.298098  0  3.321558  0  0  -0.311733  0  3.336097  0  0  -0.213959  -0.288703  0  3.31177  0
O  O50  1  0.48894147  0.63711249  0.46204447  1  0  -0.757787  0  2.082643  0  0  -0.722651  0  2.355355  0  0  -0.747545  0  2.340883  0  0  -0.420344  -0.703994  0  2.364909  0
O  O51  1  0.51106317  0.36288796  0.53795636  1  0  -0.757657  0  2.082672  0  0  -0.722564  0  2.355394  0  0  -0.747431  0  2.340901  0  0  -0.420285  -0.703907  0  2.364947  0
O  O52  1  0.39268845  0.42544765  0.28277215  1  0  -0.735339  0  2.061444  0  0  -0.683303  0  2.311307  0  0  -0.709999  0  2.300241  0  0  -0.382625  -0.664133  0  2.318973  0
O  O53  1  0.60731403  0.57455686  0.71723710  1  0  -0.735263  0  2.061381  0  0  -0.683149  0  2.311145  0  0  -0.709861  0  2.300076  0  0  -0.382566  -0.663979  0  2.318807  0
O  O54  1  0.42333129  0.04101744  0.35638117  1  0  -0.67338  0  1.941081  0  0  -0.631388  0  2.171095  0  0  -0.655744  0  2.160744  0  0  -0.359657  -0.613879  0  2.177793  0
O  O55  1  0.57667341  0.95898611  0.64362166  1  0  -0.673469  0  1.941269  0  0  -0.631434  0  2.171238  0  0  -0.6558  0  2.160888  0  0  -0.359691  -0.613927  0  2.177937  0
O  O56  1  0.18355891  0.97282405  0.15422411  1  0  -0.710459  0  2.014975  0  0  -0.65631  0  2.23904  0  0  -0.683317  0  2.22774  0  0  -0.372027  -0.63635  0  2.246275  0
O  O57  1  0.81644118  0.02717306  0.84577409  1  0  -0.710544  0  2.014847  0  0  -0.656356  0  2.23889  0  0  -0.683379  0  2.227591  0  0  -0.372057  -0.636397  0  2.246126  0
O  O58  1  0.40708555  0.76545438  0.74745421  1  0  -0.889319  0  1.889295  0  0  -0.849927  0  2.073838  0  0  -0.867989  0  2.041934  0  0  -0.640248  -0.83597  0  2.096455  0
O  O59  1  0.59290440  0.23454621  0.25253948  1  0  -0.88924  0  1.889327  0  0  -0.849846  0  2.073907  0  0  -0.867896  0  2.042018  0  0  -0.640251  -0.835885  0  2.096471  0
O  O60  1  0.89652479  0.89602119  0.56254773  1  0  -0.887297  0  1.871697  0  0  -0.84485  0  2.061019  0  0  -0.863698  0  2.032717  0  0  -0.6323  -0.830888  0  2.081436  0
O  O61  1  0.10347044  0.10397771  0.43745325  1  0  -0.887288  0  1.871694  0  0  -0.844864  0  2.061013  0  0  -0.863699  0  2.032721  0  0  -0.632306  -0.830898  0  2.08143  0
O  O62  1  0.96617698  0.68677791  0.63497061  1  0  -0.91064  0  1.962258  0  0  -0.859003  0  2.169641  0  0  -0.879639  0  2.13569  0  0  -0.64026  -0.843218  0  2.193489  0
O  O63  1  0.03381664  0.31322088  0.36502741  1  0  -0.910604  0  1.962357  0  0  -0.859012  0  2.169648  0  0  -0.879613  0  2.135662  0  0  -0.640323  -0.84325  0  2.193546  0
O  O64  1  0.90941326  0.81479974  0.90290343  1  0  -0.908315  0  1.837042  0  0  -0.864868  0  2.017226  0  0  -0.883625  0  1.983926  0  0  -0.645779  -0.850466  0  2.040854  0
O  O65  1  0.09059091  0.18519967  0.09709788  1  0  -0.908322  0  1.837029  0  0  -0.864882  0  2.017188  0  0  -0.883629  0  1.983896  0  0  -0.645799  -0.850476  0  2.040816  0
