# generated using pymatgen
data_ZnH8C14(N2F)2
_symmetry_space_group_name_H-M   'P 1'
_cell_length_a   14.91420989
_cell_length_b   14.91243034
_cell_length_c   14.91261364
_cell_angle_alpha   97.26210960
_cell_angle_beta   115.79317271
_cell_angle_gamma   116.00501477
_symmetry_Int_Tables_number   1
_chemical_formula_structural   ZnH8C14(N2F)2
_chemical_formula_sum   'Zn4 H32 C56 N16 F8'
_cell_volume   2469.12190057
_cell_formula_units_Z   4
loop_
 _symmetry_equiv_pos_site_id
 _symmetry_equiv_pos_as_xyz
  1  'x, y, z'
loop_
 _atom_site_type_symbol
 _atom_site_label
 _atom_site_symmetry_multiplicity
 _atom_site_fract_x
 _atom_site_fract_y
 _atom_site_fract_z
 _atom_site_occupancy
 _atom_site_pbe_bader_charge
 _atom_site_pbe_bader_spin_density
 _atom_site_pbe_cm5_charge
 _atom_site_pbe_ddec_charge
 _atom_site_pbe_ddec_spin_density
 _atom_site_pbe_ddec_sum_bond_order
 _atom_site_pbe_magmom
C  C0  1  0.60738948  0.41660692  0.31776503  1  0.391066  0  0.010428  -0.046072  0  3.986499  0
C  C1  1  0.10176536  0.78573217  0.61627699  1  0.393932  0  0.009116  -0.04588  0  3.943599  0
C  C2  1  0.36719491  0.28679115  0.38113837  1  -0.05882  0  -0.087013  -0.123399  0  3.973083  0
C  C3  1  0.28278860  0.29702420  0.39113330  1  -0.039007  0  -0.084925  -0.12326  0  3.960267  0
C  C4  1  0.09445124  0.71324988  0.08050497  1  -0.054439  0  -0.08714  -0.123062  0  3.972376  0
C  C5  1  0.71722293  0.10832230  0.01420620  1  -0.053043  0  -0.084817  -0.123087  0  3.959708  0
C  C6  1  0.90551216  0.98601959  0.61878145  1  -0.05525  0  -0.087318  -0.123247  0  3.974065  0
C  C7  1  0.90573341  0.89160070  0.60878062  1  -0.051749  0  -0.085152  -0.123579  0  3.960487  0
C  C8  1  0.63280609  0.01393123  0.91953173  1  -0.065927  0  -0.087016  -0.123133  0  3.972002  0
C  C9  1  0.09416894  0.70297621  0.98582886  1  -0.055695  0  -0.08494  -0.123195  0  3.960034  0
C  C10  1  0.39254154  0.71036569  0.80916705  1  0.393716  0  0.01094  -0.04523  0  3.986923  0
C  C11  1  0.89810750  0.51446032  0.68384319  1  0.34973  0  0.009339  -0.045161  0  3.943429  0
C  C12  1  0.09872228  0.28953444  0.68210740  1  0.479568  0  0.0108  -0.045946  0  3.985593  0
C  C13  1  0.16942609  0.48558197  0.38370594  1  0.40612  0  0.009527  -0.044949  0  3.943913  0
C  C14  1  0.90127355  0.58335466  0.19081388  1  0.373059  0  0.010815  -0.045853  0  3.986096  0
C  C15  1  0.83068091  0.21429273  0.31620735  1  0.391333  0  0.009339  -0.045224  0  3.942813  0
C  C16  1  0.23938691  0.15875801  0.72113183  1  0.492268  0  0.027814  0.119185  0  3.865489  0
C  C17  1  0.64135941  0.94918393  0.18231260  1  0.480311  0  0.024277  0.114999  0  3.883848  0
C  C18  1  0.76046578  0.48183767  0.91929618  1  0.485411  0  0.028146  0.119683  0  3.864585  0
C  C19  1  0.35909659  0.54127318  0.30837083  1  0.484297  0  0.024178  0.114329  0  3.884477  0
C  C20  1  0.43783489  0.51847379  0.27904972  1  0.483456  0  0.027578  0.119197  0  3.865774  0
C  C21  1  0.76687473  0.45898826  0.81770601  1  0.493747  0  0.024188  0.114621  0  3.884665  0
C  C22  1  0.56257099  0.84114404  0.08067981  1  0.486315  0  0.028064  0.118972  0  3.86403  0
C  C23  1  0.23284240  0.05071634  0.69178133  1  0.504806  0  0.024141  0.11405  0  3.884448  0
C  C24  1  0.09626337  0.61297142  0.78509916  1  0.399398  0  0.012683  -0.039816  0  3.939949  0
C  C25  1  0.60092364  0.31409553  0.41230745  1  0.403275  0  0.009819  -0.049457  0  3.989505  0
C  C26  1  0.90360773  0.68875756  0.51660358  1  0.414813  0  0.01268  -0.040015  0  3.939437  0
C  C27  1  0.39906174  0.81138036  0.71314522  1  0.403776  0  0.009915  -0.049044  0  3.988997  0
C  C28  1  0.82793275  0.31118069  0.21490096  1  0.395069  0  0.012916  -0.03899  0  3.939433  0
C  C29  1  0.90171903  0.18857706  0.58761155  1  0.374742  0  0.009843  -0.04929  0  3.98921  0
C  C30  1  0.17213281  0.38702790  0.48335576  1  0.421903  0  0.012731  -0.039545  0  3.938621  0
C  C31  1  0.09826385  0.68590031  0.28685256  1  0.397526  0  0.009987  -0.048965  0  3.98898  0
C  C32  1  0.53891116  0.35773562  0.35575393  1  0.05035  0  -0.040938  -0.044596  0  4.11082  0
C  C33  1  0.00363876  0.79244697  0.59518248  1  0.005676  0  -0.033997  -0.036472  0  4.076737  0
C  C34  1  0.46111829  0.81682277  0.81879696  1  0.079909  0  -0.040883  -0.044811  0  4.110331  0
C  C35  1  0.99623225  0.59150713  0.78872845  1  0.023066  0  -0.03392  -0.036796  0  4.076898  0
C  C36  1  0.00186404  0.18307611  0.64416274  1  0.035002  0  -0.040849  -0.044345  0  4.111884  0
C  C37  1  0.19728160  0.40856639  0.40480782  1  -0.007649  0  -0.03399  -0.036552  0  4.076666  0
C  C38  1  0.99809098  0.64231076  0.18119372  1  0.069309  0  -0.041115  -0.045005  0  4.111343  0
C  C39  1  0.80285259  0.20751930  0.21131425  1  0.013646  0  -0.033677  -0.036973  0  4.076145  0
C  C40  1  0.10867728  0.99382760  0.66956801  1  -0.09493  0  -0.021994  -0.054181  0  3.94002  0
C  C41  1  0.59395538  0.91176489  0.02096060  1  -0.001381  0  -0.020412  -0.053239  0  3.938379  0
C  C42  1  0.89112562  0.56090128  0.88502321  1  -0.080133  0  -0.021675  -0.053831  0  3.938932  0
C  C43  1  0.40629218  0.42721068  0.31807638  1  -0.039234  0  -0.01998  -0.053112  0  3.939354  0
C  C44  1  0.32435560  0.43925854  0.33049551  1  -0.045197  0  -0.022655  -0.055014  0  3.940959  0
C  C45  1  0.89081044  0.57293790  0.97904465  1  -0.048573  0  -0.0202  -0.052886  0  3.937604  0
C  C46  1  0.67594026  0.00610307  0.11497833  1  -0.070877  0  -0.021911  -0.054019  0  3.939693  0
C  C47  1  0.10906622  0.08820341  0.68197450  1  -0.002051  0  -0.020076  -0.053297  0  3.939058  0
C  C48  1  0.00703270  0.89028992  0.62913814  1  0.048387  0  -0.003388  0.068215  0  4.041278  0
C  C49  1  0.56262820  0.91119149  0.91764361  1  0.006232  0  -0.006198  0.062535  0  4.055887  0
C  C50  1  0.99282869  0.62208631  0.88318372  1  0.061427  0  -0.003467  0.06753  0  4.041336  0
C  C51  1  0.43747713  0.35512445  0.34869362  1  0.046905  0  -0.006048  0.062928  0  4.056757  0
C  C52  1  0.26116955  0.37801656  0.37084386  1  0.03569  0  -0.003172  0.06796  0  4.041547  0
C  C53  1  0.99359693  0.64496652  0.08235728  1  0.072036  0  -0.006098  0.062137  0  4.057029  0
C  C54  1  0.73899128  0.10965338  0.11686670  1  0.075558  0  -0.003492  0.067653  0  4.041407  0
C  C55  1  0.00631634  0.08872673  0.65127309  1  0.001513  0  -0.00615  0.062214  0  4.058923  0
F  F56  1  0.26757797  0.22233941  0.66296537  1  -0.641135  0  -0.158621  -0.213622  0  1.242417  0
F  F57  1  0.73276119  0.95644619  0.27596346  1  -0.637707  0  -0.158904  -0.209113  0  1.242341  0
F  F58  1  0.73221305  0.39548767  0.95468750  1  -0.637838  0  -0.158631  -0.213879  0  1.242161  0
F  F59  1  0.26773335  0.54355700  0.22424589  1  -0.637454  0  -0.158129  -0.208484  0  1.243313  0
F  F60  1  0.55960158  0.60474537  0.33733860  1  -0.634882  0  -0.158452  -0.213228  0  1.243761  0
F  F61  1  0.68043622  0.45667080  0.72403303  1  -0.636036  0  -0.158755  -0.208935  0  1.242353  0
F  F62  1  0.44084614  0.77752637  0.04525027  1  -0.636172  0  -0.158551  -0.213548  0  1.242337  0
F  F63  1  0.31926933  0.04348521  0.77592515  1  -0.636815  0  -0.158309  -0.20851  0  1.242425  0
H  H64  1  0.59443021  0.46528014  0.27132053  1  0.109163  0  0.11564  0.106341  0  1.00932  0
H  H65  1  0.19669614  0.84605688  0.67363289  1  0.116796  0  0.113334  0.106075  0  1.028457  0
H  H66  1  0.40551787  0.67691697  0.87082158  1  0.093315  0  0.115409  0.105945  0  1.009805  0
H  H67  1  0.80317122  0.47685550  0.64920306  1  0.146934  0  0.113102  0.10559  0  1.028887  0
H  H68  1  0.19383393  0.32300202  0.72856896  1  0.066431  0  0.11547  0.106109  0  1.009133  0
H  H69  1  0.17239903  0.52318133  0.32636081  1  0.106247  0  0.113127  0.10564  0  1.028785  0
H  H70  1  0.80617463  0.53468422  0.12915332  1  0.109491  0  0.11546  0.106109  0  1.009326  0
H  H71  1  0.82769600  0.15398211  0.35084932  1  0.122926  0  0.113081  0.105677  0  1.028602  0
H  H72  1  0.30269221  0.21189194  0.80768311  1  0.102003  0  0.10822  0.074485  0  0.949667  0
H  H73  1  0.58869772  0.96710933  0.20583799  1  0.092894  0  0.10696  0.072138  0  0.952483  0
H  H74  1  0.69724417  0.50517216  0.90920797  1  0.088658  0  0.108091  0.074261  0  0.94902  0
H  H75  1  0.41177480  0.61735015  0.37909327  1  0.102633  0  0.106701  0.072299  0  0.952421  0
H  H76  1  0.40446136  0.49526194  0.19248269  1  0.098563  0  0.108251  0.074062  0  0.949349  0
H  H77  1  0.76125205  0.38278045  0.79415884  1  0.090079  0  0.106772  0.072005  0  0.952508  0
H  H78  1  0.59600663  0.78799320  0.09073665  1  0.09578  0  0.108108  0.074338  0  0.948744  0
H  H79  1  0.23827967  0.03269051  0.62110879  1  0.098308  0  0.106862  0.072468  0  0.952284  0
H  H80  1  0.19085979  0.66673298  0.84815018  1  0.129434  0  0.118807  0.109754  0  1.010139  0
H  H81  1  0.58219755  0.26472997  0.45735458  1  0.063988  0  0.117346  0.103742  0  0.996168  0
H  H82  1  0.80897768  0.65712379  0.47572307  1  0.117972  0  0.118676  0.109599  0  1.010363  0
H  H83  1  0.41783700  0.87519199  0.68255350  1  0.068602  0  0.1173  0.103597  0  0.99629  0
H  H84  1  0.81863183  0.34271596  0.15183218  1  0.113212  0  0.118683  0.109487  0  1.010165  0
H  H85  1  0.80729722  0.12483347  0.54258419  1  0.068942  0  0.117277  0.103553  0  0.996372  0
H  H86  1  0.18139382  0.33326567  0.52423196  1  0.120375  0  0.11869  0.109503  0  1.010135  0
H  H87  1  0.19267234  0.73529456  0.31748236  1  0.069244  0  0.117225  0.103447  0  0.996368  0
H  H88  1  0.82230463  0.81537205  0.57937023  1  0.07726  0  0.103955  0.106984  0  0.994199  0
H  H89  1  0.61849005  0.02086187  0.84313624  1  0.068879  0  0.100192  0.099289  0  0.998016  0
H  H90  1  0.17758345  0.75692510  0.99298293  1  0.074684  0  0.103853  0.106809  0  0.994098  0
H  H91  1  0.38131571  0.22458371  0.40221769  1  0.050238  0  0.100159  0.099327  0  0.998282  0
H  H92  1  0.23591559  0.24299922  0.42049193  1  0.065284  0  0.103789  0.10688  0  0.994394  0
H  H93  1  0.17778864  0.77532956  0.15688786  1  0.056537  0  0.100294  0.099462  0  0.997564  0
H  H94  1  0.76403332  0.18460315  0.00709004  1  0.081997  0  0.103703  0.106653  0  0.994569  0
H  H95  1  0.82221207  0.97904870  0.59763008  1  0.063526  0  0.100395  0.099475  0  0.998042  0
N  N96  1  0.70159114  0.40843639  0.34890783  1  -0.798275  0  -0.272701  -0.175113  0  3.542599  0
N  N97  1  0.06220332  0.68680934  0.55330828  1  -0.772554  0  -0.281407  -0.181249  0  3.630314  0
N  N98  1  0.29827701  0.64734716  0.70682296  1  -0.812915  0  -0.273171  -0.175546  0  3.543493  0
N  N99  1  0.93768348  0.49106134  0.62449856  1  -0.77584  0  -0.281489  -0.181466  0  3.62965  0
N  N100  1  0.05940952  0.35259636  0.65094079  1  -0.80367  0  -0.272784  -0.17497  0  3.545445  0
N  N101  1  0.13340843  0.50892553  0.44663333  1  -0.778416  0  -0.281616  -0.181666  0  3.628459  0
N  N102  1  0.94060554  0.59145570  0.29317260  1  -0.797927  0  -0.272975  -0.175103  0  3.545434  0
N  N103  1  0.86659715  0.31320574  0.37553121  1  -0.782765  0  -0.281444  -0.181181  0  3.627828  0
N  N104  1  0.05921809  0.55144221  0.68669663  1  -0.809251  0  -0.281  -0.179943  0  3.629134  0
N  N105  1  0.69794820  0.34471381  0.40815930  1  -0.780566  0  -0.272213  -0.175904  0  3.541097  0
N  N106  1  0.94067395  0.62741741  0.49211815  1  -0.81171  0  -0.280964  -0.179932  0  3.629127  0
N  N107  1  0.30193693  0.71024023  0.64673653  1  -0.788751  0  -0.272382  -0.176188  0  3.541154  0
N  N108  1  0.86477843  0.37257039  0.31327263  1  -0.805975  0  -0.281257  -0.180606  0  3.627618  0
N  N109  1  0.93652832  0.28976931  0.59174380  1  -0.781289  0  -0.27235  -0.17585  0  3.542704  0
N  N110  1  0.13521543  0.44851203  0.50783791  1  -0.807413  0  -0.280926  -0.180111  0  3.627114  0
N  N111  1  0.06349188  0.65517033  0.35323662  1  -0.783777  0  -0.2724  -0.175839  0  3.54288  0
Zn  Zn112  1  0.85622921  0.49996796  0.35622565  1  1.190647  0  0.747105  0.61448  0  2.445438  0
Zn  Zn113  1  0.14762684  0.64766609  0.50001061  1  1.188015  0  0.742905  0.602175  0  2.470952  0
Zn  Zn114  1  0.14367686  0.49996801  0.64373974  1  1.19302  0  0.747203  0.614654  0  2.445268  0
Zn  Zn115  1  0.85225427  0.35228048  0.49998722  1  1.186664  0  0.74263  0.601891  0  2.470305  0
