# generated using pymatgen
data_ZnH6C8O5
_symmetry_space_group_name_H-M   'P 1'
_cell_length_a   5.89728694
_cell_length_b   8.59263288
_cell_length_c   16.93887226
_cell_angle_alpha   90.00089250
_cell_angle_beta   90.00025862
_cell_angle_gamma   90.00141109
_symmetry_Int_Tables_number   1
_chemical_formula_structural   ZnH6C8O5
_chemical_formula_sum   'Zn4 H24 C32 O20'
_cell_volume   858.34722746
_cell_formula_units_Z   4
loop_
 _symmetry_equiv_pos_site_id
 _symmetry_equiv_pos_as_xyz
  1  'x, y, z'
loop_
 _atom_site_type_symbol
 _atom_site_label
 _atom_site_symmetry_multiplicity
 _atom_site_fract_x
 _atom_site_fract_y
 _atom_site_fract_z
 _atom_site_occupancy
 _atom_site_hle17_bader_spin_density
 _atom_site_hle17_ddec_charge
 _atom_site_hle17_ddec_spin_density
 _atom_site_hle17_ddec_sum_bond_order
 _atom_site_hle17_magmom
 _atom_site_hse06_10hf_bader_spin_density
 _atom_site_hse06_10hf_ddec_charge
 _atom_site_hse06_10hf_ddec_spin_density
 _atom_site_hse06_10hf_ddec_sum_bond_order
 _atom_site_hse06_10hf_magmom
 _atom_site_hse06_bader_spin_density
 _atom_site_hse06_ddec_charge
 _atom_site_hse06_ddec_spin_density
 _atom_site_hse06_ddec_sum_bond_order
 _atom_site_hse06_magmom
 _atom_site_pbe_bader_spin_density
 _atom_site_pbe_cm5_charge
 _atom_site_pbe_ddec_charge
 _atom_site_pbe_ddec_spin_density
 _atom_site_pbe_ddec_sum_bond_order
 _atom_site_pbe_magmom
Zn  Zn0  1  0.41094656  0.84213095  0.68538045  1  0  1.171292  0  1.710597  0  0  0.99889  0  2.187702  0  0  1.049381  0  2.122604  0  0  0.688824  0.963179  0  2.232779  0
Zn  Zn1  1  0.58904678  0.15786816  0.18538424  1  0  1.171378  0  1.710567  0  0  0.998922  0  2.187707  0  0  1.049414  0  2.122605  0  0  0.688832  0.963214  0  2.232787  0
Zn  Zn2  1  0.41095150  0.65786758  0.18538600  1  0  1.17134  0  1.710402  0  0  0.998848  0  2.187516  0  0  1.049343  0  2.12242  0  0  0.688815  0.963139  0  2.232593  0
Zn  Zn3  1  0.58905540  0.34213618  0.68539109  1  0  1.17137  0  1.710397  0  0  0.998904  0  2.187532  0  0  1.049398  0  2.122429  0  0  0.688854  0.963195  0  2.232612  0
H  H4  1  0.51357134  0.84425016  0.94250806  1  0  0.112165  0  0.938934  0  0  0.120553  0  1.001953  0  0  0.124052  0  0.999537  0  0  0.111691  0.117802  0  1.004187  0
H  H5  1  0.48641606  0.15574306  0.44251636  1  0  0.112098  0  0.93896  0  0  0.120485  0  1.001979  0  0  0.123983  0  0.999561  0  0  0.111631  0.117732  0  1.004212  0
H  H6  1  0.51358806  0.65572733  0.44251242  1  0  0.112157  0  0.93889  0  0  0.120534  0  1.001938  0  0  0.124036  0  0.999516  0  0  0.111627  0.117779  0  1.004167  0
H  H7  1  0.48640783  0.34425076  0.94251555  1  0  0.112205  0  0.938846  0  0  0.120589  0  1.001871  0  0  0.124087  0  0.999454  0  0  0.111702  0.117838  0  1.0041  0
H  H8  1  0.10601863  0.05429514  0.83870196  1  0  0.101042  0  0.942133  0  0  0.111046  0  1.00245  0  0  0.114565  0  0.999727  0  0  0.105194  0.108497  0  1.004388  0
H  H9  1  0.89397623  0.94570878  0.33870534  1  0  0.101023  0  0.942238  0  0  0.111035  0  1.002534  0  0  0.11455  0  0.999815  0  0  0.105205  0.108484  0  1.004472  0
H  H10  1  0.10603914  0.44570516  0.33871268  1  0  0.101007  0  0.942237  0  0  0.111015  0  1.002529  0  0  0.114524  0  0.999816  0  0  0.105207  0.108469  0  1.004464  0
H  H11  1  0.89398284  0.55431041  0.83872059  1  0  0.101029  0  0.942249  0  0  0.110997  0  1.002614  0  0  0.114511  0  0.999892  0  0  0.105165  0.108446  0  1.00455  0
H  H12  1  0.26145809  0.10483327  0.97333169  1  0  0.098629  0  0.975712  0  0  0.105138  0  1.041182  0  0  0.107908  0  1.041015  0  0  0.100841  0.102967  0  1.041874  0
H  H13  1  0.73853301  0.89516441  0.47332966  1  0  0.098724  0  0.976027  0  0  0.105238  0  1.041436  0  0  0.108005  0  1.041277  0  0  0.10089  0.103066  0  1.042127  0
H  H14  1  0.26146261  0.39516600  0.47334085  1  0  0.098762  0  0.975902  0  0  0.105297  0  1.0413  0  0  0.108069  0  1.041133  0  0  0.100895  0.103125  0  1.041994  0
H  H15  1  0.73854884  0.60482703  0.97335238  1  0  0.098424  0  0.976219  0  0  0.105108  0  1.04146  0  0  0.107881  0  1.04129  0  0  0.100805  0.102935  0  1.042154  0
H  H16  1  0.04595440  0.02525472  0.09126360  1  0  0.105711  0  0.951705  0  0  0.115291  0  1.013774  0  0  0.118283  0  1.011862  0  0  0.107027  0.113172  0  1.015075  0
H  H17  1  0.95403800  0.97474260  0.59126188  1  0  0.105732  0  0.951803  0  0  0.115359  0  1.013802  0  0  0.118352  0  1.011889  0  0  0.107072  0.11324  0  1.015102  0
H  H18  1  0.04594228  0.47473249  0.59127087  1  0  0.105681  0  0.951746  0  0  0.115273  0  1.013805  0  0  0.118266  0  1.011891  0  0  0.107028  0.113153  0  1.015105  0
H  H19  1  0.95409082  0.52525552  0.09127881  1  0  0.105654  0  0.95175  0  0  0.115273  0  1.013803  0  0  0.118265  0  1.011889  0  0  0.106961  0.113155  0  1.015104  0
H  H20  1  0.99029692  0.80416484  0.71122320  1  0  0.432377  0  0.869599  0  0  0.400829  0  0.933979  0  0  0.410941  0  0.919429  0  0  0.297072  0.393712  0  0.944207  0
H  H21  1  0.00970175  0.19582810  0.21122852  1  0  0.432513  0  0.869421  0  0  0.400901  0  0.933917  0  0  0.411014  0  0.919362  0  0  0.29708  0.393784  0  0.944146  0
H  H22  1  0.99028674  0.69584560  0.21121842  1  0  0.432581  0  0.869315  0  0  0.400987  0  0.93377  0  0  0.4111  0  0.919217  0  0  0.297124  0.393873  0  0.943995  0
H  H23  1  0.00970515  0.30416363  0.71123862  1  0  0.432444  0  0.869534  0  0  0.400865  0  0.93395  0  0  0.410978  0  0.919397  0  0  0.297116  0.393748  0  0.944178  0
H  H24  1  0.11095452  0.63165174  0.71311791  1  0  0.439031  0  0.859043  0  0  0.406684  0  0.92442  0  0  0.41729  0  0.909173  0  0  0.297843  0.39919  0  0.935181  0
H  H25  1  0.88903909  0.36834474  0.21312037  1  0  0.439054  0  0.858999  0  0  0.406716  0  0.924373  0  0  0.417322  0  0.909127  0  0  0.297812  0.399222  0  0.935135  0
H  H26  1  0.11097301  0.86835946  0.21311446  1  0  0.438996  0  0.859109  0  0  0.406677  0  0.924451  0  0  0.417284  0  0.909203  0  0  0.297808  0.399182  0  0.935213  0
H  H27  1  0.88903417  0.13164401  0.71312618  1  0  0.438941  0  0.859182  0  0  0.406685  0  0.924426  0  0  0.417292  0  0.909179  0  0  0.297876  0.39919  0  0.935188  0
C  C28  1  0.64843983  0.86501005  0.09513899  1  0  0.682141  0  3.847788  0  0  0.629758  0  4.132483  0  0  0.666287  0  4.123931  0  0  0.226884  0.604846  0  4.1376  0
C  C29  1  0.35155770  0.13500368  0.59514202  1  0  0.682136  0  3.847902  0  0  0.629675  0  4.132655  0  0  0.666204  0  4.124105  0  0  0.226778  0.604764  0  4.13777  0
C  C30  1  0.64842998  0.63498131  0.59513951  1  0  0.682218  0  3.847588  0  0  0.629871  0  4.13221  0  0  0.666396  0  4.123661  0  0  0.226898  0.604961  0  4.137323  0
C  C31  1  0.35158450  0.36500915  0.09514327  1  0  0.682306  0  3.847738  0  0  0.629696  0  4.132734  0  0  0.666224  0  4.124186  0  0  0.226774  0.604787  0  4.137853  0
C  C32  1  0.76536261  0.93003040  0.02466359  1  0  -0.079925  0  3.764518  0  0  -0.052562  0  3.997828  0  0  -0.063437  0  4.021232  0  0  -0.014653  -0.04554  0  3.982104  0
C  C33  1  0.23461896  0.06997646  0.52466471  1  0  -0.080065  0  3.76462  0  0  -0.052568  0  3.997783  0  0  -0.06345  0  4.021199  0  0  -0.014584  -0.045548  0  3.982055  0
C  C34  1  0.76536489  0.56995538  0.52466361  1  0  -0.080109  0  3.764795  0  0  -0.05261  0  3.997906  0  0  -0.063483  0  4.02131  0  0  -0.014755  -0.045588  0  3.982177  0
C  C35  1  0.23465228  0.43003286  0.02466646  1  0  -0.07996  0  3.764404  0  0  -0.052521  0  3.997762  0  0  -0.063394  0  4.02117  0  0  -0.014707  -0.0455  0  3.98203  0
C  C36  1  0.67570160  0.90352637  0.94939733  1  0  -0.054194  0  3.684147  0  0  -0.091043  0  3.930231  0  0  -0.086916  0  3.948386  0  0  -0.068254  -0.093471  0  3.918259  0
C  C37  1  0.32429436  0.09646823  0.44940310  1  0  -0.054109  0  3.684215  0  0  -0.090991  0  3.930235  0  0  -0.086861  0  3.948389  0  0  -0.068221  -0.093415  0  3.91826  0
C  C38  1  0.67571715  0.59646711  0.44940182  1  0  -0.054122  0  3.684217  0  0  -0.091003  0  3.93028  0  0  -0.086877  0  3.948432  0  0  -0.068178  -0.093427  0  3.918304  0
C  C39  1  0.32430254  0.40353447  0.94940392  1  0  -0.054172  0  3.684413  0  0  -0.091169  0  3.930376  0  0  -0.087047  0  3.94853  0  0  -0.068256  -0.093595  0  3.918406  0
C  C40  1  0.79597975  0.95095615  0.88237782  1  0  -0.086978  0  3.77519  0  0  -0.060109  0  4.008722  0  0  -0.071649  0  4.033761  0  0  -0.021286  -0.05268  0  3.991697  0
C  C41  1  0.20400875  0.04903286  0.38238181  1  0  -0.087063  0  3.775501  0  0  -0.060189  0  4.008992  0  0  -0.071727  0  4.034026  0  0  -0.02129  -0.052764  0  3.991971  0
C  C42  1  0.79598793  0.54900979  0.38238018  1  0  -0.086995  0  3.775367  0  0  -0.060208  0  4.009041  0  0  -0.071748  0  4.034069  0  0  -0.021284  -0.052776  0  3.992023  0
C  C43  1  0.20401245  0.45099085  0.88238890  1  0  -0.087206  0  3.776119  0  0  -0.059906  0  4.009063  0  0  -0.071439  0  4.034097  0  0  -0.02113  -0.052479  0  3.992042  0
C  C44  1  0.00859706  0.02270790  0.89097618  1  0  -0.038532  0  3.694389  0  0  -0.06701  0  3.942082  0  0  -0.064107  0  3.96143  0  0  -0.072785  -0.068435  0  3.928655  0
C  C45  1  0.99140171  0.97728836  0.39097645  1  0  -0.038458  0  3.694347  0  0  -0.066958  0  3.942035  0  0  -0.064049  0  3.961376  0  0  -0.072787  -0.068383  0  3.92861  0
C  C46  1  0.00859705  0.47728132  0.39098183  1  0  -0.038523  0  3.694652  0  0  -0.067006  0  3.942389  0  0  -0.064091  0  3.961724  0  0  -0.072822  -0.068439  0  3.92897  0
C  C47  1  0.99141697  0.52272890  0.89099087  1  0  -0.038425  0  3.694842  0  0  -0.067047  0  3.942485  0  0  -0.064139  0  3.961832  0  0  -0.072863  -0.068465  0  3.929045  0
C  C48  1  0.09645205  0.05009698  0.96597723  1  0  -0.070446  0  3.744141  0  0  -0.080393  0  3.996641  0  0  -0.086375  0  4.019684  0  0  -0.08622  -0.076589  0  3.981339  0
C  C49  1  0.90352542  0.94990279  0.46597830  1  0  -0.07053  0  3.743876  0  0  -0.080483  0  3.996426  0  0  -0.086463  0  4.019455  0  0  -0.08624  -0.076679  0  3.981123  0
C  C50  1  0.09646768  0.44990023  0.46598327  1  0  -0.070619  0  3.744281  0  0  -0.08059  0  3.996778  0  0  -0.086577  0  4.01982  0  0  -0.086262  -0.076783  0  3.981474  0
C  C51  1  0.90355387  0.55010071  0.96599470  1  0  -0.070165  0  3.74406  0  0  -0.08024  0  3.996529  0  0  -0.086222  0  4.019565  0  0  -0.086009  -0.076439  0  3.98123  0
C  C52  1  0.97465018  0.00574689  0.03284495  1  0  -0.030896  0  3.667661  0  0  -0.058334  0  3.91192  0  0  -0.055278  0  3.930866  0  0  -0.069726  -0.060026  0  3.898927  0
C  C53  1  0.02531790  0.99428467  0.53284925  1  0  -0.030877  0  3.667505  0  0  -0.058382  0  3.911751  0  0  -0.055325  0  3.930694  0  0  -0.069856  -0.060073  0  3.898757  0
C  C54  1  0.97465765  0.49424763  0.53285120  1  0  -0.030733  0  3.667449  0  0  -0.058201  0  3.911655  0  0  -0.055147  0  3.930601  0  0  -0.06967  -0.059889  0  3.898657  0
C  C55  1  0.02536469  0.50574553  0.03286249  1  0  -0.030925  0  3.66721  0  0  -0.058432  0  3.911486  0  0  -0.055377  0  3.930432  0  0  -0.069808  -0.060122  0  3.898493  0
C  C56  1  0.70440254  0.91746639  0.80236165  1  0  0.661169  0  3.879992  0  0  0.609593  0  4.165047  0  0  0.64455  0  4.157851  0  0  0.219837  0.585925  0  4.169123  0
C  C57  1  0.29558009  0.08253290  0.30236607  1  0  0.661029  0  3.880239  0  0  0.609484  0  4.165181  0  0  0.644442  0  4.157989  0  0  0.21984  0.585818  0  4.169257  0
C  C58  1  0.70442759  0.58252976  0.30236899  1  0  0.661373  0  3.879658  0  0  0.609772  0  4.164696  0  0  0.644732  0  4.157497  0  0  0.220011  0.586103  0  4.168778  0
C  C59  1  0.29557708  0.41748931  0.80237409  1  0  0.661285  0  3.879999  0  0  0.609545  0  4.165018  0  0  0.644502  0  4.157825  0  0  0.219934  0.585877  0  4.169094  0
O  O60  1  0.55185829  0.73272280  0.08665199  1  0  -0.624426  0  2.04381  0  0  -0.548732  0  2.305802  0  0  -0.579363  0  2.292634  0  0  -0.299957  -0.527336  0  2.314199  0
O  O61  1  0.44813915  0.26727670  0.58665859  1  0  -0.624287  0  2.044379  0  0  -0.548544  0  2.306354  0  0  -0.57917  0  2.293179  0  0  -0.299786  -0.527144  0  2.314733  0
O  O62  1  0.55187008  0.76727303  0.58664881  1  0  -0.624421  0  2.043696  0  0  -0.548815  0  2.305741  0  0  -0.579445  0  2.292572  0  0  -0.29993  -0.527407  0  2.314104  0
O  O63  1  0.44812736  0.23271599  0.08665114  1  0  -0.624486  0  2.044083  0  0  -0.548706  0  2.306148  0  0  -0.57934  0  2.292982  0  0  -0.29982  -0.527286  0  2.314485  0
O  O64  1  0.65091754  0.93397135  0.16201089  1  0  -0.670808  0  2.070211  0  0  -0.599835  0  2.3506  0  0  -0.628007  0  2.331169  0  0  -0.322975  -0.580181  0  2.36348  0
O  O65  1  0.34906709  0.06603052  0.66201633  1  0  -0.670918  0  2.0699  0  0  -0.599927  0  2.350293  0  0  -0.628101  0  2.330866  0  0  -0.323028  -0.580271  0  2.363168  0
O  O66  1  0.65092133  0.56604657  0.66201796  1  0  -0.670797  0  2.070093  0  0  -0.599839  0  2.350448  0  0  -0.628012  0  2.331021  0  0  -0.322954  -0.580189  0  2.363324  0
O  O67  1  0.34911247  0.43395064  0.16201870  1  0  -0.670862  0  2.070142  0  0  -0.599758  0  2.350512  0  0  -0.627929  0  2.331086  0  0  -0.322905  -0.580106  0  2.363388  0
O  O68  1  0.50877541  0.85318341  0.79705626  1  0  -0.623965  0  2.015195  0  0  -0.553446  0  2.275298  0  0  -0.582926  0  2.260443  0  0  -0.310931  -0.532909  0  2.284814  0
O  O69  1  0.49119868  0.14682270  0.29705506  1  0  -0.623841  0  2.014999  0  0  -0.553371  0  2.275118  0  0  -0.582853  0  2.260273  0  0  -0.310926  -0.532837  0  2.284633  0
O  O70  1  0.50880357  0.64681041  0.29705523  1  0  -0.624044  0  2.014849  0  0  -0.553472  0  2.274907  0  0  -0.582956  0  2.26006  0  0  -0.310994  -0.532935  0  2.284424  0
O  O71  1  0.49120614  0.35321083  0.79705431  1  0  -0.624041  0  2.014759  0  0  -0.553482  0  2.274895  0  0  -0.58296  0  2.260038  0  0  -0.311057  -0.532946  0  2.28441  0
O  O72  1  0.82275066  0.94999628  0.74113645  1  0  -0.683281  0  2.043509  0  0  -0.616336  0  2.270942  0  0  -0.641155  0  2.25723  0  0  -0.318004  -0.599049  0  2.279974  0
O  O73  1  0.17722796  0.04998247  0.24114157  1  0  -0.683299  0  2.043918  0  0  -0.616228  0  2.271228  0  0  -0.641047  0  2.257515  0  0  -0.317985  -0.598942  0  2.280261  0
O  O74  1  0.82278602  0.54998181  0.24114294  1  0  -0.683519  0  2.043622  0  0  -0.616379  0  2.270911  0  0  -0.641197  0  2.257193  0  0  -0.31805  -0.599091  0  2.279947  0
O  O75  1  0.17720957  0.45001789  0.74115278  1  0  -0.683373  0  2.043998  0  0  -0.616272  0  2.271367  0  0  -0.641089  0  2.257651  0  0  -0.317992  -0.598984  0  2.280401  0
O  O76  1  0.10950032  0.73637127  0.68748437  1  0  -0.840092  0  1.929236  0  0  -0.770024  0  2.150848  0  0  -0.794089  0  2.115088  0  0  -0.570477  -0.753127  0  2.175584  0
O  O77  1  0.89050321  0.26362208  0.18748898  1  0  -0.840242  0  1.929054  0  0  -0.770143  0  2.15062  0  0  -0.794209  0  2.114858  0  0  -0.570451  -0.753247  0  2.175357  0
O  O78  1  0.10950019  0.76363678  0.18748189  1  0  -0.840203  0  1.928955  0  0  -0.770163  0  2.150579  0  0  -0.794231  0  2.114815  0  0  -0.570496  -0.753265  0  2.175315  0
O  O79  1  0.89050165  0.23636821  0.68749678  1  0  -0.840086  0  1.929167  0  0  -0.770106  0  2.150803  0  0  -0.794176  0  2.115041  0  0  -0.570588  -0.753209  0  2.175539  0
