# generated using pymatgen
data_CdCuH14C8Br4(N4O)3
_symmetry_space_group_name_H-M   'P 1'
_cell_length_a   10.50920401
_cell_length_b   10.50941672
_cell_length_c   13.13841728
_cell_angle_alpha   66.87286439
_cell_angle_beta   81.74133472
_cell_angle_gamma   109.23269591
_symmetry_Int_Tables_number   1
_chemical_formula_structural   CdCuH14C8Br4(N4O)3
_chemical_formula_sum   'Cd2 Cu2 H28 C16 Br8 N24 O6'
_cell_volume   1196.08045807
_cell_formula_units_Z   2
loop_
 _symmetry_equiv_pos_site_id
 _symmetry_equiv_pos_as_xyz
  1  'x, y, z'
loop_
 _atom_site_type_symbol
 _atom_site_label
 _atom_site_symmetry_multiplicity
 _atom_site_fract_x
 _atom_site_fract_y
 _atom_site_fract_z
 _atom_site_occupancy
 _atom_site_pbe_bader_charge
 _atom_site_pbe_bader_spin_density
 _atom_site_pbe_cm5_charge
 _atom_site_pbe_ddec_charge
 _atom_site_pbe_ddec_spin_density
 _atom_site_pbe_ddec_sum_bond_order
 _atom_site_pbe_magmom
Cd  Cd0  1  0.63057675  0.37102749  0.77247263  1  0.962378  -4e-06  0.434741  0.692159  1.7e-05  2.560537  0.0
Cd  Cd1  1  0.85651269  0.09691941  0.27249328  1  0.960685  -4e-06  0.434248  0.691114  2.1e-05  2.561523  0.0
Cu  Cu2  1  0.72087744  0.80379619  0.96750169  1  1.098838  0.598272  0.816631  0.707042  0.745052  2.386815  0.596
Cu  Cu3  1  0.22871440  0.81161529  0.46749961  1  1.10072  0.598328  0.815542  0.706086  0.745081  2.387406  0.596
H  H4  1  0.87344264  0.58809314  0.90834909  1  0.608468  -8.2e-05  0.271319  0.366012  -3.4e-05  0.968779  0.0
H  H5  1  0.50355599  0.71818883  0.40833950  1  0.609841  -8.3e-05  0.271022  0.366383  -3.4e-05  0.968504  0.0
H  H6  1  0.97803818  0.76372096  0.85573366  1  0.631636  8e-06  0.313597  0.39817  4.7e-05  0.897881  0.0
H  H7  1  0.38054690  0.66621181  0.35572357  1  0.626548  8e-06  0.313176  0.398272  4.5e-05  0.89815  0.0
H  H8  1  0.61450207  0.94866256  0.08139008  1  0.649713  -7.2e-05  0.276435  0.390492  -5.9e-05  0.946629  0.0
H  H9  1  0.96995030  0.80410219  0.58139610  1  0.640264  -7.2e-05  0.276574  0.390512  -5.9e-05  0.946487  0.0
H  H10  1  0.53952295  0.96086077  0.98187694  1  0.615219  -0.000108  0.254608  0.361123  -7.1e-05  0.984216  0.0
H  H11  1  0.05727145  0.97860119  0.48187729  1  0.608326  -0.000111  0.254884  0.362565  -7.2e-05  0.982328  0.0
H  H12  1  0.81869750  0.15974397  0.87131900  1  0.235371  0.000146  0.134957  0.12535  -6.3e-05  1.039767  0.0
H  H13  1  0.96894626  0.80998735  0.37130944  1  0.22543  0.000146  0.135226  0.125477  -6.2e-05  1.038568  0.0
H  H14  1  0.23985390  0.19391495  0.78499132  1  0.20584  0.000786  0.129312  0.125481  0.000402  1.028935  0.001
H  H15  1  0.02110348  0.47515811  0.28499067  1  0.218453  0.000773  0.129253  0.125052  0.000401  1.027663  0.001
H  H16  1  0.09379659  0.42927941  0.89959050  1  0.197384  0.000693  0.139387  0.126515  0.000348  0.994146  0.0
H  H17  1  0.67112853  0.50661961  0.39959530  1  0.222207  0.000665  0.139349  0.127084  0.000349  0.992209  0.0
H  H18  1  0.11980584  0.44214024  0.56977427  1  0.221181  -6.5e-05  0.153371  0.136309  -0.000202  0.99448  0.0
H  H19  1  0.98808458  0.81042897  0.06976587  1  0.188743  -6.3e-05  0.153474  0.136274  -0.000201  0.994491  0.0
H  H20  1  0.47852493  0.81114495  0.83905066  1  0.225299  3.2e-05  0.148052  0.132086  -0.000116  1.011554  0.0
H  H21  1  0.34981411  0.18242532  0.33904390  1  0.236068  2e-05  0.147373  0.132019  -0.000125  1.011724  0.0
H  H22  1  0.83255793  0.10357501  0.52701117  1  0.20715  0.000649  0.121947  0.116799  0.00034  1.048455  0.0
H  H23  1  0.36941398  0.14044247  0.02700964  1  0.238744  0.000653  0.121887  0.117024  0.000345  1.0489  0.0
H  H24  1  0.46251215  0.76823649  0.59338916  1  0.224271  0.000183  0.130299  0.12644  -6.5e-05  1.031904  0.0
H  H25  1  0.63838077  0.44411825  0.09337885  1  0.217381  0.00018  0.130559  0.126715  -6.5e-05  1.031749  0.0
H  H26  1  0.53480543  0.19963555  0.57450197  1  0.236633  0.000633  0.130158  0.120618  0.000323  1.027938  0.0
H  H27  1  0.22584889  0.39068084  0.07451178  1  0.188251  0.000655  0.129869  0.120281  0.000321  1.028644  0.0
H  H28  1  0.82768769  0.68650537  0.75620120  1  0.633116  -1e-06  0.283931  0.385938  4.5e-05  0.948627  0.0
H  H29  1  0.55729870  0.91609853  0.25620284  1  0.630538  -1e-06  0.283924  0.386678  4.6e-05  0.947802  0.0
H  H30  1  0.74492079  0.70216250  0.66241915  1  0.600066  -3e-06  0.274876  0.365269  -1.2e-05  0.959715  0.0
H  H31  1  0.63541838  0.09265310  0.16242222  1  0.599899  -3e-06  0.273841  0.364644  -1.2e-05  0.960407  0.0
C  C32  1  0.90657757  0.12829503  0.86163443  1  1.021909  -0.001343  0.176054  0.091575  -0.00223  3.875424  0.001
C  C33  1  0.01007823  0.73180092  0.36161761  1  1.016381  -0.001309  0.17335  0.098286  -0.002223  3.874516  0.001
C  C34  1  0.12449832  0.14529865  0.81603414  1  0.954912  0.003436  0.166677  0.078781  0.002606  3.875703  0.004
C  C35  1  0.03867793  0.55948260  0.31602767  1  0.952528  0.003439  0.168994  0.090478  0.0026  3.873608  0.004
C  C36  1  0.11344397  0.47608293  0.80609427  1  1.004633  0.002557  0.164817  0.08054  0.001962  3.92174  0.003
C  C37  1  0.71782245  0.58046460  0.30609893  1  0.984935  0.002639  0.16455  0.087805  0.001969  3.918675  0.003
C  C38  1  0.12675787  0.47925818  0.63597233  1  0.994802  -0.00084  0.177096  0.081768  -0.001694  3.8627  0.001
C  C39  1  0.88476746  0.73727379  0.13596632  1  1.025518  -0.00091  0.176486  0.089946  -0.001687  3.864401  0.001
C  C40  1  0.58626623  0.87774105  0.77943244  1  0.996484  -0.000715  0.171727  0.095364  -0.001634  3.882813  0.001
C  C41  1  0.34283902  0.13429818  0.27942335  1  0.996862  -0.000659  0.172156  0.087696  -0.001629  3.875995  0.001
C  C42  1  0.77026721  0.02844112  0.61860721  1  1.00939  0.003021  0.15929  0.080695  0.002318  3.92219  0.004
C  C43  1  0.35295992  0.11113789  0.11860116  1  0.959749  0.002951  0.159316  0.072345  0.002283  3.917397  0.004
C  C44  1  0.45403687  0.87537718  0.57220449  1  0.996789  -0.001237  0.170682  0.088085  -0.002079  3.887537  0.001
C  C45  1  0.55240623  0.47375872  0.07220474  1  0.993534  -0.001183  0.169959  0.086912  -0.002103  3.889213  0.001
C  C46  1  0.48883792  0.09918227  0.56300293  1  0.939163  0.003302  0.163495  0.08405  0.002536  3.903604  0.004
C  C47  1  0.33780049  0.44815003  0.06300680  1  1.01049  0.003225  0.164676  0.084974  0.002549  3.904547  0.004
Br  Br48  1  0.42721634  0.07768755  0.85722729  1  -0.644546  0.000216  -0.316595  -0.531175  3e-06  1.170611  0.0
Br  Br49  1  0.06510626  0.21559466  0.35721641  1  -0.645211  0.000213  -0.316658  -0.530961  2.1e-05  1.170506  0.0
Br  Br50  1  0.45315496  0.50061930  0.76633883  1  -0.630401  2e-05  -0.347428  -0.534109  -6.7e-05  1.188773  0.0
Br  Br51  1  0.73309164  0.28051842  0.26633029  1  -0.629393  1.9e-05  -0.348358  -0.534342  -6.6e-05  1.186797  0.0
Br  Br52  1  0.77958957  0.37380641  0.59368028  1  -0.614615  0.000333  -0.328357  -0.507774  0.000128  1.231378  0.0
Br  Br53  1  0.03248340  0.12667785  0.09370910  1  -0.612667  0.000394  -0.328204  -0.507798  0.000179  1.23391  0.0
Br  Br54  1  0.74103795  0.33175300  0.94744335  1  -0.610136  -5.6e-05  -0.272309  -0.490687  -0.000102  1.315587  0.0
Br  Br55  1  0.72080937  0.81149174  0.44744620  1  -0.609958  -9.2e-05  -0.271659  -0.490498  -0.000142  1.316612  0.0
N  N56  1  0.90228190  0.99083918  0.90250566  1  -0.766907  0.085163  -0.255956  -0.163018  0.056306  3.615049  0.075
N  N57  1  0.10666796  0.69521995  0.40249674  1  -0.75971  0.085164  -0.253287  -0.159842  0.056261  3.60765  0.075
N  N58  1  0.03733399  0.99953794  0.87409070  1  -0.674506  0.01055  -0.212797  -0.185946  0.006214  3.216917  0.007
N  N59  1  0.12637465  0.58857647  0.37408972  1  -0.682394  0.010548  -0.214707  -0.188661  0.006216  3.213351  0.007
N  N60  1  0.04556804  0.22928323  0.80498901  1  -0.86337  0.002778  -0.113216  0.096587  0.00163  3.71681  0.002
N  N61  1  0.96574121  0.64945817  0.30497904  1  -0.844637  0.002777  -0.11345  0.079558  0.001634  3.752448  0.002
N  N62  1  0.15686517  0.61861482  0.72755880  1  -0.693404  0.007694  -0.22047  -0.176085  0.004281  3.152402  0.005
N  N63  1  0.65382397  0.61557480  0.22756679  1  -0.689402  0.007674  -0.219436  -0.174936  0.004289  3.148442  0.005
N  N64  1  0.16561964  0.61953874  0.62107704  1  -0.754869  0.081215  -0.244511  -0.161963  0.053812  3.545636  0.073
N  N65  1  0.75938058  0.71329662  0.12108318  1  -0.734833  0.081269  -0.244856  -0.161906  0.053792  3.544104  0.073
N  N66  1  0.09374428  0.38531677  0.75216790  1  -0.846075  0.002501  -0.115511  0.095119  0.001416  3.73159  0.002
N  N67  1  0.86252111  0.65409948  0.25216743  1  -0.881417  0.002511  -0.115809  0.077564  0.001425  3.768011  0.002
N  N68  1  0.70393857  0.88736540  0.80550283  1  -0.741773  0.091784  -0.254042  -0.166576  0.06073  3.557017  0.081
N  N69  1  0.30714869  0.99056171  0.30549726  1  -0.771397  0.091616  -0.252905  -0.166975  0.060628  3.557328  0.081
N  N70  1  0.82001322  0.98190064  0.70541969  1  -0.701416  0.009318  -0.223394  -0.178666  0.005247  3.180767  0.006
N  N71  1  0.31268772  0.97457729  0.20541258  1  -0.703605  0.009459  -0.223793  -0.179833  0.005314  3.182945  0.006
N  N72  1  0.62421115  0.96542129  0.66171434  1  -0.880464  0.003251  -0.118526  0.06996  0.00191  3.780547  0.003
N  N73  1  0.37286404  0.21407779  0.16171326  1  -0.854882  0.003266  -0.1179  0.096404  0.001921  3.745365  0.003
N  N74  1  0.37068438  0.92673420  0.52003804  1  -0.754622  0.086044  -0.254873  -0.159726  0.056785  3.591173  0.076
N  N75  1  0.55321166  0.60928010  0.02004708  1  -0.748507  0.085984  -0.254643  -0.159131  0.056739  3.591012  0.076
N  N76  1  0.39185633  0.06704560  0.51328088  1  -0.680029  0.010674  -0.210821  -0.166494  0.00627  3.177287  0.007
N  N77  1  0.41965353  0.59485854  0.01328561  1  -0.704468  0.010781  -0.211513  -0.167685  0.006283  3.176997  0.007
N  N78  1  0.53054767  0.98171861  0.60060404  1  -0.850849  0.002601  -0.11465  0.081425  0.001455  3.767935  0.002
N  N79  1  0.41767134  0.36885164  0.10060370  1  -0.834831  0.002567  -0.115244  0.072692  0.001438  3.761903  0.002
O  O80  1  0.87928655  0.69257752  0.87755003  1  -1.242711  -0.001591  -0.568289  -0.760343  -0.002016  2.096827  -0.001
O  O81  1  0.42987714  0.74314972  0.37753996  1  -1.238131  -0.001584  -0.567749  -0.761082  -0.002012  2.09714  -0.001
O  O82  1  0.59949654  0.91674989  0.02041043  1  -1.290912  -0.001727  -0.614372  -0.791947  -0.001638  2.124014  0.0
O  O83  1  0.06284059  0.88008931  0.52040631  1  -1.273763  -0.001708  -0.614752  -0.793592  -0.001627  2.122053  0.0
O  O84  1  0.81534025  0.66715675  0.68906867  1  -1.231265  -7.9e-05  -0.576766  -0.724722  -6.5e-05  2.112594  0.0
O  O85  1  0.64376842  0.99557649  0.18906827  1  -1.230664  -7.9e-05  -0.575339  -0.724122  -6.4e-05  2.111844  0.0
