# generated using pymatgen
data_NdH9C5SNO9
_symmetry_space_group_name_H-M   'P 1'
_cell_length_a   6.34811292
_cell_length_b   10.38300307
_cell_length_c   17.07154887
_cell_angle_alpha   74.04262051
_cell_angle_beta   79.28346766
_cell_angle_gamma   72.19962243
_symmetry_Int_Tables_number   1
_chemical_formula_structural   NdH9C5SNO9
_chemical_formula_sum   'Nd4 H36 C20 S4 N4 O36'
_cell_volume   1023.67488865
_cell_formula_units_Z   4
loop_
 _symmetry_equiv_pos_site_id
 _symmetry_equiv_pos_as_xyz
  1  'x, y, z'
loop_
 _atom_site_type_symbol
 _atom_site_label
 _atom_site_symmetry_multiplicity
 _atom_site_fract_x
 _atom_site_fract_y
 _atom_site_fract_z
 _atom_site_occupancy
 _atom_site_hle17_bader_spin_density
 _atom_site_hle17_ddec_charge
 _atom_site_hle17_ddec_spin_density
 _atom_site_hle17_ddec_sum_bond_order
 _atom_site_hle17_magmom
 _atom_site_hse06_10hf_bader_spin_density
 _atom_site_hse06_10hf_ddec_charge
 _atom_site_hse06_10hf_ddec_spin_density
 _atom_site_hse06_10hf_ddec_sum_bond_order
 _atom_site_hse06_10hf_magmom
 _atom_site_hse06_bader_spin_density
 _atom_site_hse06_ddec_charge
 _atom_site_hse06_ddec_spin_density
 _atom_site_hse06_ddec_sum_bond_order
 _atom_site_hse06_magmom
 _atom_site_pbe_bader_charge
 _atom_site_pbe_bader_spin_density
 _atom_site_pbe_cm5_charge
 _atom_site_pbe_ddec_charge
 _atom_site_pbe_ddec_spin_density
 _atom_site_pbe_ddec_sum_bond_order
 _atom_site_pbe_magmom
Nd  Nd0  1  0.82445371  0.56963090  0.75163793  1  0  2.304047  0  1.639525  0  0  2.153284  0  2.099476  0  0  2.242961  0  1.960376  0  2.247937  0  1.519066  2.123867  0  2.131577  0
Nd  Nd1  1  0.14563655  0.93028895  0.74838153  1  0  2.302163  0  1.640677  0  0  2.151109  0  2.101093  0  0  2.240932  0  1.961656  0  2.248894  0  1.518457  2.12177  0  2.133552  0
Nd  Nd2  1  0.17554530  0.43037184  0.24836214  1  0  2.304062  0  1.639556  0  0  2.153285  0  2.09954  0  0  2.242977  0  1.960411  0  2.247933  0  1.519073  2.123879  0  2.131622  0
Nd  Nd3  1  0.85436439  0.06971066  0.25161839  1  0  2.302197  0  1.640642  0  0  2.151183  0  2.100979  0  0  2.240962  0  1.96162  0  2.248899  0  1.518473  2.12185  0  2.133428  0
H  H4  1  0.43309400  0.84976652  0.48803739  1  0  0.138575  0  0.903153  0  0  0.151073  0  0.959252  0  0  0.154253  0  0.957062  0  0.128141  0  0.133472  0.148877  0  0.960713  0
H  H5  1  0.77067592  0.65019806  0.01179242  1  0  0.138557  0  0.903853  0  0  0.15087  0  0.960316  0  0  0.153956  0  0.958215  0  0.100603  0  0.133641  0.148804  0  0.961525  0
H  H6  1  0.56690396  0.15023310  0.51196231  1  0  0.138574  0  0.903186  0  0  0.151104  0  0.959243  0  0  0.154286  0  0.957052  0  0.128142  0  0.13348  0.148909  0  0.960704  0
H  H7  1  0.22932458  0.34980259  0.98820736  1  0  0.138573  0  0.903809  0  0  0.15088  0  0.960292  0  0  0.153966  0  0.958193  0  0.100583  0  0.13365  0.148814  0  0.961499  0
H  H8  1  0.67401018  0.77209941  0.42734859  1  0  0.140477  0  0.95185  0  0  0.148213  0  1.01479  0  0  0.152038  0  1.012343  0  0.139884  0  0.127629  0.14556  0  1.016446  0
H  H9  1  0.87324471  0.72767169  0.07260556  1  0  0.140009  0  0.952239  0  0  0.148375  0  1.014478  0  0  0.152113  0  1.012127  0  0.14339  0  0.127656  0.145728  0  1.016185  0
H  H10  1  0.32598986  0.22790021  0.57265063  1  0  0.140489  0  0.951853  0  0  0.148224  0  1.014795  0  0  0.152049  0  1.01235  0  0.139895  0  0.12763  0.145571  0  1.016452  0
H  H11  1  0.12675488  0.27232896  0.92739353  1  0  0.139965  0  0.952237  0  0  0.148326  0  1.014486  0  0  0.152064  0  1.012135  0  0.143374  0  0.127633  0.145675  0  1.016197  0
H  H12  1  0.82286581  0.50052563  0.55674800  1  0  0.118877  0  0.962119  0  0  0.128573  0  1.025235  0  0  0.130953  0  1.024446  0  0.162368  0  0.127481  0.126808  0  1.026035  0
H  H13  1  0.88013503  0.99936926  0.94317283  1  0  0.11779  0  0.964248  0  0  0.127615  0  1.026812  0  0  0.129872  0  1.026131  0  0.156145  0  0.127081  0.125883  0  1.027586  0
H  H14  1  0.17713454  0.49947191  0.44325210  1  0  0.118879  0  0.96213  0  0  0.128578  0  1.025229  0  0  0.130958  0  1.02444  0  0.162365  0  0.127475  0.126812  0  1.026029  0
H  H15  1  0.11986547  0.00063140  0.05682695  1  0  0.1178  0  0.964248  0  0  0.127625  0  1.026813  0  0  0.129883  0  1.026132  0  0.156155  0  0.127081  0.125893  0  1.027589  0
H  H16  1  0.79636173  0.51923767  0.45051114  1  0  0.112137  0  0.93722  0  0  0.122532  0  1.001498  0  0  0.124779  0  1.000422  0  0.123046  0  0.122858  0.120899  0  1.002343  0
H  H17  1  0.76626242  0.98069570  0.04941886  1  0  0.111745  0  0.937004  0  0  0.121949  0  1.001499  0  0  0.124158  0  1.000344  0  0.141518  0  0.122734  0.120322  0  1.002372  0
H  H18  1  0.20364025  0.48076091  0.54948833  1  0  0.112123  0  0.937253  0  0  0.12251  0  1.001531  0  0  0.124756  0  1.000457  0  0.123056  0  0.122861  0.120876  0  1.002377  0
H  H19  1  0.23373717  0.01930496  0.95058023  1  0  0.111825  0  0.936944  0  0  0.122035  0  1.001417  0  0  0.124235  0  1.000283  0  0.141508  0  0.122755  0.120409  0  1.002292  0
H  H20  1  0.20884687  0.71776489  0.46390005  1  0  0.118993  0  0.900442  0  0  0.131595  0  0.958016  0  0  0.133274  0  0.957417  0  0.139172  0  0.131612  0.130318  0  0.958457  0
H  H21  1  0.39034175  0.78226210  0.03616460  1  0  0.119146  0  0.901901  0  0  0.132427  0  0.958896  0  0  0.134143  0  0.958285  0  0.135791  0  0.131508  0.131252  0  0.959199  0
H  H22  1  0.79115439  0.28223265  0.53610075  1  0  0.118995  0  0.900401  0  0  0.131593  0  0.958  0  0  0.133272  0  0.957403  0  0.138985  0  0.131597  0.130316  0  0.95844  0
H  H23  1  0.60965978  0.21773752  0.96383474  1  0  0.11916  0  0.901891  0  0  0.13244  0  0.95887  0  0  0.134157  0  0.958257  0  0.135785  0  0.131504  0.131264  0  0.959176  0
H  H24  1  0.43856828  0.64565866  0.39691082  1  0  0.115764  0  0.88894  0  0  0.130165  0  0.943317  0  0  0.131545  0  0.942954  0  0.124137  0  0.131893  0.128997  0  0.943824  0
H  H25  1  0.48122484  0.85433609  0.10312008  1  0  0.11609  0  0.888635  0  0  0.130717  0  0.943017  0  0  0.132126  0  0.942647  0  0.100037  0  0.131945  0.129552  0  0.943505  0
H  H26  1  0.56143014  0.35434200  0.60308943  1  0  0.11573  0  0.888958  0  0  0.13017  0  0.943303  0  0  0.131551  0  0.942939  0  0.124124  0  0.131904  0.129003  0  0.943809  0
H  H27  1  0.51877566  0.14566457  0.89687970  1  0  0.116096  0  0.888654  0  0  0.130716  0  0.94303  0  0  0.132125  0  0.942659  0  0.100034  0  0.131946  0.12955  0  0.943518  0
H  H28  1  0.43248219  0.62280248  0.57474096  1  0  0.285103  0  0.866532  0  0  0.270853  0  0.922331  0  0  0.278398  0  0.916949  0  0.521536  0  0.322188  0.26547  0  0.926144  0
H  H29  1  0.62974392  0.87718394  0.92524340  1  0  0.285899  0  0.866154  0  0  0.270667  0  0.923037  0  0  0.278181  0  0.917709  0  0.520517  0  0.322056  0.265348  0  0.926768  0
H  H30  1  0.56752070  0.37719610  0.42525921  1  0  0.285109  0  0.866542  0  0  0.270845  0  0.922362  0  0  0.278406  0  0.916946  0  0.521539  0  0.32219  0.265462  0  0.926173  0
H  H31  1  0.37025613  0.12281776  0.07475623  1  0  0.285938  0  0.866126  0  0  0.270722  0  0.922985  0  0  0.278236  0  0.917658  0  0.520519  0  0.322067  0.265404  0  0.926716  0
H  H32  1  0.71476016  0.48642476  0.93849241  1  0  0.439455  0  0.859101  0  0  0.406989  0  0.924582  0  0  0.418588  0  0.907786  0  0.653419  0  0.296383  0.398851  0  0.936424  0
H  H33  1  0.13980561  0.01343618  0.56153687  1  0  0.439378  0  0.859588  0  0  0.407439  0  0.924311  0  0  0.419027  0  0.90751  0  0.646699  0  0.296541  0.399302  0  0.936203  0
H  H34  1  0.28524093  0.51357590  0.06150678  1  0  0.439462  0  0.859083  0  0  0.406994  0  0.924568  0  0  0.418592  0  0.907773  0  0.653383  0  0.296354  0.398856  0  0.936411  0
H  H35  1  0.86019398  0.98656448  0.43846221  1  0  0.439376  0  0.859582  0  0  0.407441  0  0.924303  0  0  0.419027  0  0.907503  0  0.646711  0  0.296535  0.399303  0  0.936196  0
H  H36  1  0.49513084  0.60457621  0.91153624  1  0  0.444004  0  0.844288  0  0  0.411044  0  0.910743  0  0  0.422727  0  0.893618  0  0.652457  0  0.30169  0.402892  0  0.922744  0
H  H37  1  0.01120061  0.89539670  0.58843909  1  0  0.446048  0  0.841661  0  0  0.412661  0  0.908903  0  0  0.424367  0  0.891733  0  0.651062  0  0.302308  0.404501  0  0.920936  0
H  H38  1  0.50487024  0.39542445  0.08846296  1  0  0.444066  0  0.844202  0  0  0.411113  0  0.910644  0  0  0.422796  0  0.893517  0  0.652451  0  0.30169  0.402961  0  0.922644  0
H  H39  1  0.98879795  0.10460500  0.41156043  1  0  0.446049  0  0.841655  0  0  0.41266  0  0.9089  0  0  0.424366  0  0.89173  0  0.65106  0  0.302305  0.4045  0  0.920931  0
C  C40  1  0.73183528  0.77212021  0.54837158  1  0  0.746103  0  3.822571  0  0  0.693869  0  4.130779  0  0  0.728611  0  4.121336  0  1.633223  0  0.239279  0.670583  0  4.13679  0
C  C41  1  0.05221334  0.72783292  0.95157855  1  0  0.746697  0  3.819657  0  0  0.69459  0  4.127898  0  0  0.729252  0  4.118522  0  1.651713  0  0.239204  0.671298  0  4.133925  0
C  C42  1  0.26816268  0.22787940  0.45162812  1  0  0.746098  0  3.822518  0  0  0.693844  0  4.130757  0  0  0.728586  0  4.121316  0  1.633333  0  0.239293  0.670558  0  4.136767  0
C  C43  1  0.94778851  0.27216669  0.04842207  1  0  0.746677  0  3.819861  0  0  0.694583  0  4.128078  0  0  0.729244  0  4.118704  0  1.651552  0  0.239242  0.671291  0  4.134103  0
C  C44  1  0.58534519  0.76329521  0.48938414  1  0  -0.184443  0  3.481118  0  0  -0.241088  0  3.727953  0  0  -0.242875  0  3.730798  0  0.177389  0  -0.057128  -0.239719  0  3.725412  0
C  C45  1  0.83786288  0.73660072  0.01053526  1  0  -0.1828  0  3.479644  0  0  -0.239766  0  3.726391  0  0  -0.241392  0  3.72926  0  0.212868  0  -0.056344  -0.238525  0  3.723833  0
C  C46  1  0.41465621  0.23670337  0.51061592  1  0  -0.184465  0  3.481108  0  0  -0.241135  0  3.727949  0  0  -0.242923  0  3.730791  0  0.177289  0  -0.057134  -0.239765  0  3.725403  0
C  C47  1  0.16213776  0.26340098  0.98946379  1  0  -0.182734  0  3.479567  0  0  -0.239703  0  3.726329  0  0  -0.241328  0  3.729198  0  0.213032  0  -0.056348  -0.238459  0  3.72377  0
C  C48  1  0.71260753  0.50418087  0.51351476  1  0  -0.049854  0  3.498932  0  0  -0.108514  0  3.749074  0  0  -0.106573  0  3.75829  0  0.177237  0  -0.05919  -0.109692  0  3.742618  0
C  C49  1  0.73032480  0.99578787  0.98642733  1  0  -0.0479  0  3.499247  0  0  -0.105761  0  3.748249  0  0  -0.103737  0  3.757727  0  0.152153  0  -0.058665  -0.106857  0  3.741591  0
C  C50  1  0.28739341  0.49581875  0.48648516  1  0  -0.04989  0  3.499055  0  0  -0.108524  0  3.749121  0  0  -0.106583  0  3.75834  0  0.177241  0  -0.05919  -0.1097  0  3.742665  0
C  C51  1  0.26967570  0.00421278  0.01357245  1  0  -0.048019  0  3.49921  0  0  -0.105866  0  3.748228  0  0  -0.103846  0  3.757704  0  0.152166  0  -0.058684  -0.106966  0  3.741574  0
C  C52  1  0.35698621  0.62995693  0.46016761  1  0  -0.015456  0  3.486086  0  0  -0.073142  0  3.741741  0  0  -0.069896  0  3.750672  0  0.161831  0  -0.04614  -0.075142  0  3.735529  0
C  C53  1  0.44707120  0.87003573  0.03988145  1  0  -0.016876  0  3.48672  0  0  -0.076021  0  3.743177  0  0  -0.07282  0  3.752091  0  0.199451  0  -0.046808  -0.078148  0  3.737009  0
C  C54  1  0.64301311  0.37004164  0.53983293  1  0  -0.015444  0  3.485968  0  0  -0.073181  0  3.741707  0  0  -0.069939  0  3.750643  0  0.162017  0  -0.046145  -0.075181  0  3.735495  0
C  C55  1  0.55292930  0.12996493  0.96011833  1  0  -0.01694  0  3.486825  0  0  -0.076044  0  3.743212  0  0  -0.072845  0  3.752123  0  0.199583  0  -0.04681  -0.078171  0  3.737044  0
C  C56  1  0.00310495  0.22985057  0.79740278  1  0  0.567689  0  3.917791  0  0  0.52603  0  4.211165  0  0  0.555583  0  4.206261  0  1.651292  0  0.219709  0.505517  0  4.218088  0
C  C57  1  0.03002883  0.26997917  0.70261728  1  0  0.572112  0  3.916476  0  0  0.529761  0  4.21038  0  0  0.559353  0  4.205393  0  1.537127  0  0.221191  0.509391  0  4.217092  0
C  C58  1  0.99688918  0.77014905  0.20259915  1  0  0.567595  0  3.917961  0  0  0.525978  0  4.211252  0  0  0.555532  0  4.206348  0  1.651261  0  0.219669  0.505465  0  4.218176  0
C  C59  1  0.96997437  0.73001941  0.29738418  1  0  0.572095  0  3.916577  0  0  0.52973  0  4.210466  0  0  0.559321  0  4.205478  0  1.537133  0  0.221167  0.50936  0  4.217178  0
S  S60  1  0.33139848  0.56758172  0.74260807  1  0  1.553169  0  5.931741  0  0  1.439263  0  6.467416  0  0  1.493082  0  6.443909  0  3.796081  0  0.541286  1.400253  0  6.493321  0
S  S61  1  0.64135215  0.93244216  0.75742055  1  0  1.550789  0  5.934732  0  0  1.43672  0  6.470558  0  0  1.490568  0  6.447064  0  3.805865  0  0.539942  1.39775  0  6.496357  0
S  S62  1  0.66860111  0.43241894  0.25739101  1  0  1.55314  0  5.931824  0  0  1.439238  0  6.467495  0  0  1.493055  0  6.443989  0  3.796081  0  0.541258  1.400227  0  6.493402  0
S  S63  1  0.35864672  0.06755746  0.24257985  1  0  1.550787  0  5.934709  0  0  1.436712  0  6.470543  0  0  1.490563  0  6.447035  0  3.805871  0  0.539911  1.397743  0  6.496343  0
N  N64  1  0.51646030  0.63007240  0.51501030  1  0  -0.066759  0  3.341549  0  0  0.012058  0  3.554943  0  0  0.000537  0  3.57235  0  -1.002806  0  -0.339492  0.01998  0  3.542783  0
N  N65  1  0.66141729  0.86989010  0.98495554  1  0  -0.068586  0  3.342341  0  0  0.010782  0  3.556239  0  0  -0.000724  0  3.573513  0  -1.009022  0  -0.339404  0.018706  0  3.544104  0
N  N66  1  0.48354155  0.36992514  0.48498991  1  0  -0.066726  0  3.341515  0  0  0.012075  0  3.554974  0  0  0.000552  0  3.572379  0  -1.002769  0  -0.339514  0.019997  0  3.542813  0
N  N67  1  0.33858321  0.13011055  0.01504424  1  0  -0.068581  0  3.34236  0  0  0.010773  0  3.556239  0  0  -0.000731  0  3.573513  0  -1.009099  0  -0.339371  0.018699  0  3.544102  0
O  O68  1  0.83360021  0.86561803  0.52560624  1  0  -0.62896  0  1.960023  0  0  -0.562451  0  2.170305  0  0  -0.588141  0  2.157971  0  -1.177247  0  -0.290312  -0.544584  0  2.17797  0
O  O69  1  0.22484797  0.63447658  0.97437185  1  0  -0.628933  0  1.957788  0  0  -0.562803  0  2.168402  0  0  -0.588336  0  2.155975  0  -1.197543  0  -0.289926  -0.544821  0  2.175721  0
O  O70  1  0.16639789  0.13438263  0.47439273  1  0  -0.628951  0  1.960058  0  0  -0.562398  0  2.170303  0  0  -0.588087  0  2.157971  0  -1.177258  0  -0.290304  -0.544529  0  2.177964  0
O  O71  1  0.77515298  0.36552304  0.02562807  1  0  -0.628945  0  1.957809  0  0  -0.562822  0  2.168414  0  0  -0.588357  0  2.15599  0  -1.197551  0  -0.289932  -0.544838  0  2.175732  0
O  O72  1  0.74018147  0.68308795  0.61608432  1  0  -0.738916  0  2.090868  0  0  -0.689962  0  2.362411  0  0  -0.721207  0  2.348119  0  -1.219323  0  -0.411066  -0.672759  0  2.369822  0
O  O73  1  0.03917111  0.81679758  0.88385959  1  0  -0.738913  0  2.090661  0  0  -0.689708  0  2.361982  0  0  -0.721003  0  2.347827  0  -1.219475  0  -0.411634  -0.672645  0  2.369458  0
O  O74  1  0.25981560  0.31691375  0.38391509  1  0  -0.738973  0  2.090861  0  0  -0.690012  0  2.362414  0  0  -0.721266  0  2.348133  0  -1.219347  0  -0.411113  -0.672811  0  2.369825  0
O  O75  1  0.96083134  0.18320620  0.11614126  1  0  -0.738912  0  2.090786  0  0  -0.689713  0  2.362087  0  0  -0.721001  0  2.347932  0  -1.219472  0  -0.411649  -0.672653  0  2.369567  0
O  O76  1  0.91860976  0.32689649  0.83421491  1  0  -0.652677  0  2.080704  0  0  -0.604221  0  2.323309  0  0  -0.632509  0  2.314381  0  -1.175784  0  -0.365582  -0.588279  0  2.328405  0
O  O77  1  0.07874364  0.17300710  0.66579479  1  0  -0.653111  0  2.079866  0  0  -0.60459  0  2.323078  0  0  -0.632864  0  2.314087  0  -1.177722  0  -0.365602  -0.588569  0  2.328123  0
O  O78  1  0.08138540  0.67310209  0.16578658  1  0  -0.652609  0  2.080716  0  0  -0.60416  0  2.323292  0  0  -0.63245  0  2.314363  0  -1.17575  0  -0.36555  -0.588219  0  2.328387  0
O  O79  1  0.92125925  0.82699355  0.33420580  1  0  -0.653121  0  2.07989  0  0  -0.604587  0  2.323081  0  0  -0.632856  0  2.314092  0  -1.17783  0  -0.365605  -0.588566  0  2.328124  0
O  O80  1  0.07187995  0.10177256  0.83129733  1  0  -0.668383  0  2.082327  0  0  -0.622164  0  2.332785  0  0  -0.650287  0  2.322767  0  -1.18717  0  -0.377374  -0.60637  0  2.338885  0
O  O81  1  0.00464812  0.39807278  0.66873314  1  0  -0.671832  0  2.08199  0  0  -0.625291  0  2.332673  0  0  -0.653493  0  2.322696  0  -1.183312  0  -0.378989  -0.609615  0  2.338601  0
O  O82  1  0.92811775  0.89822706  0.16870424  1  0  -0.668331  0  2.082405  0  0  -0.62215  0  2.332882  0  0  -0.65027  0  2.322867  0  -1.187151  0  -0.377343  -0.606356  0  2.338982  0
O  O83  1  0.99535405  0.60192683  0.33126876  1  0  -0.67182  0  2.082046  0  0  -0.625269  0  2.332713  0  0  -0.653473  0  2.322735  0  -1.183248  0  -0.378983  -0.609595  0  2.33864  0
O  O84  1  0.16896373  0.52589595  0.81234423  1  0  -0.757674  0  1.961334  0  0  -0.70729  0  2.218909  0  0  -0.733751  0  2.203439  0  -1.341835  0  -0.405423  -0.692199  0  2.229429  0
O  O85  1  0.50693830  0.97449719  0.68765213  1  0  -0.757143  0  1.961088  0  0  -0.706741  0  2.218536  0  0  -0.733232  0  2.203097  0  -1.340022  0  -0.405176  -0.691579  0  2.229124  0
O  O86  1  0.83103572  0.47410367  0.18765558  1  0  -0.757692  0  1.961385  0  0  -0.707306  0  2.218959  0  0  -0.733768  0  2.203487  0  -1.341853  0  -0.405426  -0.692215  0  2.229477  0
O  O87  1  0.49306368  0.02550139  0.31234735  1  0  -0.757134  0  1.961098  0  0  -0.70673  0  2.218535  0  0  -0.733213  0  2.203092  0  -1.340016  0  -0.405167  -0.691568  0  2.229122  0
O  O88  1  0.22224457  0.60820648  0.66597078  1  0  -0.751209  0  1.955103  0  0  -0.700752  0  2.209922  0  0  -0.724843  0  2.195088  0  -1.341934  0  -0.356113  -0.686504  0  2.221544  0
O  O89  1  0.49610140  0.89159791  0.83399133  1  0  -0.750902  0  1.95727  0  0  -0.700045  0  2.211715  0  0  -0.724121  0  2.196932  0  -1.346348  0  -0.355955  -0.685884  0  2.223437  0
O  O90  1  0.77775443  0.39179417  0.33402889  1  0  -0.751205  0  1.95513  0  0  -0.700752  0  2.209959  0  0  -0.724846  0  2.195122  0  -1.341896  0  -0.356099  -0.686504  0  2.221581  0
O  O91  1  0.50389896  0.10840171  0.16600917  1  0  -0.750944  0  1.957255  0  0  -0.700093  0  2.211704  0  0  -0.724169  0  2.19692  0  -1.34633  0  -0.355958  -0.685933  0  2.223427  0
O  O92  1  0.39633806  0.68994699  0.75342346  1  0  -0.893728  0  2.083676  0  0  -0.836063  0  2.366987  0  0  -0.867761  0  2.348938  0  -1.346771  0  -0.45291  -0.821507  0  2.380504  0
O  O93  1  0.83937411  0.81009249  0.74650174  1  0  -0.892796  0  2.083717  0  0  -0.835218  0  2.367416  0  0  -0.866785  0  2.349043  0  -1.35663  0  -0.452244  -0.820857  0  2.380993  0
O  O94  1  0.60366095  0.31005367  0.24657621  1  0  -0.893732  0  2.083685  0  0  -0.836086  0  2.367028  0  0  -0.867779  0  2.348978  0  -1.346775  0  -0.452911  -0.821532  0  2.380544  0
O  O95  1  0.16062729  0.18990817  0.25349873  1  0  -0.892767  0  2.08369  0  0  -0.835195  0  2.367394  0  0  -0.866759  0  2.349019  0  -1.356631  0  -0.452217  -0.820838  0  2.380971  0
O  O96  1  0.54121044  0.45562046  0.73870830  1  0  -0.755328  0  1.959905  0  0  -0.705996  0  2.211598  0  0  -0.731012  0  2.194323  0  -1.34227  0  -0.401067  -0.691246  0  2.223107  0
O  O97  1  0.73541228  0.04420511  0.76156562  1  0  -0.754023  0  1.959038  0  0  -0.70457  0  2.211123  0  0  -0.729621  0  2.193785  0  -1.339215  0  -0.400462  -0.690124  0  2.222876  0
O  O98  1  0.45878857  0.54438020  0.26129137  1  0  -0.755294  0  1.959903  0  0  -0.705963  0  2.211596  0  0  -0.730979  0  2.19432  0  -1.34229  0  -0.40106  -0.691212  0  2.223105  0
O  O99  1  0.26458718  0.95579450  0.23843419  1  0  -0.754051  0  1.959054  0  0  -0.704594  0  2.211133  0  0  -0.729641  0  2.193795  0  -1.339228  0  -0.400476  -0.69015  0  2.222886  0
O  O100  1  0.65591468  0.56851893  0.89393137  1  0  -0.920829  0  1.819573  0  0  -0.873434  0  2.019356  0  0  -0.898109  0  1.980549  0  -1.298361  0  -0.652496  -0.86034  0  2.043248  0
O  O101  1  0.11845396  0.93131042  0.60606807  1  0  -0.92274  0  1.818014  0  0  -0.875617  0  2.017302  0  0  -0.900258  0  1.978464  0  -1.290201  0  -0.653303  -0.862494  0  2.041162  0
O  O102  1  0.34408582  0.43148173  0.10606841  1  0  -0.920894  0  1.819479  0  0  -0.873502  0  2.019262  0  0  -0.898178  0  1.980453  0  -1.298351  0  -0.652456  -0.860413  0  2.043163  0
O  O103  1  0.88154459  0.06869127  0.39393146  1  0  -0.922734  0  1.817985  0  0  -0.875611  0  2.017261  0  0  -0.900255  0  1.978444  0  -1.29021  0  -0.653306  -0.862491  0  2.041122  0
