# generated using pymatgen
data_Zn2H14C21I4N8O
_symmetry_space_group_name_H-M   'P 1'
_cell_length_a   14.88197091
_cell_length_b   14.93322219
_cell_length_c   14.84539170
_cell_angle_alpha   110.56955941
_cell_angle_beta   116.08188778
_cell_angle_gamma   102.46037021
_symmetry_Int_Tables_number   1
_chemical_formula_structural   Zn2H14C21I4N8O
_chemical_formula_sum   'Zn4 H28 C42 I8 N16 O2'
_cell_volume   2490.92867128
_cell_formula_units_Z   2
loop_
 _symmetry_equiv_pos_site_id
 _symmetry_equiv_pos_as_xyz
  1  'x, y, z'
loop_
 _atom_site_type_symbol
 _atom_site_label
 _atom_site_symmetry_multiplicity
 _atom_site_fract_x
 _atom_site_fract_y
 _atom_site_fract_z
 _atom_site_occupancy
 _atom_site_pbe_bader_charge
 _atom_site_pbe_bader_spin_density
 _atom_site_pbe_cm5_charge
 _atom_site_pbe_ddec_charge
 _atom_site_pbe_ddec_spin_density
 _atom_site_pbe_ddec_sum_bond_order
 _atom_site_pbe_magmom
C  C0  1  0.58553634  0.01922768  0.29090667  1  0.273587  0  0.042961  0.082059  0  3.919033  0
C  C1  1  0.20122981  0.88474943  0.48225886  1  0.020686  0  -0.04381  -0.022589  0  4.10073  0
C  C2  1  0.40246419  0.71851885  0.51754521  1  0.019189  0  -0.043513  -0.023699  0  4.098494  0
C  C3  1  0.16716667  0.75527306  0.02702020  1  0.050984  0  -0.043476  0.010147  0  4.118208  0
C  C4  1  0.72811704  0.14007111  0.97302779  1  0.03903  0  -0.043351  0.010797  0  4.115755  0
C  C5  1  0.99418292  0.78361597  0.38332656  1  -0.051962  0  -0.113797  -0.104997  0  4.037159  0
C  C6  1  0.40025714  0.61077018  0.61609347  1  -0.026233  0  -0.114075  -0.106317  0  4.034796  0
C  C7  1  0.72829382  0.29448108  0.70899840  1  0.264156  0  0.043141  0.081786  0  3.920294  0
C  C8  1  0.10088334  0.84484318  0.47686037  1  -0.027914  0  -0.102056  -0.102821  0  4.0798  0
C  C9  1  0.36803874  0.62368993  0.52276638  1  -0.071682  0  -0.101961  -0.101142  0  4.075888  0
C  C10  1  0.90275359  0.77985553  0.39719911  1  0.068108  0  -0.100918  -0.129304  0  4.035425  0
C  C11  1  0.38261448  0.50573715  0.60238146  1  0.016902  0  -0.100547  -0.128345  0  4.032954  0
C  C12  1  0.89213262  0.86432879  0.45697935  1  -0.301365  0  -0.04285  0.046331  0  3.90456  0
C  C13  1  0.40763252  0.43521103  0.54311711  1  -0.275556  0  -0.043005  0.045777  0  3.901467  0
C  C14  1  0.91826815  0.38561966  0.74746268  1  0.021764  0  -0.105231  -0.160597  0  4.009343  0
C  C15  1  0.63776842  0.17020106  0.25213576  1  0.007156  0  -0.104891  -0.159729  0  4.005272  0
C  C16  1  0.93610701  0.48500786  0.76338592  1  -0.187312  0  -0.059099  0.053395  0  3.971528  0
C  C17  1  0.72147976  0.17235511  0.23611003  1  -0.201062  0  -0.05908  0.053721  0  3.96874  0
C  C18  1  0.06628242  0.67911160  0.91286467  1  -0.019263  0  -0.102927  -0.111321  0  4.027601  0
C  C19  1  0.76599101  0.15314700  0.08681374  1  -0.016069  0  -0.102964  -0.111173  0  4.025764  0
C  C20  1  0.35486256  0.23398356  0.43594580  1  1.03096  0  0.179118  0.291731  0  4.105261  0
C  C21  1  0.79804958  0.91896373  0.56421253  1  1.055595  0  0.178762  0.291335  0  4.10653  0
C  C22  1  0.04193120  0.57446267  0.85854684  1  -0.041382  0  -0.113801  -0.139498  0  4.077573  0
C  C23  1  0.48743212  0.82236305  0.60448710  1  0.412667  0  0.016827  -0.024434  0  3.923138  0
C  C24  1  0.71568523  0.18311483  0.14130432  1  -0.057295  0  -0.113796  -0.139874  0  4.075077  0
C  C25  1  0.44169402  0.31288660  0.62677116  1  0.425516  0  0.005011  -0.025493  0  4.022529  0
C  C26  1  0.68565289  0.81499916  0.37321615  1  0.492018  0  0.005187  -0.025599  0  4.022712  0
C  C27  1  0.78515641  0.18514984  0.63015912  1  0.354402  0  0.015448  -0.025304  0  3.904583  0
C  C28  1  0.55517049  0.15494491  0.36980342  1  0.424118  0  0.014614  -0.026208  0  3.905835  0
C  C29  1  0.21801014  0.88304286  0.39558705  1  0.446632  0  0.017101  -0.024084  0  3.923167  0
C  C30  1  0.60242144  0.12253344  0.30763143  1  0.009647  0  -0.045423  -0.014134  0  4.099479  0
C  C31  1  0.81488651  0.29453121  0.69196102  1  0.050861  0  -0.045532  -0.013354  0  4.10109  0
C  C32  1  0.39590266  0.33277056  0.53440707  1  0.050267  0  -0.062384  -0.157091  0  4.144921  0
C  C33  1  0.79828302  0.86147880  0.46580557  1  0.007983  0  -0.062306  -0.157742  0  4.150694  0
C  C34  1  0.37343029  0.71966271  0.41356472  1  0.282726  0  0.045328  0.081158  0  3.934584  0
C  C35  1  0.30670112  0.96011346  0.58642664  1  0.28249  0  0.045694  0.080784  0  3.932543  0
C  C36  1  0.19134553  0.85715472  0.10778940  1  0.424366  0  0.005727  -0.05962  0  3.971874  0
C  C37  1  0.74943019  0.08367499  0.89233114  1  0.425947  0  0.005527  -0.060424  0  3.971246  0
C  C38  1  0.64742673  0.16745597  0.90952041  1  0.42491  0  0.00247  -0.060169  0  4.020815  0
C  C39  1  0.25802542  0.73815625  0.09091796  1  0.411089  0  0.003466  -0.058418  0  4.019168  0
C  C40  1  0.21648616  0.23296679  0.27414270  1  0.396994  0  -0.136829  -0.161748  0  3.888745  0
C  C41  1  0.95910051  0.94244123  0.72594539  1  0.384034  0  -0.136552  -0.162047  0  3.890469  0
H  H42  1  0.11349855  0.87808516  0.56224903  1  0.079969  0  0.080109  0.079118  0  1.060329  0
H  H43  1  0.64848419  0.20367970  0.09933665  1  0.051516  0  0.0984  0.105081  0  0.995875  0
H  H44  1  0.10477114  0.54978232  0.90102016  1  0.03571  0  0.098537  0.105077  0  0.996403  0
H  H45  1  0.00347326  0.70557859  0.87553549  1  0.056526  0  0.086906  0.092712  0  1.034684  0
H  H46  1  0.82992372  0.12766845  0.12382613  1  0.040081  0  0.086955  0.092619  0  1.034504  0
H  H47  1  0.99428053  0.37809366  0.79574967  1  0.053143  0  0.101281  0.111056  0  0.988446  0
H  H48  1  0.58174155  0.19797851  0.20439332  1  0.05822  0  0.101241  0.110805  0  0.987637  0
H  H49  1  0.31569202  0.55077474  0.43725771  1  0.094434  0  0.079719  0.078177  0  1.060327  0
H  H50  1  0.48499327  0.36805253  0.71915753  1  0.125024  0  0.105191  0.094861  0  1.028539  0
H  H51  1  0.64842342  0.76598351  0.28083280  1  0.076945  0  0.105399  0.095291  0  1.028638  0
H  H52  1  0.82873138  0.14709788  0.59984193  1  0.127295  0  0.115393  0.111806  0  1.006264  0
H  H53  1  0.54730858  0.22870778  0.40006906  1  0.115427  0  0.115205  0.111818  0  1.006694  0
H  H54  1  0.14384567  0.90304976  0.09742345  1  0.067256  0  0.118653  0.110036  0  0.9933  0
H  H55  1  0.80559131  0.04635699  0.90249626  1  0.067841  0  0.118613  0.110137  0  0.99292  0
H  H56  1  0.60577552  0.21126794  0.93608549  1  0.078688  0  0.109464  0.095846  0  1.019941  0
H  H57  1  0.27538241  0.67007356  0.06440137  1  0.074791  0  0.109511  0.095519  0  1.020148  0
H  H58  1  0.53623582  0.85875206  0.69867593  1  0.112754  0  0.118883  0.108421  0  0.996658  0
H  H59  1  0.15983348  0.83745394  0.30144497  1  0.073536  0  0.119367  0.108817  0  0.996531  0
H  H60  1  0.97366510  0.74016424  0.29501279  1  0.046608  0  0.099253  0.104569  0  0.98772  0
H  H61  1  0.44503616  0.67868041  0.70445196  1  0.061421  0  0.099495  0.105029  0  0.987117  0
H  H62  1  0.25137785  0.31916029  0.30780787  1  0.046816  0  0.086774  0.089011  0  1.046234  0
H  H63  1  0.15619422  0.21036235  0.29535352  1  0.04677  0  0.09989  0.102939  0  0.981566  0
H  H64  1  0.17602352  0.18997641  0.17965686  1  0.0637  0  0.107646  0.115876  0  0.966554  0
H  H65  1  0.01197279  0.94357271  0.69258093  1  0.051432  0  0.086968  0.089079  0  1.045543  0
H  H66  1  0.91477499  0.86098712  0.70430262  1  0.050276  0  0.099922  0.103027  0  0.981581  0
H  H67  1  0.83296206  0.70224074  0.35393297  1  0.077678  0  0.105993  0.117934  0  0.974767  0
H  H68  1  0.01082787  0.99651220  0.82048554  1  0.074033  0  0.107769  0.116024  0  0.966571  0
H  H69  1  0.34818046  0.47975415  0.64571936  1  0.079105  0  0.10583  0.117493  0  0.974647  0
I  I70  1  0.58460729  0.89778042  0.16628003  1  0.139367  0  0.094748  -0.012902  0  1.578538  0
I  I71  1  0.85504139  0.14785621  0.34042082  1  0.071238  0  0.027169  -0.092976  0  1.599423  0
I  I72  1  0.80640305  0.51316894  0.65875622  1  0.071461  0  0.027209  -0.093179  0  1.604343  0
I  I73  1  0.25050577  0.59458639  0.24518200  1  0.131853  0  0.095907  -0.015594  0  1.463831  0
I  I74  1  0.34976161  0.00539098  0.75443891  1  0.134396  0  0.097302  -0.014491  0  1.467264  0
I  I75  1  0.73188280  0.41839132  0.83378491  1  0.140106  0  0.095967  -0.011922  0  1.580446  0
I  I76  1  0.00917577  0.02562816  0.53231661  1  0.039727  0  0.049393  -0.058403  0  1.513499  0
I  I77  1  0.49369227  0.47637033  0.46778217  1  0.045836  0  0.04995  -0.057658  0  1.519686  0
N  N78  1  0.53774234  0.99587083  0.34324400  1  -0.781076  0  -0.281746  -0.224243  0  3.613904  0
N  N79  1  0.62456572  0.84382710  0.41220651  1  -0.800736  0  -0.275147  -0.176684  0  3.531314  0
N  N80  1  0.43134597  0.21288588  0.58771008  1  -0.792847  0  -0.274266  -0.17706  0  3.525236  0
N  N81  1  0.68833543  0.12656297  0.61006179  1  -0.766879  0  -0.27772  -0.175283  0  3.581083  0
N  N82  1  0.51712000  0.07875478  0.39033704  1  -0.772856  0  -0.27808  -0.17546  0  3.582704  0
N  N83  1  0.43684995  0.81453026  0.43677017  1  -0.780656  0  -0.275364  -0.217793  0  3.573793  0
N  N84  1  0.37845550  0.00084915  0.56353313  1  -0.755373  0  -0.275858  -0.216356  0  3.57916  0
N  N85  1  0.65258119  0.19434769  0.65713308  1  -0.787978  0  -0.282987  -0.223657  0  3.623524  0
N  N86  1  0.28751470  0.89598660  0.21090998  1  -0.798061  0  -0.273106  -0.173099  0  3.542894  0
N  N87  1  0.68558762  0.07731132  0.78966805  1  -0.789714  0  -0.273038  -0.172911  0  3.543843  0
N  N88  1  0.62205555  0.12936577  0.80107953  1  -0.811263  0  -0.273562  -0.184615  0  3.595201  0
N  N89  1  0.32816266  0.82117382  0.19968415  1  -0.80923  0  -0.274529  -0.184665  0  3.599793  0
N  N90  1  0.50688718  0.87777271  0.55528545  1  -0.773089  0  -0.275016  -0.169076  0  3.602137  0
N  N91  1  0.32295045  0.95228602  0.44506703  1  -0.800597  0  -0.275378  -0.169895  0  3.600339  0
N  N92  1  0.37559523  0.16338167  0.46808018  1  -0.812522  0  -0.287161  -0.271661  0  3.525037  0
N  N93  1  0.69495087  0.90766923  0.53188082  1  -0.817581  0  -0.287014  -0.270924  0  3.524939  0
O  O94  1  0.30345102  0.20128017  0.32103240  1  -1.102497  0  -0.201062  -0.208611  0  2.574571  0
O  O95  1  0.88055370  0.98249769  0.67923639  1  -1.096745  0  -0.200415  -0.207707  0  2.574448  0
Zn  Zn96  1  0.47758999  0.85630401  0.33793274  1  1.200087  0  0.727775  0.644431  0  2.377456  0
Zn  Zn97  1  0.51860378  0.14060266  0.66278610  1  1.200618  0  0.727024  0.642374  0  2.381287  0
Zn  Zn98  1  0.36973814  0.02589684  0.37183534  1  1.195553  0  0.749289  0.629901  0  2.470794  0
Zn  Zn99  1  0.65408198  0.99820566  0.62873423  1  1.194779  0  0.749143  0.630196  0  2.468582  0
