# generated using pymatgen
data_CoH14C18N2O7
_symmetry_space_group_name_H-M   'P 1'
_cell_length_a   7.24491870
_cell_length_b   10.63130006
_cell_length_c   10.75577972
_cell_angle_alpha   97.69621033
_cell_angle_beta   103.85675230
_cell_angle_gamma   94.39951124
_symmetry_Int_Tables_number   1
_chemical_formula_structural   CoH14C18N2O7
_chemical_formula_sum   'Co2 H28 C36 N4 O14'
_cell_volume   791.97526356
_cell_formula_units_Z   2
loop_
 _symmetry_equiv_pos_site_id
 _symmetry_equiv_pos_as_xyz
  1  'x, y, z'
loop_
 _atom_site_type_symbol
 _atom_site_label
 _atom_site_symmetry_multiplicity
 _atom_site_fract_x
 _atom_site_fract_y
 _atom_site_fract_z
 _atom_site_occupancy
 _atom_site_hle17_ddec_charge
 _atom_site_hle17_ddec_spin_density
 _atom_site_hle17_ddec_sum_bond_order
 _atom_site_hle17_magmom
 _atom_site_hse06_10hf_ddec_charge
 _atom_site_hse06_10hf_ddec_spin_density
 _atom_site_hse06_10hf_ddec_sum_bond_order
 _atom_site_hse06_10hf_magmom
 _atom_site_hse06_ddec_charge
 _atom_site_hse06_ddec_spin_density
 _atom_site_hse06_ddec_sum_bond_order
 _atom_site_hse06_magmom
 _atom_site_pbe_cm5_charge
 _atom_site_pbe_ddec_charge
 _atom_site_pbe_ddec_spin_density
 _atom_site_pbe_ddec_sum_bond_order
 _atom_site_pbe_magmom
Co  Co0  1  0.68285864  0.64043966  0.86937297  1  0.990874  -2.944376  1.912016  -2.584  0.943181  -2.896543  2.321404  -2.65  1.022075  -2.930242  2.248015  -2.723  0.670152  0.875665  -2.866939  2.386062  -2.581
Co  Co1  1  0.31714305  0.35956134  0.13062705  1  0.990898  2.944369  1.911947  2.584  0.943262  2.896541  2.321321  2.65  1.02215  2.93024  2.247952  2.723  0.670161  0.875751  2.866934  2.385995  2.581
H  H2  1  0.69109315  0.45213003  0.02488878  1  0.441291  -0.001015  0.851356  -0.002  0.415704  -0.001158  0.907004  -0.002  0.425867  -0.000912  0.892485  -0.002  0.303932  0.408172  -0.001438  0.917642  -0.003
H  H3  1  0.30890586  0.54787194  0.97511094  1  0.441287  0.001015  0.851365  0.002  0.415693  0.001158  0.907023  0.002  0.425859  0.000913  0.892499  0.002  0.303929  0.408163  0.001438  0.917658  0.003
H  H4  1  0.80355141  0.43264600  0.90953707  1  0.414656  0.00022  0.901443  0.001  0.382539  -4.5e-05  0.968311  0.0  0.395497  4.5e-05  0.949675  0.0  0.286075  0.373254  -0.000223  0.981505  0.0
H  H5  1  0.19644693  0.56735215  0.09046296  1  0.414738  -0.00022  0.901344  -0.001  0.382629  4.5e-05  0.968195  0.0  0.395587  -4.5e-05  0.949559  0.0  0.286106  0.373343  0.000223  0.98139  0.0
H  H6  1  0.45688118  0.57001614  0.38062025  1  0.397996  -7.6e-05  0.887291  0.0  0.367947  -2.8e-05  0.965955  0.0  0.379157  -7.6e-05  0.954427  0.0  0.306992  0.359642  2.3e-05  0.974347  0.0
H  H7  1  0.54311460  0.42999158  0.61937879  1  0.397998  7.5e-05  0.887333  0.0  0.367953  2.8e-05  0.965975  0.0  0.379158  7.7e-05  0.954452  0.0  0.307001  0.35965  -2.3e-05  0.974364  0.0
H  H8  1  0.69616218  0.75652938  0.61046519  1  0.080428  -0.000784  0.946228  -0.002  0.086674  -0.000456  1.014751  -0.001  0.089782  -0.000318  1.010546  -0.001  0.114286  0.083524  -0.000613  1.019421  -0.002
H  H9  1  0.30384450  0.24346778  0.38953232  1  0.0804  0.000785  0.946188  0.002  0.086633  0.000455  1.014735  0.001  0.089741  0.000319  1.010529  0.001  0.114259  0.083484  0.000613  1.019404  0.002
H  H10  1  0.75220453  0.97797020  0.55884149  1  0.110247  -0.00022  0.947278  0.0  0.123123  -0.000342  1.000476  0.0  0.126033  -0.000248  1.000052  0.0  0.110171  0.120017  -0.000462  1.002864  0.0
H  H11  1  0.24780090  0.02202792  0.44115689  1  0.11029  0.000219  0.947241  0.0  0.123157  0.000342  1.000444  0.0  0.126066  0.000248  1.00002  0.0  0.110189  0.120051  0.000462  1.002831  0.0
H  H12  1  0.80586141  0.16537043  0.73560108  1  0.116467  -0.000335  0.945137  -0.001  0.124197  3.8e-05  1.009111  0.0  0.127658  2.1e-05  1.006255  0.0  0.109576  0.121209  5.9e-05  1.011731  0.0
H  H13  1  0.19413692  0.83462772  0.26439523  1  0.11644  0.000335  0.945134  0.001  0.124162  -3.8e-05  1.00913  0.0  0.127618  -2.1e-05  1.006273  0.0  0.109558  0.121174  -5.9e-05  1.011746  0.0
H  H14  1  0.83018048  0.24523473  0.97436510  1  0.113117  -0.000222  0.948717  0.0  0.12631  -0.000162  1.006156  0.0  0.129693  -0.000111  1.003979  0.0  0.11091  0.123192  -0.0004  1.008402  0.0
H  H15  1  0.16981359  0.75476344  0.02563053  1  0.113115  0.000223  0.948718  0.0  0.126305  0.000163  1.006162  0.0  0.129688  0.000111  1.003984  0.0  0.110902  0.123181  0.0004  1.008405  0.0
H  H16  1  0.80474120  0.19827304  0.18736145  1  0.107068  -0.00015  0.963022  0.0  0.117306  -0.000212  1.025673  0.0  0.120233  -0.000174  1.024392  0.0  0.104926  0.114755  -0.000231  1.02691  0.0
H  H17  1  0.19525372  0.80172990  0.81263589  1  0.107088  0.000149  0.962937  0.0  0.117319  0.000212  1.025593  0.0  0.120251  0.000174  1.024314  0.0  0.104937  0.114765  0.000231  1.026828  0.0
H  H18  1  0.73943406  0.03455130  0.32963297  1  0.11336  -0.000115  0.942955  0.0  0.12376  1.1e-05  1.003919  0.0  0.127133  1.4e-05  1.000675  0.0  0.111232  0.121142  5e-06  1.006771  0.0
H  H19  1  0.26056444  0.96544781  0.67036442  1  0.113412  0.000115  0.94292  0.0  0.123778  -1.1e-05  1.003909  0.0  0.127148  -1.4e-05  1.000667  0.0  0.111269  0.12116  -5e-06  1.006762  0.0
H  H20  1  0.67128463  0.80183765  0.34596541  1  0.109326  -0.000329  0.961468  0.0  0.119498  -0.000293  1.019441  0.0  0.122947  -0.000207  1.018105  0.0  0.106335  0.116082  -0.000459  1.022384  -0.001
H  H21  1  0.32871655  0.19816049  0.65403321  1  0.109308  0.00033  0.961474  0.0  0.119499  0.000293  1.019413  0.0  0.122949  0.000207  1.018075  0.0  0.106334  0.116082  0.000458  1.022356  0.001
H  H22  1  0.65220503  0.63675037  0.15464703  1  0.082514  -0.000729  0.953876  -0.002  0.089698  -0.000685  1.019058  -0.001  0.091648  -0.000519  1.01667  -0.001  0.117871  0.087627  -0.000863  1.021554  -0.002
H  H23  1  0.34779790  0.36324968  0.84535120  1  0.082529  0.000728  0.95387  0.002  0.089713  0.000685  1.019058  0.001  0.091663  0.000519  1.016669  0.001  0.117872  0.087644  0.000863  1.021555  0.002
H  H24  1  0.08419625  0.65877816  0.63327665  1  0.107385  -4.4e-05  0.911596  0.0  0.115739  -5.1e-05  0.974675  0.0  0.119047  -3e-06  0.972013  0.0  0.114745  0.113725  -9.4e-05  0.976577  0.0
H  H25  1  0.91580385  0.34122188  0.36672578  1  0.107389  4.5e-05  0.911583  0.0  0.115769  5.1e-05  0.974658  0.0  0.119076  3e-06  0.971996  0.0  0.114767  0.113756  9.4e-05  0.976561  0.0
H  H26  1  0.25466982  0.47295648  0.45983473  1  0.094288  -0.000143  0.927692  0.0  0.102367  -0.000184  0.991957  0.0  0.105739  -0.000153  0.989695  0.0  0.107999  0.099712  -0.000213  0.994064  0.0
H  H27  1  0.74533364  0.52704642  0.54016769  1  0.094248  0.000143  0.927674  0.0  0.102346  0.000184  0.991932  0.0  0.105719  0.000152  0.98967  0.0  0.10799  0.099714  0.000213  0.994012  0.0
H  H28  1  0.07376835  0.36961670  0.62731356  1  0.084348  -0.000271  0.915364  0.0  0.09477  -0.000277  0.975083  0.0  0.096313  -0.000181  0.975152  0.0  0.102985  0.094105  -0.000386  0.974999  0.0
H  H29  1  0.92623175  0.63038335  0.37268794  1  0.084367  0.000273  0.915349  0.0  0.094767  0.000277  0.975091  0.0  0.096305  0.000181  0.975161  0.0  0.102989  0.0941  0.000386  0.975004  0.0
C  C30  1  0.71860833  0.84002292  0.68523355  1  0.161258  0.01273  3.665252  0.017  0.130198  0.004095  3.926609  0.006  0.141909  0.00357  3.939881  0.005  0.056499  0.121077  0.004998  3.919888  0.007
C  C31  1  0.28139710  0.15997520  0.31476482  1  0.161291  -0.012749  3.665231  -0.017  0.130248  -0.004096  3.926596  -0.006  0.141957  -0.003572  3.939873  -0.005  0.056535  0.121128  -0.004998  3.919879  -0.007
C  C32  1  0.75103689  0.96408613  0.65714107  1  -0.118283  -0.010198  3.720198  -0.014  -0.130501  -0.003582  3.970291  -0.005  -0.138169  -0.003254  3.989607  -0.005  -0.080767  -0.125666  -0.003822  3.959862  -0.006
C  C33  1  0.24896445  0.03591297  0.34285678  1  -0.118309  0.01022  3.720237  0.014  -0.130499  0.003582  3.97031  0.005  -0.138167  0.003254  3.989624  0.005  -0.080762  -0.125665  0.003821  3.959882  0.006
C  C34  1  0.77892188  0.06824082  0.75437624  1  -0.03823  0.013581  3.662771  0.017  -0.063385  0.005058  3.911306  0.006  -0.058597  0.00394  3.927263  0.005  -0.061543  -0.067698  0.006985  3.901796  0.008
C  C35  1  0.22107789  0.93175732  0.24562588  1  -0.038263  -0.013605  3.662685  -0.017  -0.063411  -0.005059  3.911222  -0.006  -0.058613  -0.003941  3.927164  -0.005  -0.061557  -0.067723  -0.006985  3.901713  -0.008
C  C36  1  0.79845833  0.14719885  0.98832126  1  -0.079362  0.000951  3.685345  0.002  -0.106409  -0.000265  3.945448  0.0  -0.108911  9.1e-05  3.966049  0.0  -0.080411  -0.105205  -0.000453  3.932526  0.0
C  C37  1  0.20154319  0.85280120  0.01167953  1  -0.079392  -0.000978  3.685392  -0.002  -0.106421  0.000265  3.94549  0.0  -0.108925  -9.3e-05  3.966092  0.0  -0.0804  -0.105214  0.000453  3.932559  0.0
C  C38  1  0.78520221  0.12067161  0.10696072  1  -0.079154  -0.003164  3.700604  -0.004  -0.106479  -0.00109  3.962759  -0.001  -0.10875  -0.001153  3.984407  -0.001  -0.081917  -0.10459  -0.001105  3.948451  -0.001
C  C39  1  0.21479130  0.87933134  0.89304012  1  -0.079126  0.003191  3.700609  0.004  -0.10645  0.001091  3.962785  0.001  -0.10873  0.001155  3.98444  0.001  -0.081935  -0.104562  0.001106  3.948473  0.001
C  C40  1  0.72834674  0.95922508  0.24758247  1  -0.039951  0.004206  3.670573  0.005  -0.065354  0.001157  3.91662  0.001  -0.060753  0.000356  3.933346  0.0  -0.059406  -0.06884  0.002231  3.90625  0.003
C  C41  1  0.27165193  0.04077498  0.75241509  1  -0.040003  -0.004188  3.670725  -0.005  -0.065364  -0.001153  3.916777  -0.001  -0.060752  -0.00035  3.933491  0.0  -0.059482  -0.068851  -0.00223  3.90641  -0.003
C  C42  1  0.69328232  0.83155535  0.25714363  1  -0.120914  -0.004464  3.718102  -0.007  -0.133139  -0.001808  3.970943  -0.003  -0.141358  -0.001161  3.990028  -0.002  -0.084343  -0.127926  -0.002136  3.960249  -0.003
C  C43  1  0.30671635  0.16844471  0.74285299  1  -0.120883  0.004445  3.718148  0.006  -0.133118  0.001807  3.970969  0.003  -0.141337  0.001157  3.990048  0.002  -0.084326  -0.127905  0.002136  3.960276  0.003
C  C44  1  0.68033990  0.73753851  0.14940220  1  0.175272  0.004352  3.655838  0.006  0.142513  -3.2e-05  3.920989  0.0  0.155654  -0.000245  3.93377  0.0  0.060838  0.132731  0.000121  3.912903  0.0
C  C45  1  0.31966127  0.26245963  0.85059456  1  0.175272  -0.004335  3.655816  -0.006  0.142493  3.6e-05  3.920987  0.0  0.155634  0.000251  3.933769  0.0  0.060842  0.13271  -0.000121  3.912912  0.0
C  C46  1  0.74703701  0.99232333  0.12802020  1  0.021537  -0.001646  3.800593  -0.002  0.038103  -0.000689  4.032324  -0.001  0.034487  -0.000209  4.056785  0.0  -0.002336  0.040354  -0.001073  4.01624  -0.002
C  C47  1  0.25295615  0.00767771  0.87197660  1  0.021427  0.001633  3.800851  0.002  0.037969  0.000689  4.032574  0.001  0.034351  0.000208  4.057037  0.0  -0.002327  0.040221  0.001073  4.016489  0.002
C  C48  1  0.72711770  0.89145095  0.02366492  1  0.130942  0.00145  3.772545  0.002  0.12573  0.000192  4.012981  0.0  0.131518  -0.000106  4.034527  0.0  0.115771  0.121049  0.000832  3.99875  0.001
C  C49  1  0.27288080  0.10854815  0.97633247  1  0.131041  -0.001438  3.772463  -0.002  0.125894  -0.00019  4.012885  0.0  0.131684  0.000108  4.03443  0.0  0.115825  0.121211  -0.000831  3.998662  -0.001
C  C50  1  0.77241217  0.04734932  0.88021923  1  0.025771  -0.005591  3.79403  -0.008  0.041765  -0.001871  4.025582  -0.003  0.038625  -0.001706  4.049942  -0.003  -0.001183  0.044131  -0.002076  4.009617  -0.003
C  C51  1  0.22759486  0.95264975  0.11978045  1  0.025909  0.005611  3.794049  0.008  0.041928  0.001871  4.025624  0.003  0.038792  0.001707  4.049981  0.003  -0.001118  0.044291  0.002076  4.009659  0.003
C  C52  1  0.73690123  0.91914752  0.89897114  1  0.118202  0.006116  3.789768  0.009  0.114677  0.002007  4.028112  0.003  0.119338  0.001767  4.049902  0.003  0.113899  0.111287  0.002692  4.013473  0.004
C  C53  1  0.26309551  0.08084968  0.10102758  1  0.11819  -0.006132  3.789744  -0.009  0.114553  -0.002007  4.028265  -0.003  0.119211  -0.001768  4.050056  -0.003  0.113856  0.111165  -0.002691  4.01363  -0.004
C  C54  1  0.33777397  0.58178825  0.71542826  1  0.665644  0.003098  3.77859  0.006  0.613332  -0.000413  4.086685  0.001  0.647048  -0.000389  4.083255  0.001  0.218683  0.589856  -0.000385  4.086119  0.002
C  C55  1  0.66222523  0.41821467  0.28457534  1  0.665612  -0.0031  3.778559  -0.006  0.613282  0.00041  4.086705  -0.001  0.647009  0.000385  4.083274  -0.001  0.218683  0.589813  0.000385  4.086136  -0.002
C  C56  1  0.14730168  0.56932488  0.61381338  1  -0.133787  -0.000823  3.627802  -0.001  -0.146141  -0.000731  3.866306  -0.001  -0.150373  -0.000311  3.878446  0.0  -0.083796  -0.143414  -0.001318  3.858124  -0.001
C  C57  1  0.85270269  0.43067515  0.38619065  1  -0.133634  0.000823  3.627509  0.001  -0.146059  0.000731  3.86609  0.001  -0.150279  0.00031  3.878206  0.0  -0.083847  -0.143339  0.001317  3.857918  0.001
C  C58  1  0.17971654  0.55711703  0.47724210  1  -0.150017  -0.000676  3.624826  -0.001  -0.162202  -0.000574  3.860036  -0.001  -0.166475  -0.000396  3.872028  0.0  -0.086003  -0.159133  -0.000769  3.852162  -0.001
C  C59  1  0.82027897  0.44288113  0.52276120  1  -0.150017  0.000678  3.624705  0.001  -0.162205  0.000574  3.859935  0.001  -0.166481  0.000397  3.871923  0.0  -0.086048  -0.159148  0.000769  3.852064  0.001
C  C60  1  0.00927420  0.45998009  0.63102587  1  -0.12004  -0.003568  3.586674  -0.005  -0.13306  -0.002063  3.826817  -0.003  -0.138082  -0.001372  3.839839  -0.002  -0.082094  -0.129455  -0.00283  3.817625  -0.004
C  C61  1  0.99072699  0.54001804  0.36897647  1  -0.120045  0.003565  3.58679  0.005  -0.133044  0.002063  3.826895  0.003  -0.138062  0.001372  3.839918  0.002  -0.082059  -0.129425  0.00283  3.817677  0.004
C  C62  1  0.95335114  0.48670111  0.76065401  1  0.654259  0.000604  3.846951  0.002  0.609832  -0.002483  4.152044  -0.002  0.645154  -0.001901  4.146084  -0.002  0.207931  0.584587  -0.003079  4.154637  -0.003
C  C63  1  0.04665323  0.51329892  0.23934910  1  0.65426  -0.000605  3.847203  -0.002  0.609905  0.002482  4.152186  0.002  0.645222  0.001899  4.146238  0.002  0.207955  0.584656  0.003078  4.154783  0.003
C  C64  1  0.30154438  0.67763649  0.46715858  1  0.67296  -8e-06  3.752569  0.0  0.623031  2e-06  4.066555  0.0  0.655247  3.8e-05  4.057697  0.0  0.230839  0.600351  -3.7e-05  4.072398  0.0
C  C65  1  0.69845574  0.32236355  0.53284756  1  0.672877  8e-06  3.752943  0.0  0.622968  -3e-06  4.066897  0.0  0.655186  -3.7e-05  4.058039  0.0  0.230867  0.600285  3.7e-05  4.072746  0.0
N  N66  1  0.71103306  0.81749409  0.80307884  1  -0.344223  -0.0449  3.306455  -0.078  -0.303544  -0.030457  3.591757  -0.051  -0.327108  -0.025803  3.606794  -0.043  -0.323598  -0.286405  -0.033672  3.582073  -0.056
N  N67  1  0.28896953  0.18250404  0.19691815  1  -0.344299  0.044916  3.306481  0.078  -0.303658  0.030456  3.591927  0.051  -0.327222  0.025802  3.606969  0.043  -0.323662  -0.286521  0.033671  3.582253  0.056
N  N68  1  0.69728093  0.76606206  0.03523416  1  -0.350617  -0.04493  3.307094  -0.069  -0.312657  -0.031811  3.610121  -0.045  -0.338572  -0.025349  3.62326  -0.035  -0.326332  -0.292317  -0.037306  3.600579  -0.053
N  N69  1  0.30271740  0.23393609  0.96476308  1  -0.350651  0.04492  3.30706  0.069  -0.312677  0.031811  3.610055  0.045  -0.338588  0.025346  3.62318  0.035  -0.326334  -0.292342  0.037308  3.600544  0.053
O  O70  1  0.34657404  0.60692531  0.83503812  1  -0.606066  -0.023906  2.021036  -0.04  -0.560421  -0.019396  2.26993  -0.032  -0.591868  -0.014061  2.26248  -0.023  -0.286974  -0.534192  -0.025759  2.272867  -0.042
O  O71  1  0.65342924  0.39307664  0.16496228  1  -0.606068  0.023909  2.020897  0.04  -0.560462  0.019399  2.269873  0.032  -0.591904  0.014065  2.262405  0.023  -0.286959  -0.53423  0.02576  2.272806  0.042
O  O72  1  0.49281969  0.57190127  0.67778071  1  -0.642278  -0.03408  2.085251  -0.055  -0.587629  -0.026063  2.337929  -0.04  -0.624609  -0.019673  2.33295  -0.03  -0.304403  -0.557138  -0.033135  2.338748  -0.051
O  O73  1  0.50717968  0.42810260  0.32222211  1  -0.642287  0.034078  2.085406  0.055  -0.58762  0.026064  2.338093  0.04  -0.624601  0.019675  2.333079  0.03  -0.304402  -0.557123  0.033134  2.338903  0.051
O  O74  1  0.69194418  0.47016759  0.93755452  1  -0.84057  -0.031992  1.966365  -0.051  -0.797855  -0.029966  2.181557  -0.043  -0.82743  -0.024223  2.144165  -0.034  -0.580292  -0.773409  -0.035474  2.208297  -0.051
O  O75  1  0.30805325  0.52983343  0.06244482  1  -0.840674  0.031993  1.966325  0.051  -0.797977  0.029962  2.181536  0.043  -0.827557  0.024218  2.144145  0.034  -0.580327  -0.773525  0.035476  2.208271  0.051
O  O76  1  0.94654669  0.39577233  0.82458805  1  -0.608945  -0.003348  1.968868  -0.006  -0.563687  -0.002085  2.197462  -0.004  -0.589065  -0.001184  2.188457  -0.003  -0.312192  -0.543993  -0.003361  2.202537  -0.006
O  O77  1  0.05345130  0.60422391  0.17540982  1  -0.608976  0.003349  1.969021  0.006  -0.563745  0.002084  2.197555  0.004  -0.589124  0.001184  2.188549  0.003  -0.312219  -0.544053  0.003361  2.202633  0.006
O  O78  1  0.90290614  0.59816863  0.78689598  1  -0.62702  -0.040091  2.075578  -0.064  -0.594605  -0.028272  2.360982  -0.042  -0.630747  -0.021709  2.350102  -0.031  -0.32321  -0.564067  -0.035443  2.366338  -0.054
O  O79  1  0.09709984  0.40183235  0.21311030  1  -0.627032  0.040094  2.075648  0.064  -0.594632  0.028273  2.361009  0.042  -0.630767  0.021712  2.350134  0.031  -0.323209  -0.564097  0.035444  2.36638  0.054
O  O80  1  0.27009117  0.78486883  0.50837443  1  -0.540096  0.000235  1.896978  0.0  -0.504235  0.000182  2.114139  0.0  -0.524554  0.00012  2.106854  0.0  -0.287216  -0.488886  0.000251  2.118875  0.0
O  O81  1  0.72991089  0.21513407  0.49163520  1  -0.540056  -0.000236  1.897248  0.0  -0.50419  -0.000182  2.114394  0.0  -0.52451  -0.000122  2.107116  0.0  -0.287223  -0.488841  -0.000251  2.119132  0.0
O  O82  1  0.44346800  0.66237092  0.40796763  1  -0.54969  1.5e-05  2.091783  0.0  -0.500711  2.3e-05  2.316092  0.0  -0.522406  -1.3e-05  2.301845  0.0  -0.334639  -0.484939  3.8e-05  2.325945  0.0
O  O83  1  0.55652603  0.33763489  0.59203367  1  -0.549636  -1.3e-05  2.091781  0.0  -0.500675  -2.3e-05  2.316098  0.0  -0.522376  1.3e-05  2.301871  0.0  -0.334621  -0.484904  -3.8e-05  2.32595  0.0
