# generated using pymatgen
data_NiH7C6O5
_symmetry_space_group_name_H-M   'P 1'
_cell_length_a   13.61056573
_cell_length_b   15.55252200
_cell_length_c   15.55231477
_cell_angle_alpha   111.85564676
_cell_angle_beta   106.95808042
_cell_angle_gamma   106.96525061
_symmetry_Int_Tables_number   1
_chemical_formula_structural   NiH7C6O5
_chemical_formula_sum   'Ni12 H84 C72 O60'
_cell_volume   2608.52330504
_cell_formula_units_Z   12
loop_
 _symmetry_equiv_pos_site_id
 _symmetry_equiv_pos_as_xyz
  1  'x, y, z'
loop_
 _atom_site_type_symbol
 _atom_site_label
 _atom_site_symmetry_multiplicity
 _atom_site_fract_x
 _atom_site_fract_y
 _atom_site_fract_z
 _atom_site_occupancy
 _atom_site_pbe_bader_charge
 _atom_site_pbe_bader_spin_density
 _atom_site_pbe_cm5_charge
 _atom_site_pbe_ddec_charge
 _atom_site_pbe_ddec_spin_density
 _atom_site_pbe_ddec_sum_bond_order
 _atom_site_pbe_magmom
Ni  Ni0  1  0.69628200  0.26831071  0.58847444  1  1.219796  1.572698  0.63136  0.905756  1.759823  2.425165  1.56
Ni  Ni1  1  0.10780205  0.41149169  0.67978954  1  1.22079  1.572693  0.632315  0.906468  1.75958  2.42439  1.561
Ni  Ni2  1  0.42799714  0.32014727  0.73174259  1  1.226048  1.572594  0.631833  0.906175  1.759707  2.424626  1.56
Ni  Ni3  1  0.30372041  0.73168897  0.41152100  1  1.21972  1.572705  0.631343  0.905781  1.759832  2.425177  1.56
Ni  Ni4  1  0.89219808  0.58850798  0.32021240  1  1.220804  1.572693  0.632355  0.906547  1.759577  2.424285  1.561
Ni  Ni5  1  0.57200334  0.67985007  0.26825536  1  1.225946  1.5726  0.631831  0.906144  1.759701  2.424645  1.56
Ni  Ni6  1  0.92725927  0.31990672  0.73602476  1  1.234262  1.579706  0.635292  0.92144  1.767209  2.410721  1.568
Ni  Ni7  1  0.19125702  0.26393728  0.58386802  1  1.229781  1.579871  0.635137  0.921806  1.76738  2.412695  1.568
Ni  Ni8  1  0.60743351  0.41616175  0.68013033  1  1.230013  1.579812  0.634489  0.919652  1.766873  2.415904  1.568
Ni  Ni9  1  0.07273740  0.68009372  0.26397660  1  1.23416  1.579711  0.635276  0.921411  1.767225  2.410992  1.568
Ni  Ni10  1  0.80874656  0.73606317  0.41613444  1  1.229759  1.579877  0.635105  0.921773  1.767385  2.412705  1.568
Ni  Ni11  1  0.39256662  0.58383948  0.31987091  1  1.230066  1.579809  0.634464  0.919617  1.766868  2.415793  1.568
H  H12  1  0.95821973  0.56027707  0.54045872  1  0.108528  0.000783  0.109301  0.135995  0.000397  1.003058  0.0
H  H13  1  0.41784791  0.45955975  0.01973885  1  0.118748  0.000759  0.109747  0.135995  0.000398  1.00488  0.0
H  H14  1  0.39808380  0.98028728  0.43987829  1  0.125824  0.000743  0.109104  0.135204  0.000399  1.004096  0.0
H  H15  1  0.04178653  0.43972571  0.45954014  1  0.10884  0.000782  0.109294  0.135999  0.000397  1.003186  0.0
H  H16  1  0.58214760  0.54043837  0.98026070  1  0.118525  0.00076  0.109756  0.136005  0.000398  1.004853  0.0
H  H17  1  0.60191438  0.01971007  0.56011907  1  0.125849  0.000743  0.109118  0.135228  0.000399  1.004061  0.0
H  H18  1  0.54935182  0.44478083  0.46302873  1  0.121878  0.000761  0.110962  0.13625  0.000387  1.0043  0.0
H  H19  1  0.08626027  0.53676342  0.98155010  1  0.127953  0.000757  0.110713  0.135571  0.000387  1.004405  0.0
H  H20  1  0.10454387  0.01835563  0.55513639  1  0.129494  0.000755  0.111376  0.137139  0.000388  1.00228  0.0
H  H21  1  0.45065523  0.55522040  0.53697683  1  0.121884  0.000761  0.110949  0.136177  0.000387  1.004334  0.0
H  H22  1  0.91373909  0.46323935  0.01845023  1  0.128012  0.000757  0.110733  0.135615  0.000387  1.004344  0.0
H  H23  1  0.89545780  0.98164559  0.44486781  1  0.12964  0.000755  0.111348  0.137069  0.000388  1.002214  0.0
H  H24  1  0.73749713  0.15324969  0.45375392  1  0.589683  -0.000274  0.312359  0.338452  -0.000366  0.941573  0.0
H  H25  1  0.28373584  0.54609833  0.69942658  1  0.602204  -0.000261  0.312214  0.338104  -0.000366  0.940523  0.0
H  H26  1  0.58418982  0.30044201  0.84670073  1  0.606351  -0.000282  0.311915  0.336974  -0.000364  0.941528  0.0
H  H27  1  0.26250145  0.84674998  0.54624442  1  0.589675  -0.000274  0.312399  0.338515  -0.000365  0.941482  0.0
H  H28  1  0.71626582  0.45390289  0.30057375  1  0.602157  -0.000261  0.312224  0.338135  -0.000366  0.940517  0.0
H  H29  1  0.41580914  0.69955844  0.15329928  1  0.606346  -0.000282  0.311909  0.336935  -0.000365  0.941547  0.0
H  H30  1  0.52840898  0.27095450  0.43218172  1  0.62984  -5.5e-05  0.290445  0.334031  -0.000129  1.003165  0.0
H  H31  1  0.09621261  0.56782373  0.83878075  1  0.637209  -5.1e-05  0.290304  0.333865  -0.00013  1.003163  0.0
H  H32  1  0.25734675  0.16121552  0.72896055  1  0.634082  -5.3e-05  0.290567  0.333652  -0.000131  1.00347  0.0
H  H33  1  0.47159344  0.72904672  0.56781881  1  0.629878  -5.5e-05  0.290433  0.334059  -0.000128  1.003187  0.0
H  H34  1  0.90378482  0.43217671  0.16121823  1  0.637201  -5.1e-05  0.290332  0.333928  -0.00013  1.003043  0.0
H  H35  1  0.74265145  0.83878493  0.27103926  1  0.634089  -5.3e-05  0.290574  0.333682  -0.000131  1.003444  0.0
H  H36  1  0.53186638  0.06760362  0.35143969  1  0.080543  0.000365  0.106265  0.083655  -1.3e-05  0.976606  0.0
H  H37  1  0.18041269  0.64841207  0.71608421  1  0.066053  0.000374  0.106242  0.083546  -1.2e-05  0.976199  0.0
H  H38  1  0.46421630  0.28394117  0.93237846  1  0.095221  0.000358  0.106386  0.083596  -1.3e-05  0.977209  0.0
H  H39  1  0.46813103  0.93239372  0.64855876  1  0.080635  0.000365  0.106274  0.083696  -1.3e-05  0.976628  0.0
H  H40  1  0.81958781  0.35158682  0.28391496  1  0.066062  0.000374  0.106241  0.083551  -1.2e-05  0.976176  0.0
H  H41  1  0.53578266  0.71605928  0.06761961  1  0.095203  0.000358  0.106392  0.083603  -1.3e-05  0.977192  0.0
H  H42  1  0.61863075  0.08352500  0.28512557  1  0.028128  0.003806  0.098752  0.058771  0.001732  0.992599  0.002
H  H43  1  0.33349045  0.71468585  0.79824654  1  0.035545  0.003813  0.098925  0.058803  0.001735  0.992474  0.002
H  H44  1  0.53494724  0.20161892  0.91648712  1  0.033546  0.003806  0.098646  0.058582  0.001731  0.992081  0.002
H  H45  1  0.38136590  0.91647234  0.71487269  1  0.028222  0.003806  0.098774  0.058794  0.001732  0.992592  0.002
H  H46  1  0.66650967  0.28531538  0.20175470  1  0.035204  0.003813  0.098944  0.058808  0.001735  0.992484  0.002
H  H47  1  0.46505133  0.79838076  0.08351186  1  0.033505  0.003806  0.098657  0.058594  0.001731  0.992077  0.002
H  H48  1  0.48099097  0.13646013  0.22522860  1  0.030242  0.000205  0.100605  0.062882  0.000102  0.962359  0.0
H  H49  1  0.25585441  0.77469770  0.91107725  1  0.016316  0.000208  0.100758  0.063687  0.000102  0.961888  0.0
H  H50  1  0.34440168  0.08888622  0.86360840  1  0.01748  0.000207  0.100508  0.062822  0.000102  0.96155  0.0
H  H51  1  0.51900222  0.86353489  0.77476984  1  0.030289  0.000205  0.100589  0.062859  0.000102  0.962374  0.0
H  H52  1  0.74414301  0.22530120  0.08892179  1  0.016286  0.000208  0.100775  0.063667  0.000102  0.961886  0.0
H  H53  1  0.65559652  0.91111422  0.13639013  1  0.01751  0.000207  0.100492  0.062833  0.000102  0.961516  0.0
H  H54  1  0.60936870  0.25365443  0.31884172  1  0.02921  0.000135  0.090197  0.047216  6.4e-05  1.009959  0.0
H  H55  1  0.29057436  0.68110829  0.93474330  1  0.02534  0.000135  0.090049  0.047404  6.4e-05  1.009768  0.0
H  H56  1  0.35567150  0.06523285  0.74643798  1  0.045078  0.000133  0.090106  0.04715  6.3e-05  1.009178  0.0
H  H57  1  0.39062793  0.74634136  0.68115403  1  0.029224  0.000135  0.090201  0.047235  6.4e-05  1.009905  0.0
H  H58  1  0.70942115  0.31889138  0.06525554  1  0.025308  0.000135  0.090021  0.04737  6.4e-05  1.009765  0.0
H  H59  1  0.64432631  0.93476682  0.25356016  1  0.045031  0.000133  0.090104  0.047161  6.3e-05  1.009165  0.0
H  H60  1  0.93462347  0.23182277  0.85071478  1  0.629376  0.000795  0.338668  0.374314  0.000396  0.861935  0.001
H  H61  1  0.08384098  0.14927009  0.38095040  1  0.626685  0.000804  0.339573  0.376002  0.000407  0.861809  0.001
H  H62  1  0.70297955  0.61900276  0.76829769  1  0.635793  0.000767  0.338516  0.374114  0.000403  0.862521  0.001
H  H63  1  0.06537665  0.76817691  0.14928651  1  0.629385  0.000795  0.33866  0.374299  0.000396  0.861953  0.001
H  H64  1  0.91615836  0.85072803  0.61904819  1  0.626756  0.000803  0.339555  0.375981  0.000406  0.861822  0.001
H  H65  1  0.29702019  0.38099768  0.23170380  1  0.636391  0.000764  0.338518  0.374096  0.000403  0.862579  0.001
H  H66  1  0.97801177  0.05808805  0.88262843  1  0.637483  0.0  0.289201  0.332559  -3.2e-05  1.0113  0.0
H  H67  1  0.09539236  0.11739719  0.17545369  1  0.637553  -0.0  0.289773  0.333535  -3.1e-05  1.009886  0.0
H  H68  1  0.91992270  0.82449422  0.94192705  1  0.635707  0.0  0.289401  0.333474  -3.1e-05  1.010855  0.0
H  H69  1  0.02198758  0.94191162  0.11737139  1  0.637485  0.0  0.289192  0.332548  -3.2e-05  1.011325  0.0
H  H70  1  0.90460738  0.88260326  0.82454716  1  0.637527  -0.0  0.289769  0.333527  -3.1e-05  1.0099  0.0
H  H71  1  0.08007550  0.17550623  0.05807405  1  0.635714  0.0  0.289385  0.333454  -3.1e-05  1.010833  0.0
H  H72  1  0.10094585  0.21535967  0.77608903  1  0.082373  0.000218  0.114971  0.102645  -0.000105  0.977553  0.0
H  H73  1  0.32479626  0.22393673  0.43923309  1  0.092542  0.00022  0.115003  0.102125  -0.000105  0.977441  0.0
H  H74  1  0.88562040  0.56068422  0.78467594  1  0.11001  0.000212  0.115183  0.102092  -0.000106  0.976085  0.0
H  H75  1  0.89905466  0.78464077  0.22391266  1  0.082346  0.000218  0.114964  0.102655  -0.000105  0.977543  0.0
H  H76  1  0.67520194  0.77606217  0.56076743  1  0.092543  0.00022  0.115002  0.102123  -0.000105  0.977428  0.0
H  H77  1  0.11437973  0.43931700  0.21532400  1  0.110004  0.000212  0.115175  0.102074  -0.000106  0.976083  0.0
H  H78  1  0.97226250  0.10646055  0.73659229  1  0.037737  -0.000228  0.10033  0.068628  -0.000301  0.986356  0.0
H  H79  1  0.23573236  0.26346932  0.36976389  1  0.038145  -0.000229  0.099974  0.06753  -0.000301  0.986665  0.0
H  H80  1  0.86593361  0.63010932  0.89363680  1  0.03681  -0.000228  0.100166  0.067688  -0.000301  0.987061  0.0
H  H81  1  0.02773840  0.89354067  0.26340914  1  0.037706  -0.000228  0.100324  0.068612  -0.000301  0.986352  0.0
H  H82  1  0.76426738  0.73652957  0.63023701  1  0.038114  -0.000229  0.099997  0.067556  -0.000301  0.986686  0.0
H  H83  1  0.13406690  0.36989113  0.10636424  1  0.036827  -0.000228  0.100172  0.067692  -0.000301  0.987046  0.0
H  H84  1  0.14655499  0.13360190  0.87808539  1  0.086928  0.001417  0.102574  0.079863  0.000625  0.996683  0.001
H  H85  1  0.26848693  0.12192455  0.25546867  1  0.085666  0.001416  0.103651  0.081381  0.000623  0.998047  0.001
H  H86  1  0.01307713  0.74454935  0.86651467  1  0.101456  0.001405  0.10294  0.080887  0.000624  0.997958  0.001
H  H87  1  0.85344436  0.86639777  0.12191571  1  0.086916  0.001417  0.102584  0.079896  0.000625  0.99669  0.001
H  H88  1  0.73151204  0.87807590  0.74453134  1  0.085653  0.001416  0.103654  0.081385  0.000623  0.998015  0.001
H  H89  1  0.98692262  0.25545265  0.13348675  1  0.101473  0.001405  0.102922  0.080874  0.000624  0.997956  0.001
H  H90  1  0.16161558  0.25764121  0.96060225  1  0.084078  6e-06  0.102155  0.074866  -3.4e-05  0.984639  0.0
H  H91  1  0.20103189  0.03941957  0.29702623  1  0.060453  1.2e-05  0.102245  0.075222  -3.5e-05  0.983605  0.0
H  H92  1  0.90408159  0.70295074  0.74242389  1  0.064428  1.3e-05  0.102155  0.075279  -3.4e-05  0.983749  0.0
H  H93  1  0.83838531  0.74235846  0.03939923  1  0.084068  6e-06  0.102161  0.074868  -3.4e-05  0.984634  0.0
H  H94  1  0.79896745  0.96057855  0.70297171  1  0.060457  1.2e-05  0.102255  0.075225  -3.5e-05  0.983585  0.0
H  H95  1  0.09591777  0.29705049  0.25757715  1  0.064521  1.3e-05  0.102159  0.075273  -3.4e-05  0.983742  0.0
C  C96  1  0.89783904  0.43395405  0.61029981  1  1.526821  0.00282  0.226076  0.614854  0.001691  4.091006  0.001
C  C97  1  0.28760148  0.38969714  0.82360547  1  1.520653  0.00274  0.226471  0.615254  0.001673  4.091397  0.001
C  C98  1  0.46402178  0.17637880  0.56614748  1  1.531257  0.002804  0.226999  0.618574  0.00167  4.089549  0.001
C  C99  1  0.10216414  0.56604562  0.38970033  1  1.526029  0.002822  0.225984  0.614667  0.001693  4.091414  0.001
C  C100  1  0.71239672  0.61030176  0.17639440  1  1.520661  0.00274  0.226455  0.615239  0.001673  4.091334  0.001
C  C101  1  0.53598177  0.82362009  0.43384860  1  1.531127  0.002803  0.227009  0.618626  0.001668  4.089477  0.001
C  C102  1  0.70114460  0.43166508  0.53118958  1  0.57484  0.010644  0.070312  0.292086  0.007223  4.081209  0.006
C  C103  1  0.16998342  0.46870478  0.90038145  1  0.557838  0.010684  0.07099  0.29426  0.007233  4.080356  0.006
C  C104  1  0.26945261  0.09959185  0.56823501  1  0.552561  0.010714  0.070438  0.29374  0.007239  4.081893  0.006
C  C105  1  0.29886394  0.56833304  0.46880941  1  0.575359  0.010644  0.070266  0.292086  0.007223  4.08107  0.006
C  C106  1  0.83001517  0.53129644  0.09961940  1  0.55809  0.010682  0.071098  0.294355  0.007232  4.080178  0.006
C  C107  1  0.73055133  0.90040782  0.43176275  1  0.552559  0.010717  0.070546  0.293823  0.00724  4.081735  0.006
C  C108  1  0.81966971  0.46538637  0.55359714  1  -0.065414  0.017388  -0.02791  -0.136464  0.009835  3.946402  0.012
C  C109  1  0.26612529  0.44634659  0.91169903  1  0.011968  0.017239  -0.028116  -0.138817  0.00984  3.948311  0.012
C  C110  1  0.35432233  0.08828130  0.53460026  1  -0.002212  0.017279  -0.0281  -0.139833  0.009841  3.951161  0.012
C  C111  1  0.18033925  0.53461719  0.44640269  1  -0.065584  0.017389  -0.027833  -0.136363  0.009835  3.946278  0.012
C  C112  1  0.73387213  0.55365230  0.08830001  1  0.01128  0.017241  -0.028102  -0.138797  0.00984  3.948194  0.012
C  C113  1  0.64567932  0.91171681  0.46540020  1  -0.002207  0.017275  -0.028084  -0.139803  0.009839  3.950777  0.012
C  C114  1  0.86805463  0.53492008  0.52367509  1  -0.020897  0.019104  -0.101132  -0.195107  0.011061  3.9407  0.012
C  C115  1  0.34443254  0.47626936  0.01114750  1  -0.079184  0.019208  -0.101259  -0.193898  0.011061  3.942158  0.012
C  C116  1  0.33322133  0.98884989  0.46513375  1  -0.064581  0.019139  -0.100873  -0.193002  0.011058  3.942058  0.012
C  C117  1  0.13195086  0.46508115  0.47632235  1  -0.021485  0.019104  -0.101194  -0.195201  0.01106  3.940732  0.012
C  C118  1  0.65556335  0.52372953  0.98885180  1  -0.078351  0.019206  -0.101243  -0.193898  0.011061  3.942078  0.012
C  C119  1  0.66678109  0.01114823  0.53486818  1  -0.064139  0.019136  -0.100932  -0.193101  0.011057  3.941857  0.012
C  C120  1  0.80664871  0.57392299  0.47209097  1  0.599371  0.006018  0.063962  0.27397  0.004984  4.141893  0.003
C  C121  1  0.33458886  0.52785665  0.10170654  1  0.595466  0.006027  0.063481  0.27402  0.004973  4.142031  0.003
C  C122  1  0.23281006  0.89826014  0.42614117  1  0.571798  0.006086  0.063133  0.272679  0.004986  4.139872  0.003
C  C123  1  0.19335256  0.42607745  0.52790962  1  0.599704  0.006018  0.063998  0.27407  0.004984  4.141856  0.003
C  C124  1  0.66540820  0.47214458  0.89829391  1  0.595381  0.006028  0.063527  0.274185  0.004973  4.141909  0.003
C  C125  1  0.76719006  0.10173954  0.57386077  1  0.571728  0.006081  0.063149  0.272666  0.004984  4.139869  0.003
C  C126  1  0.68703139  0.53798337  0.44821983  1  -0.108923  0.021414  -0.041545  -0.178879  0.012003  4.008046  0.015
C  C127  1  0.23879048  0.55166875  0.08963533  1  -0.073514  0.021367  -0.042717  -0.182986  0.012004  4.00935  0.015
C  C128  1  0.14907087  0.91034832  0.46199028  1  -0.083552  0.021342  -0.040697  -0.178123  0.012012  4.007963  0.015
C  C129  1  0.31297182  0.46201785  0.55178411  1  -0.108874  0.021414  -0.041536  -0.17894  0.012003  4.008244  0.015
C  C130  1  0.76120812  0.44833403  0.91036546  1  -0.073565  0.021366  -0.0428  -0.18312  0.012003  4.00946  0.015
C  C131  1  0.85093080  0.08965446  0.53801193  1  -0.083769  0.021343  -0.040663  -0.178043  0.012012  4.008031  0.015
C  C132  1  0.63941925  0.46966590  0.47961968  1  0.005971  0.016093  -0.101386  -0.197787  0.009509  3.975808  0.01
C  C133  1  0.15977512  0.52022926  0.98990806  1  -0.038497  0.016164  -0.101723  -0.196812  0.009505  3.973963  0.01
C  C134  1  0.16971217  0.01006079  0.53021895  1  0.002019  0.01609  -0.102248  -0.199728  0.009511  3.975375  0.01
C  C135  1  0.36058355  0.53033145  0.52038206  1  0.005565  0.016096  -0.101342  -0.197659  0.00951  3.97577  0.01
C  C136  1  0.84022386  0.47977274  0.01009188  1  -0.038778  0.016161  -0.101785  -0.196889  0.009503  3.973997  0.01
C  C137  1  0.83028797  0.98994198  0.46978544  1  0.002144  0.016089  -0.102299  -0.199718  0.009511  3.975444  0.01
C  C138  1  0.60724385  0.56757914  0.39115015  1  1.518244  0.00262  0.220773  0.609124  0.0015  4.113178  0.001
C  C139  1  0.21609523  0.60877700  0.17630727  1  1.527683  0.002571  0.223265  0.614229  0.001503  4.109952  0.001
C  C140  1  0.03972705  0.82364863  0.43240039  1  1.503858  0.002715  0.220923  0.609917  0.001494  4.113133  0.001
C  C141  1  0.39275128  0.43241820  0.60885351  1  1.518448  0.00262  0.220773  0.609129  0.0015  4.113148  0.001
C  C142  1  0.78390375  0.39122500  0.82369332  1  1.527921  0.002571  0.223221  0.61415  0.001505  4.11024  0.001
C  C143  1  0.96027424  0.17635337  0.56760207  1  1.503855  0.002713  0.220908  0.609807  0.001492  4.113045  0.001
C  C144  1  0.59343507  0.12428452  0.34318406  1  0.390709  0.001673  -0.076351  0.027103  0.00094  3.889135  0.001
C  C145  1  0.25023812  0.65664226  0.78098636  1  0.403159  0.001673  -0.076286  0.027399  0.000941  3.888334  0.001
C  C146  1  0.46903750  0.21894834  0.87571830  1  0.365503  0.001672  -0.07694  0.025766  0.000939  3.890797  0.001
C  C147  1  0.40656197  0.87571360  0.65681459  1  0.390392  0.001674  -0.076391  0.027013  0.00094  3.889183  0.001
C  C148  1  0.74976200  0.34335741  0.21901365  1  0.403499  0.001672  -0.0763  0.027367  0.000941  3.8883  0.001
C  C149  1  0.53096070  0.78105211  0.12428023  1  0.365733  0.001671  -0.076928  0.025773  0.000938  3.890876  0.001
C  C150  1  0.54011425  0.18632739  0.30885278  1  0.49184  9.7e-05  -0.081638  0.053692  -3.8e-05  3.991985  0.0
C  C151  1  0.23131103  0.69106448  0.87738176  1  0.500408  9.7e-05  -0.081351  0.052176  -3.9e-05  3.993471  0.0
C  C152  1  0.35367770  0.12259564  0.81369474  1  0.496863  9.6e-05  -0.081062  0.054501  -3.9e-05  3.991526  0.0
C  C153  1  0.45988241  0.81367151  0.69114671  1  0.492002  9.7e-05  -0.081627  0.053739  -3.8e-05  3.99184  0.0
C  C154  1  0.76868601  0.30893364  0.12261561  1  0.50039  9.7e-05  -0.081324  0.052335  -3.9e-05  3.993343  0.0
C  C155  1  0.64632050  0.87740481  0.18630379  1  0.496625  9.6e-05  -0.081065  0.054441  -3.9e-05  3.991526  0.0
C  C156  1  0.03867524  0.18419142  0.80119472  1  0.419828  0.002788  -0.076533  0.036273  0.001804  3.878177  0.002
C  C157  1  0.23746400  0.19885297  0.38290461  1  0.416654  0.002773  -0.074673  0.040646  0.001813  3.874445  0.002
C  C158  1  0.85461277  0.61701163  0.81590618  1  0.382209  0.002818  -0.07563  0.039862  0.001809  3.873359  0.002
C  C159  1  0.96132527  0.81580902  0.19880696  1  0.419834  0.002788  -0.076473  0.036365  0.001804  3.87806  0.002
C  C160  1  0.76253573  0.80114593  0.61709566  1  0.416669  0.002773  -0.074736  0.040537  0.001813  3.874541  0.002
C  C161  1  0.14538697  0.38298882  0.18409466  1  0.382222  0.002819  -0.075596  0.039937  0.00181  3.873215  0.002
C  C162  1  0.09926392  0.17878955  0.89617499  1  0.384677  0.003332  -0.082974  0.023454  0.002064  3.941006  0.002
C  C163  1  0.20309990  0.10383514  0.28256351  1  0.398688  0.003322  -0.084372  0.020366  0.002056  3.942976  0.002
C  C164  1  0.92059088  0.71740535  0.82129300  1  0.394594  0.003327  -0.08369  0.021325  0.002059  3.943617  0.002
C  C165  1  0.90073582  0.82121090  0.10382585  1  0.384996  0.003332  -0.083054  0.023308  0.002064  3.941044  0.002
C  C166  1  0.79689906  0.89616376  0.71743527  1  0.398671  0.003322  -0.084347  0.020458  0.002056  3.942874  0.002
C  C167  1  0.07940847  0.28259432  0.17870681  1  0.39465  0.003327  -0.083654  0.021341  0.002059  3.943632  0.002
O  O168  1  0.85854751  0.37963989  0.64918217  1  -1.143986  0.114558  -0.314833  -0.577602  0.063693  2.613966  0.105
O  O169  1  0.20938608  0.35079459  0.73042890  1  -1.141585  0.114796  -0.314762  -0.57696  0.063951  2.614178  0.105
O  O170  1  0.47908372  0.26957297  0.62053646  1  -1.147963  0.114633  -0.314372  -0.577653  0.063773  2.614536  0.105
O  O171  1  0.14145838  0.62036366  0.35081689  1  -1.143325  0.114576  -0.314803  -0.577602  0.063703  2.614125  0.105
O  O172  1  0.79061174  0.64920508  0.26957245  1  -1.141561  0.114799  -0.314788  -0.577003  0.063953  2.614084  0.105
O  O173  1  0.52092408  0.73042981  0.37946407  1  -1.148025  0.114617  -0.314421  -0.577698  0.063761  2.614619  0.105
O  O174  1  0.64137949  0.36362495  0.55328216  1  -1.132788  0.12315  -0.345077  -0.58749  0.068887  2.581454  0.113
O  O175  1  0.08817200  0.44666576  0.81028040  1  -1.137155  0.123313  -0.345398  -0.588312  0.06897  2.580689  0.113
O  O176  1  0.27778397  0.18970551  0.63632822  1  -1.140159  0.123214  -0.345221  -0.587863  0.068951  2.581341  0.113
O  O177  1  0.35862831  0.63637627  0.44671973  1  -1.132948  0.123154  -0.345106  -0.587578  0.068889  2.581395  0.113
O  O178  1  0.91182736  0.55333547  0.18971999  1  -1.137116  0.123305  -0.345465  -0.588454  0.068966  2.580734  0.113
O  O179  1  0.72221882  0.81029494  0.36366761  1  -1.140239  0.123208  -0.345237  -0.587861  0.068948  2.581277  0.113
O  O180  1  0.00015866  0.46394736  0.62154989  1  -1.135297  0.074656  -0.293491  -0.52116  0.040819  2.359798  0.068
O  O181  1  0.37868355  0.37848531  0.84235246  1  -1.133669  0.07474  -0.293839  -0.521238  0.04084  2.361465  0.068
O  O182  1  0.53631908  0.15761125  0.53616358  1  -1.133492  0.074654  -0.294339  -0.522829  0.040822  2.360046  0.068
O  O183  1  0.99985339  0.53605775  0.37845516  1  -1.135162  0.074636  -0.293482  -0.521089  0.040808  2.360106  0.068
O  O184  1  0.62131349  0.62151281  0.15764554  1  -1.133706  0.074744  -0.293791  -0.521174  0.040842  2.361499  0.068
O  O185  1  0.46367600  0.84238765  0.46382523  1  -1.133285  0.074662  -0.294338  -0.52287  0.040826  2.35993  0.068
O  O186  1  0.86429089  0.64072509  0.44863907  1  -1.114983  0.136945  -0.356594  -0.585304  0.076178  2.559393  0.125
O  O187  1  0.41565225  0.55136887  0.19200796  1  -1.119994  0.137198  -0.356174  -0.584912  0.076105  2.557457  0.125
O  O188  1  0.22363088  0.80798800  0.35937448  1  -1.122605  0.137097  -0.356314  -0.584378  0.076137  2.555072  0.125
O  O189  1  0.13571116  0.35927691  0.55136229  1  -1.11493  0.136939  -0.356574  -0.585293  0.076175  2.559333  0.125
O  O190  1  0.58434594  0.44863157  0.80799121  1  -1.119781  0.137204  -0.356207  -0.584997  0.076109  2.557395  0.125
O  O191  1  0.77636077  0.19201012  0.64062153  1  -1.122962  0.137086  -0.356345  -0.584429  0.076128  2.555187  0.125
O  O192  1  0.50353095  0.53278979  0.37627929  1  -1.138141  0.072197  -0.298878  -0.517668  0.039399  2.321676  0.066
O  O193  1  0.12732154  0.62373653  0.15642256  1  -1.139671  0.072192  -0.300912  -0.521227  0.039418  2.319591  0.066
O  O194  1  0.97078583  0.84354930  0.46718465  1  -1.140043  0.072348  -0.299278  -0.519317  0.03942  2.322564  0.066
O  O195  1  0.49646647  0.46720445  0.62372315  1  -1.138055  0.072206  -0.298881  -0.517699  0.039404  2.321673  0.066
O  O196  1  0.87267668  0.37626702  0.84357970  1  -1.139919  0.072194  -0.300895  -0.521177  0.039417  2.319798  0.066
O  O197  1  0.02921773  0.15645270  0.53281131  1  -1.14011  0.072353  -0.299282  -0.519267  0.039424  2.322272  0.066
O  O198  1  0.64735559  0.62693287  0.35725824  1  -1.140372  0.118038  -0.314449  -0.566313  0.06574  2.63812  0.109
O  O199  1  0.29006533  0.64266275  0.26956445  1  -1.143681  0.118083  -0.314145  -0.566208  0.065779  2.638753  0.109
O  O200  1  0.02049048  0.73040267  0.37309571  1  -1.133837  0.117991  -0.314531  -0.565523  0.065751  2.636824  0.109
O  O201  1  0.35263993  0.37306524  0.64274518  1  -1.14062  0.118042  -0.31451  -0.566373  0.065736  2.638234  0.109
O  O202  1  0.70993288  0.35733925  0.73043595  1  -1.143716  0.118076  -0.314105  -0.566157  0.065774  2.638663  0.109
O  O203  1  0.97950963  0.26959545  0.62690372  1  -1.133831  0.11798  -0.314529  -0.565526  0.065745  2.636947  0.109
O  O204  1  0.69701323  0.19356609  0.44147424  1  -1.089135  0.049505  -0.385975  -0.456717  0.027531  2.406585  0.045
O  O205  1  0.25547285  0.55835036  0.75198420  1  -1.096437  0.04955  -0.386468  -0.45664  0.027563  2.406121  0.045
O  O206  1  0.50337371  0.24788185  0.80641147  1  -1.106933  0.049566  -0.38573  -0.45445  0.027562  2.407088  0.045
O  O207  1  0.30298611  0.80643358  0.55852300  1  -1.08907  0.049499  -0.38599  -0.456756  0.027527  2.406527  0.045
O  O208  1  0.74453111  0.44165086  0.24801800  1  -1.096381  0.049545  -0.386485  -0.4567  0.027562  2.406203  0.045
O  O209  1  0.49662603  0.75212015  0.19358803  1  -1.106927  0.049567  -0.385762  -0.454432  0.027563  2.407129  0.045
O  O210  1  0.47446202  0.21784371  0.35825510  1  -1.15894  0.00099  -0.42315  -0.497084  0.000445  2.265629  0.001
O  O211  1  0.11627847  0.64175672  0.85958416  1  -1.166643  0.000981  -0.423023  -0.496357  0.000442  2.266641  0.001
O  O212  1  0.25647206  0.14038580  0.78205674  1  -1.164947  0.000982  -0.422892  -0.496224  0.000441  2.265054  0.001
O  O213  1  0.52553772  0.78215674  0.64174575  1  -1.159097  0.000991  -0.423158  -0.497149  0.000445  2.265625  0.001
O  O214  1  0.88371818  0.35824218  0.14041340  1  -1.166578  0.000981  -0.423055  -0.496459  0.000442  2.266596  0.001
O  O215  1  0.74352653  0.85961542  0.21794282  1  -1.164898  0.000982  -0.422887  -0.496225  0.000441  2.265028  0.001
O  O216  1  0.98805739  0.25457357  0.82444734  1  -1.122848  0.044905  -0.381337  -0.469034  0.025014  2.457874  0.041
O  O217  1  0.16354270  0.17565426  0.43001060  1  -1.118919  0.044806  -0.383942  -0.473167  0.02501  2.457521  0.041
O  O218  1  0.73359530  0.56993845  0.74555036  1  -1.123937  0.044874  -0.382403  -0.470464  0.024986  2.456077  0.041
O  O219  1  0.01194312  0.74542688  0.17555434  1  -1.122851  0.044905  -0.381339  -0.469038  0.025014  2.457916  0.041
O  O220  1  0.83645587  0.82434386  0.56998843  1  -1.118986  0.044806  -0.383916  -0.473132  0.025009  2.457566  0.041
O  O221  1  0.26640598  0.43006355  0.25445017  1  -1.124532  0.044878  -0.382464  -0.470536  0.024986  2.456094  0.041
O  O222  1  0.01954452  0.13546455  0.93011914  1  -1.166466  0.000337  -0.411067  -0.501117  -3e-05  2.300266  0.0
O  O223  1  0.08944449  0.06986904  0.20530044  1  -1.165007  0.000338  -0.411497  -0.501422  -3e-05  2.29942  0.0
O  O224  1  0.88412069  0.79462172  0.86455118  1  -1.167324  0.000335  -0.410751  -0.501849  -3e-05  2.301225  0.0
O  O225  1  0.98045560  0.86453512  0.06988216  1  -1.166742  0.000337  -0.411028  -0.501056  -3e-05  2.300287  0.0
O  O226  1  0.91055409  0.93013063  0.79469918  1  -1.164981  0.000338  -0.411512  -0.501458  -3e-05  2.299436  0.0
O  O227  1  0.11587752  0.20537873  0.13544992  1  -1.167517  0.000335  -0.410746  -0.501822  -3e-05  2.301222  0.0
