# generated using pymatgen
data_Cd5H32C34(N3O2)6
_symmetry_space_group_name_H-M   'P 1'
_cell_length_a   8.69220246
_cell_length_b   9.15955471
_cell_length_c   16.00155422
_cell_angle_alpha   73.57704562
_cell_angle_beta   87.48586757
_cell_angle_gamma   70.25077761
_symmetry_Int_Tables_number   1
_chemical_formula_structural   Cd5H32C34(N3O2)6
_chemical_formula_sum   'Cd5 H32 C34 N18 O12'
_cell_volume   1148.24988380
_cell_formula_units_Z   1
loop_
 _symmetry_equiv_pos_site_id
 _symmetry_equiv_pos_as_xyz
  1  'x, y, z'
loop_
 _atom_site_type_symbol
 _atom_site_label
 _atom_site_symmetry_multiplicity
 _atom_site_fract_x
 _atom_site_fract_y
 _atom_site_fract_z
 _atom_site_occupancy
 _atom_site_hle17_bader_spin_density
 _atom_site_hle17_ddec_charge
 _atom_site_hle17_ddec_spin_density
 _atom_site_hle17_ddec_sum_bond_order
 _atom_site_hle17_magmom
 _atom_site_hse06_10hf_bader_spin_density
 _atom_site_hse06_10hf_ddec_charge
 _atom_site_hse06_10hf_ddec_spin_density
 _atom_site_hse06_10hf_ddec_sum_bond_order
 _atom_site_hse06_10hf_magmom
 _atom_site_hse06_bader_spin_density
 _atom_site_hse06_ddec_charge
 _atom_site_hse06_ddec_spin_density
 _atom_site_hse06_ddec_sum_bond_order
 _atom_site_hse06_magmom
 _atom_site_pbe_bader_spin_density
 _atom_site_pbe_cm5_charge
 _atom_site_pbe_ddec_charge
 _atom_site_pbe_ddec_spin_density
 _atom_site_pbe_ddec_sum_bond_order
 _atom_site_pbe_magmom
Cd  Cd0  1  0.82611858  0.33280477  0.16926497  1  0  1.095665  0  1.865085  0  0  0.909834  0  2.338619  0  0  0.960776  0  2.286403  0  0  0.762204  0.872801  0  2.373504  0
Cd  Cd1  1  0.17388269  0.66719370  0.83073213  1  0  1.09568  0  1.865166  0  0  0.909879  0  2.33869  0  0  0.960817  0  2.286477  0  0  0.762239  0.872866  0  2.373576  0
Cd  Cd2  1  0.50000523  0.49999959  0.99999901  1  0  1.113502  0  2.26506  0  0  0.963146  0  2.784221  0  0  1.003848  0  2.74611  0  0  0.860436  0.927757  0  2.810589  0
Cd  Cd3  1  0.61469878  0.08944656  0.14711223  1  0  1.098719  0  1.78417  0  0  0.919918  0  2.24019  0  0  0.974374  0  2.186353  0  0  0.751469  0.880295  0  2.275775  0
Cd  Cd4  1  0.38531126  0.91055320  0.85288070  1  0  1.09877  0  1.784097  0  0  0.919969  0  2.240104  0  0  0.97443  0  2.186265  0  0  0.751501  0.880361  0  2.275692  0
H  H5  1  0.25260042  0.90319872  0.32297441  1  0  0.096603  0  0.96442  0  0  0.104578  0  1.030543  0  0  0.107477  0  1.027671  0  0  0.102449  0.102183  0  1.032999  0
H  H6  1  0.74739696  0.09678755  0.67702968  1  0  0.096653  0  0.964371  0  0  0.104607  0  1.030507  0  0  0.107502  0  1.027644  0  0  0.102456  0.102232  0  1.032948  0
H  H7  1  0.47514242  0.65246719  0.39903902  1  0  0.109424  0  0.942115  0  0  0.119943  0  1.002959  0  0  0.124104  0  1.000357  0  0  0.103291  0.116676  0  1.005234  0
H  H8  1  0.52485541  0.34751436  0.60096141  1  0  0.109401  0  0.942087  0  0  0.119879  0  1.002991  0  0  0.124076  0  1.000348  0  0  0.103268  0.116618  0  1.005263  0
H  H9  1  0.27825728  0.37823436  0.28114781  1  0  0.11361  0  0.960882  0  0  0.121103  0  1.025941  0  0  0.123096  0  1.026611  0  0  0.104816  0.119544  0  1.025747  0
H  H10  1  0.72173290  0.62175946  0.71884466  1  0  0.113676  0  0.961075  0  0  0.121187  0  1.026094  0  0  0.123187  0  1.02676  0  0  0.104844  0.119631  0  1.025907  0
H  H11  1  0.05469694  0.62724236  0.20913677  1  0  0.090551  0  0.973577  0  0  0.095288  0  1.044832  0  0  0.097128  0  1.043481  0  0  0.099156  0.094103  0  1.045652  0
H  H12  1  0.94529687  0.37276107  0.79085599  1  0  0.090699  0  0.973573  0  0  0.095377  0  1.044884  0  0  0.097216  0  1.043536  0  0  0.099202  0.094198  0  1.045702  0
H  H13  1  0.40425188  0.19306104  0.41737292  1  0  0.052518  0  0.941471  0  0  0.05782  0  1.010545  0  0  0.058734  0  1.010042  0  0  0.106269  0.057417  0  1.010894  0
H  H14  1  0.59575130  0.80692171  0.58262657  1  0  0.05243  0  0.941441  0  0  0.057833  0  1.010535  0  0  0.058747  0  1.010042  0  0  0.106207  0.05743  0  1.010887  0
H  H15  1  0.63062640  0.10992929  0.52955507  1  0  0.110554  0  0.946985  0  0  0.13147  0  1.008714  0  0  0.133122  0  1.008176  0  0  0.090456  0.130503  0  1.008904  0
H  H16  1  0.36936527  0.89007036  0.47044459  1  0  0.110644  0  0.94698  0  0  0.131519  0  1.008731  0  0  0.133171  0  1.008194  0  0  0.090481  0.130557  0  1.008911  0
H  H17  1  0.77492344  0.11503153  0.44648820  1  0  0.116776  0  0.93627  0  0  0.135291  0  0.997299  0  0  0.136844  0  0.997636  0  0  0.091121  0.134499  0  0.996825  0
H  H18  1  0.22507896  0.88497042  0.55351396  1  0  0.116819  0  0.936287  0  0  0.135311  0  0.997324  0  0  0.136863  0  0.997662  0  0  0.091123  0.134522  0  0.996854  0
H  H19  1  0.67924036  0.96669716  0.46817899  1  0  0.115456  0  0.967414  0  0  0.130909  0  1.03594  0  0  0.132726  0  1.035114  0  0  0.09128  0.129599  0  1.036656  0
H  H20  1  0.32077161  0.03329025  0.53182582  1  0  0.115567  0  0.96734  0  0  0.131028  0  1.035829  0  0  0.13285  0  1.034995  0  0  0.091318  0.129721  0  1.036546  0
H  H21  1  0.13029780  0.13212224  0.33502402  1  0  0.097776  0  0.949124  0  0  0.105434  0  1.013028  0  0  0.107601  0  1.009995  0  0  0.135588  0.103639  0  1.01553  0
H  H22  1  0.86968369  0.86788699  0.66497877  1  0  0.097642  0  0.949288  0  0  0.105303  0  1.013195  0  0  0.107469  0  1.010162  0  0  0.13556  0.103515  0  1.015697  0
H  H23  1  0.73854168  0.55099056  0.33867372  1  0  0.108655  0  0.929918  0  0  0.118302  0  0.994787  0  0  0.120242  0  0.991127  0  0  0.146254  0.116614  0  0.997069  0
H  H24  1  0.26145286  0.44902097  0.66133152  1  0  0.108601  0  0.930068  0  0  0.118253  0  0.994924  0  0  0.120195  0  0.991265  0  0  0.146222  0.116572  0  0.997213  0
H  H25  1  0.93014616  0.37730146  0.56194890  1  0  0.092607  0  0.928787  0  0  0.106594  0  0.993878  0  0  0.106559  0  0.994346  0  0  0.1187  0.10649  0  0.992857  0
H  H26  1  0.06985420  0.62270650  0.43805425  1  0  0.092546  0  0.928833  0  0  0.106568  0  0.993909  0  0  0.106504  0  0.994402  0  0  0.118691  0.106465  0  0.992881  0
H  H27  1  0.81132474  0.56739636  0.49023410  1  0  0.097411  0  0.904265  0  0  0.115329  0  0.960825  0  0  0.116154  0  0.959202  0  0  0.12596  0.114408  0  0.961565  0
H  H28  1  0.18866650  0.43262485  0.50976972  1  0  0.097453  0  0.904309  0  0  0.115366  0  0.96087  0  0  0.116191  0  0.95924  0  0  0.125963  0.114444  0  0.961613  0
H  H29  1  0.80432567  0.70955545  0.19443367  1  0  0.079121  0  0.99694  0  0  0.089833  0  1.062858  0  0  0.093214  0  1.05829  0  0  0.12314  0.087045  0  1.066629  0
H  H30  1  0.19567272  0.29045150  0.80556218  1  0  0.079151  0  0.99698  0  0  0.08986  0  1.062893  0  0  0.093242  0  1.05833  0  0  0.123116  0.087074  0  1.06667  0
H  H31  1  0.35200162  0.90612471  0.05228831  1  0  0.087239  0  0.926266  0  0  0.100924  0  0.984988  0  0  0.102685  0  0.982032  0  0  0.132814  0.099285  0  0.987374  0
H  H32  1  0.64800350  0.09386917  0.94769941  1  0  0.08727  0  0.926285  0  0  0.100937  0  0.98502  0  0  0.102711  0  0.982056  0  0  0.132807  0.0993  0  0.987403  0
H  H33  1  0.07416811  0.60132697  0.05155407  1  0  0.100386  0  0.919061  0  0  0.114248  0  0.974571  0  0  0.116687  0  0.97122  0  0  0.138525  0.112121  0  0.977194  0
H  H34  1  0.92584456  0.39867865  0.94844477  1  0  0.100321  0  0.919071  0  0  0.114187  0  0.974579  0  0  0.116673  0  0.971173  0  0  0.138527  0.112062  0  0.977201  0
H  H35  1  0.20490941  0.09888274  0.16493931  1  0  0.089503  0  0.969  0  0  0.102488  0  1.028718  0  0  0.105224  0  1.025726  0  0  0.130471  0.100243  0  1.031194  0
H  H36  1  0.79510397  0.90113098  0.83507200  1  0  0.089389  0  0.968899  0  0  0.102447  0  1.028574  0  0  0.105185  0  1.025578  0  0  0.130485  0.100209  0  1.031054  0
C  C37  1  0.13341310  0.78281136  0.26271368  1  0  -0.084021  0  3.754215  0  0  -0.085159  0  4.0197  0  0  -0.098661  0  4.046248  0  0  -0.035289  -0.07607  0  4.001164  0
C  C38  1  0.86658067  0.21718216  0.73729000  1  0  -0.083932  0  3.754  0  0  -0.085157  0  4.019509  0  0  -0.098656  0  4.046052  0  0  -0.035393  -0.076081  0  4.000995  0
C  C39  1  0.25631123  0.78804813  0.31492477  1  0  -0.04797  0  3.755495  0  0  -0.072607  0  4.019  0  0  -0.068606  0  4.039055  0  0  -0.086328  -0.074964  0  4.005246  0
C  C40  1  0.74368023  0.21194539  0.68507896  1  0  -0.048121  0  3.755392  0  0  -0.072739  0  4.018929  0  0  -0.068739  0  4.038993  0  0  -0.086294  -0.075107  0  4.005179  0
C  C41  1  0.38274060  0.64815435  0.35672390  1  0  -0.183193  0  3.728654  0  0  -0.212334  0  3.997893  0  0  -0.220192  0  4.017061  0  0  -0.105993  -0.206883  0  3.985211  0
C  C42  1  0.61725210  0.35183553  0.64328099  1  0  -0.18302  0  3.728688  0  0  -0.212167  0  3.997984  0  0  -0.220048  0  4.01714  0  0  -0.105989  -0.206724  0  3.985314  0
C  C43  1  0.39057368  0.49782810  0.34704789  1  0  0.301848  0  3.778203  0  0  0.284178  0  4.05943  0  0  0.298339  0  4.073965  0  0  0.090342  0.273952  0  4.049871  0
C  C44  1  0.60941969  0.50216315  0.65295052  1  0  0.302  0  3.777965  0  0  0.284215  0  4.059303  0  0  0.298363  0  4.073864  0  0  0.090427  0.273977  0  4.049739  0
C  C45  1  0.27181726  0.49146377  0.29269668  1  0  -0.18267  0  3.71786  0  0  -0.215405  0  3.994804  0  0  -0.223698  0  4.017668  0  0  -0.109085  -0.209889  0  3.97959  0
C  C46  1  0.72817484  0.50853117  0.70729869  1  0  -0.182794  0  3.718036  0  0  -0.215583  0  3.99502  0  0  -0.223879  0  4.01789  0  0  -0.109165  -0.210078  0  3.979828  0
C  C47  1  0.14541009  0.63282917  0.25172615  1  0  -0.043645  0  3.745258  0  0  -0.072317  0  4.018458  0  0  -0.069257  0  4.040611  0  0  -0.088079  -0.073783  0  4.002663  0
C  C48  1  0.85457854  0.36716925  0.74827502  1  0  -0.043735  0  3.745293  0  0  -0.072363  0  4.018482  0  0  -0.069305  0  4.040634  0  0  -0.088074  -0.07383  0  4.002703  0
C  C49  1  0.99125779  0.93267935  0.22163096  1  0  0.651962  0  3.918349  0  0  0.604492  0  4.206484  0  0  0.641937  0  4.201077  0  0  0.206937  0.579094  0  4.210083  0
C  C50  1  0.00875147  0.06732272  0.77836602  1  0  0.65181  0  3.918354  0  0  0.604353  0  4.20648  0  0  0.641796  0  4.201078  0  0  0.206898  0.578966  0  4.210083  0
C  C51  1  0.52297801  0.20587966  0.39726329  1  0  0.115062  0  3.602855  0  0  0.096612  0  3.855515  0  0  0.099801  0  3.863438  0  0  0.002629  0.094591  0  3.84977  0
C  C52  1  0.47702317  0.79410556  0.60273400  1  0  0.115637  0  3.60249  0  0  0.096813  0  3.855645  0  0  0.099992  0  3.86359  0  0  0.002806  0.094772  0  3.849903  0
C  C53  1  0.65997537  0.09258550  0.46486491  1  0  -0.326322  0  3.679937  0  0  -0.409338  0  3.925683  0  0  -0.411513  0  3.933796  0  0  -0.246336  -0.407769  0  3.919828  0
C  C54  1  0.34002956  0.90740565  0.53513574  1  0  -0.326699  0  3.680103  0  0  -0.40957  0  3.925942  0  0  -0.411745  0  3.934051  0  0  -0.246395  -0.408007  0  3.92009  0
C  C55  1  0.55778493  0.16574516  0.30965121  1  0  0.619741  0  3.905538  0  0  0.575884  0  4.199076  0  0  0.609542  0  4.193216  0  0  0.190061  0.5529  0  4.200992  0
C  C56  1  0.44222027  0.83423164  0.69034541  1  0  0.619848  0  3.905297  0  0  0.575992  0  4.198984  0  0  0.609652  0  4.193123  0  0  0.190206  0.553011  0  4.200923  0
C  C57  1  0.04959496  0.23317058  0.35566760  1  0  0.203523  0  3.710318  0  0  0.151301  0  4.001619  0  0  0.163223  0  4.011247  0  0  0.148919  0.143977  0  3.992743  0
C  C58  1  0.95038918  0.76684104  0.64433601  1  0  0.203684  0  3.710299  0  0  0.151457  0  4.00164  0  0  0.163386  0  4.011249  0  0  0.148863  0.144134  0  3.992767  0
C  C59  1  0.84947409  0.44604873  0.35478122  1  0  0.177987  0  3.644814  0  0  0.098678  0  3.916669  0  0  0.124082  0  3.931647  0  0  0.169875  0.089053  0  3.908548  0
C  C60  1  0.15051644  0.55396777  0.64521897  1  0  0.178038  0  3.645191  0  0  0.098666  0  3.917012  0  0  0.124121  0  3.932017  0  0  0.169914  0.089036  0  3.908906  0
C  C61  1  0.92894685  0.46818292  0.49990158  1  0  -0.029164  0  3.622744  0  0  -0.10943  0  3.887404  0  0  -0.095496  0  3.897842  0  0  -0.037556  -0.111656  0  3.880669  0
C  C62  1  0.07104537  0.53182865  0.50010246  1  0  -0.028941  0  3.622748  0  0  -0.109329  0  3.887426  0  0  -0.095311  0  3.897879  0  0  -0.037482  -0.111554  0  3.880686  0
C  C63  1  0.69576390  0.72071672  0.15897529  1  0  0.184681  0  3.76638  0  0  0.135336  0  4.023613  0  0  0.149399  0  4.036566  0  0  0.122073  0.125587  0  4.015778  0
C  C64  1  0.30423186  0.27928778  0.84102226  1  0  0.184686  0  3.766472  0  0  0.13534  0  4.023703  0  0  0.149396  0  4.036662  0  0  0.122122  0.125594  0  4.015876  0
C  C65  1  0.46691949  0.82238580  0.08635121  1  0  0.199786  0  3.720257  0  0  0.145361  0  3.999716  0  0  0.158437  0  4.015072  0  0  0.133856  0.136511  0  3.98978  0
C  C66  1  0.53308665  0.17761524  0.91363912  1  0  0.199768  0  3.720331  0  0  0.145362  0  3.999767  0  0  0.158422  0  4.015134  0  0  0.133861  0.136517  0  3.989824  0
C  C67  1  0.14162185  0.47287208  0.07607704  1  0  0.206164  0  3.703128  0  0  0.152969  0  3.975356  0  0  0.167135  0  3.988148  0  0  0.14386  0.143442  0  3.967252  0
C  C68  1  0.85839160  0.52713463  0.92392598  1  0  0.206423  0  3.702868  0  0  0.153222  0  3.975067  0  0  0.167351  0  3.987839  0  0  0.144064  0.143699  0  3.966966  0
C  C69  1  0.20969205  0.21787684  0.13196690  1  0  0.194888  0  3.741869  0  0  0.148529  0  3.995887  0  0  0.163022  0  4.007653  0  0  0.132461  0.138404  0  3.988869  0
C  C70  1  0.79031950  0.78213212  0.86804269  1  0  0.195097  0  3.741706  0  0  0.148674  0  3.99576  0  0  0.163166  0  4.007527  0  0  0.132568  0.138545  0  3.988756  0
N  N71  1  0.94270778  0.39516438  0.42939072  1  0  0.036449  0  3.586533  0  0  0.159387  0  3.771823  0  0  0.118274  0  3.834199  0  0  -0.135881  0.16613  0  3.755854  0
N  N72  1  0.05728551  0.60485080  0.57061335  1  0  0.036258  0  3.586794  0  0  0.159388  0  3.771905  0  0  0.11811  0  3.834462  0  0  -0.135932  0.166148  0  3.755907  0
N  N73  1  0.07188272  0.25911712  0.43101554  1  0  -0.282197  0  2.867795  0  0  -0.273826  0  3.12894  0  0  -0.272636  0  3.148363  0  0  -0.220388  -0.26848  0  3.12023  0
N  N74  1  0.92810693  0.74088846  0.56898762  1  0  -0.282176  0  2.867721  0  0  -0.273851  0  3.128832  0  0  -0.27261  0  3.148284  0  0  -0.220336  -0.26849  0  3.120103  0
N  N75  1  0.91424431  0.34527473  0.30657202  1  0  -0.388477  0  3.153817  0  0  -0.328946  0  3.456379  0  0  -0.351103  0  3.467704  0  0  -0.339738  -0.313316  0  3.445197  0
N  N76  1  0.08574147  0.65473207  0.69343104  1  0  -0.388443  0  3.153944  0  0  -0.328919  0  3.45652  0  0  -0.351072  0  3.467821  0  0  -0.339663  -0.313294  0  3.445358  0
N  N77  1  0.66723074  0.59987307  0.13981873  1  0  -0.295012  0  3.236081  0  0  -0.225179  0  3.517248  0  0  -0.243454  0  3.53653  0  0  -0.263957  -0.213437  0  3.505099  0
N  N78  1  0.33276631  0.40012769  0.86018374  1  0  -0.295066  0  3.236105  0  0  -0.225244  0  3.517292  0  0  -0.243517  0  3.536574  0  0  -0.263999  -0.213503  0  3.505149  0
N  N79  1  0.52058340  0.66426027  0.09323262  1  0  -0.252952  0  3.113926  0  0  -0.202171  0  3.394779  0  0  -0.218013  0  3.416945  0  0  -0.238683  -0.19265  0  3.380656  0
N  N80  1  0.47942279  0.33574066  0.90676211  1  0  -0.252892  0  3.113795  0  0  -0.202109  0  3.394636  0  0  -0.217949  0  3.4168  0  0  -0.23864  -0.192587  0  3.380514  0
N  N81  1  0.57361855  0.86362886  0.12685603  1  0  -0.443097  0  3.188689  0  0  -0.36254  0  3.470136  0  0  -0.387068  0  3.484095  0  0  -0.362338  -0.346063  0  3.460734  0
N  N82  1  0.42638177  0.13637576  0.87313639  1  0  -0.44314  0  3.188846  0  0  -0.362583  0  3.470288  0  0  -0.387109  0  3.484253  0  0  -0.362357  -0.346107  0  3.460887  0
N  N83  1  0.30292485  0.40888312  0.07017627  1  0  -0.232891  0  3.211492  0  0  -0.161427  0  3.483312  0  0  -0.176204  0  3.506285  0  0  -0.236293  -0.153159  0  3.469358  0
N  N84  1  0.69708164  0.59112372  0.92982253  1  0  -0.233081  0  3.211407  0  0  -0.161581  0  3.483186  0  0  -0.176362  0  3.506171  0  0  -0.236426  -0.153308  0  3.469233  0
N  N85  1  0.34616248  0.24676606  0.10517196  1  0  -0.294794  0  3.241971  0  0  -0.227289  0  3.514631  0  0  -0.245615  0  3.534772  0  0  -0.259345  -0.215491  0  3.501935  0
N  N86  1  0.65384900  0.75324306  0.89483137  1  0  -0.294796  0  3.242038  0  0  -0.227307  0  3.514738  0  0  -0.245634  0  3.534878  0  0  -0.259389  -0.215508  0  3.502046  0
N  N87  1  0.07769688  0.35591022  0.11517433  1  0  -0.443645  0  3.177631  0  0  -0.366624  0  3.458949  0  0  -0.388705  0  3.470389  0  0  -0.356181  -0.351786  0  3.451445  0
N  N88  1  0.92231342  0.64410239  0.88483348  1  0  -0.44382  0  3.177636  0  0  -0.366806  0  3.458998  0  0  -0.388886  0  3.470446  0  0  -0.356313  -0.351959  0  3.451486  0
O  O89  1  0.98835805  0.06361032  0.23536822  1  0  -0.639263  0  2.06586  0  0  -0.565786  0  2.311226  0  0  -0.59827  0  2.303408  0  0  -0.316815  -0.544756  0  2.31701  0
O  O90  1  0.01165514  0.93638696  0.76462690  1  0  -0.639174  0  2.065695  0  0  -0.56576  0  2.311107  0  0  -0.598245  0  2.30329  0  0  -0.316816  -0.544743  0  2.316902  0
O  O91  1  0.88286752  0.91709143  0.17690288  1  0  -0.629223  0  2.025922  0  0  -0.554835  0  2.265668  0  0  -0.590627  0  2.257474  0  0  -0.318406  -0.531617  0  2.2716  0
O  O92  1  0.11714493  0.08291812  0.82308348  1  0  -0.629114  0  2.026142  0  0  -0.554721  0  2.265885  0  0  -0.590512  0  2.257696  0  0  -0.318363  -0.531516  0  2.271821  0
O  O93  1  0.51600321  0.36772394  0.39335114  1  0  -0.28928  0  2.309115  0  0  -0.236285  0  2.553366  0  0  -0.255863  0  2.555986  0  0  -0.172996  -0.221707  0  2.550749  0
O  O94  1  0.48398971  0.63226862  0.60664333  1  0  -0.289467  0  2.308916  0  0  -0.236429  0  2.553276  0  0  -0.256003  0  2.555904  0  0  -0.173099  -0.221808  0  2.55064  0
O  O95  1  0.53687597  0.03841907  0.30369700  1  0  -0.631188  0  1.872839  0  0  -0.58427  0  2.097716  0  0  -0.61238  0  2.089386  0  0  -0.344221  -0.561245  0  2.100715  0
O  O96  1  0.46312668  0.96155513  0.69630758  1  0  -0.631376  0  1.872882  0  0  -0.584424  0  2.097751  0  0  -0.612535  0  2.089416  0  0  -0.344283  -0.561413  0  2.100781  0
O  O97  1  0.60493188  0.26128411  0.24886070  1  0  -0.642536  0  2.085114  0  0  -0.585196  0  2.351143  0  0  -0.616635  0  2.34125  0  0  -0.33414  -0.561748  0  2.355823  0
O  O98  1  0.39507955  0.73869134  0.75114097  1  0  -0.642557  0  2.084985  0  0  -0.585203  0  2.351011  0  0  -0.616645  0  2.341117  0  0  -0.334259  -0.56174  0  2.355661  0
O  O99  1  0.69271068  0.29196567  0.06678835  1  0  -0.840078  0  1.38186  0  0  -0.762707  0  1.701544  0  0  -0.767968  0  1.660286  0  0  -0.517227  -0.748587  0  1.723645  0
O  O100  1  0.30728788  0.70803744  0.93321622  1  0  -0.840166  0  1.381708  0  0  -0.762653  0  1.701396  0  0  -0.767841  0  1.660095  0  0  -0.517213  -0.748624  0  1.723516  0
