# generated using pymatgen
data_HoH15C11O6
_symmetry_space_group_name_H-M   'P 1'
_cell_length_a   8.14565357
_cell_length_b   10.68743017
_cell_length_c   14.75941068
_cell_angle_alpha   90.00040393
_cell_angle_beta   90.00040107
_cell_angle_gamma   90.00023029
_symmetry_Int_Tables_number   1
_chemical_formula_structural   HoH15C11O6
_chemical_formula_sum   'Ho4 H60 C44 O24'
_cell_volume   1284.89678708
_cell_formula_units_Z   4
loop_
 _symmetry_equiv_pos_site_id
 _symmetry_equiv_pos_as_xyz
  1  'x, y, z'
loop_
 _atom_site_type_symbol
 _atom_site_label
 _atom_site_symmetry_multiplicity
 _atom_site_fract_x
 _atom_site_fract_y
 _atom_site_fract_z
 _atom_site_occupancy
 _atom_site_hle17_bader_spin_density
 _atom_site_hle17_ddec_charge
 _atom_site_hle17_ddec_spin_density
 _atom_site_hle17_ddec_sum_bond_order
 _atom_site_hle17_magmom
 _atom_site_hse06_10hf_bader_spin_density
 _atom_site_hse06_10hf_ddec_charge
 _atom_site_hse06_10hf_ddec_spin_density
 _atom_site_hse06_10hf_ddec_sum_bond_order
 _atom_site_hse06_10hf_magmom
 _atom_site_hse06_bader_spin_density
 _atom_site_hse06_ddec_charge
 _atom_site_hse06_ddec_spin_density
 _atom_site_hse06_ddec_sum_bond_order
 _atom_site_hse06_magmom
 _atom_site_pbe_bader_spin_density
 _atom_site_pbe_cm5_charge
 _atom_site_pbe_ddec_charge
 _atom_site_pbe_ddec_spin_density
 _atom_site_pbe_ddec_sum_bond_order
 _atom_site_pbe_magmom
Ho  Ho0  1  0.42135848  0.19978636  0.49813435  1  0  2.264087  0  1.719927  0  0  2.128324  0  2.196481  0  0  2.251493  0  2.017643  0  0  1.568416  2.089647  0  2.232426  0
Ho  Ho1  1  0.07863572  0.80021419  0.99813757  1  0  2.264101  0  1.719758  0  0  2.128342  0  2.196263  0  0  2.251491  0  2.017467  0  0  1.56851  2.089664  0  2.232205  0
Ho  Ho2  1  0.57863808  0.69979025  0.00187086  1  0  2.264062  0  1.719939  0  0  2.128307  0  2.196452  0  0  2.251456  0  2.017655  0  0  1.568432  2.089616  0  2.232418  0
Ho  Ho3  1  0.92136285  0.30021633  0.50185997  1  0  2.264105  0  1.719815  0  0  2.12844  0  2.196189  0  0  2.251501  0  2.01753  0  0  1.568495  2.089765  0  2.232127  0
H  H4  1  0.27309708  0.82672921  0.69622962  1  0  0.090244  0  0.924829  0  0  0.101858  0  0.980354  0  0  0.104042  0  0.979334  0  0  0.104586  0.100457  0  0.980761  0
H  H5  1  0.22689818  0.17327027  0.19622416  1  0  0.090302  0  0.924876  0  0  0.101916  0  0.980391  0  0  0.104096  0  0.97937  0  0  0.104571  0.100489  0  0.980829  0
H  H6  1  0.72690900  0.32672715  0.80377280  1  0  0.090239  0  0.924899  0  0  0.101852  0  0.980415  0  0  0.104037  0  0.979399  0  0  0.104547  0.100446  0  0.980825  0
H  H7  1  0.77310806  0.67327021  0.30377685  1  0  0.090256  0  0.924948  0  0  0.1019  0  0.980415  0  0  0.104085  0  0.979394  0  0  0.104567  0.100497  0  0.980824  0
H  H8  1  0.59202411  0.70176905  0.73174352  1  0  0.082472  0  0.940032  0  0  0.100548  0  0.996574  0  0  0.102722  0  0.995423  0  0  0.093725  0.099068  0  0.997245  0
H  H9  1  0.90796993  0.29822293  0.23173330  1  0  0.082371  0  0.94003  0  0  0.10046  0  0.996584  0  0  0.102643  0  0.995419  0  0  0.093689  0.098959  0  0.997277  0
H  H10  1  0.40798130  0.20176942  0.76825216  1  0  0.0825  0  0.940055  0  0  0.100571  0  0.996573  0  0  0.102741  0  0.995422  0  0  0.093746  0.099106  0  0.997237  0
H  H11  1  0.09202838  0.79823730  0.26826699  1  0  0.082281  0  0.94016  0  0  0.100387  0  0.996683  0  0  0.102592  0  0.995495  0  0  0.093708  0.098886  0  0.997381  0
H  H12  1  0.53588467  0.80359562  0.64279297  1  0  0.070152  0  0.946489  0  0  0.087842  0  1.008823  0  0  0.088782  0  1.009007  0  0  0.090576  0.087122  0  1.008739  0
H  H13  1  0.96411806  0.19639923  0.14278312  1  0  0.070144  0  0.946445  0  0  0.087867  0  1.008765  0  0  0.088804  0  1.00895  0  0  0.090582  0.087134  0  1.008694  0
H  H14  1  0.46411883  0.30359704  0.85720188  1  0  0.070162  0  0.946564  0  0  0.087863  0  1.008852  0  0  0.088801  0  1.009034  0  0  0.090575  0.087148  0  1.008771  0
H  H15  1  0.03589199  0.69640775  0.35721665  1  0  0.070109  0  0.946468  0  0  0.087827  0  1.008803  0  0  0.088763  0  1.008992  0  0  0.090617  0.08712  0  1.008704  0
H  H16  1  0.55262136  0.61738862  0.55318732  1  0  0.071795  0  0.958975  0  0  0.089714  0  1.022701  0  0  0.090178  0  1.023367  0  0  0.090706  0.089418  0  1.022043  0
H  H17  1  0.94737899  0.38260536  0.05317971  1  0  0.071678  0  0.959031  0  0  0.089669  0  1.022673  0  0  0.090147  0  1.023335  0  0  0.090689  0.089381  0  1.022013  0
H  H18  1  0.44738482  0.11739646  0.94681064  1  0  0.071701  0  0.959117  0  0  0.089725  0  1.022726  0  0  0.090192  0  1.023385  0  0  0.090707  0.089433  0  1.022066  0
H  H19  1  0.05261854  0.88261668  0.44682101  1  0  0.071781  0  0.958958  0  0  0.08964  0  1.02273  0  0  0.090111  0  1.023398  0  0  0.09066  0.089349  0  1.022071  0
H  H20  1  0.52327109  0.52007565  0.64772264  1  0  0.074619  0  0.93906  0  0  0.091592  0  0.998149  0  0  0.09299  0  0.997446  0  0  0.091824  0.090636  0  0.998428  0
H  H21  1  0.97672557  0.47991832  0.14771428  1  0  0.074642  0  0.939045  0  0  0.091632  0  0.998111  0  0  0.093043  0  0.997416  0  0  0.091846  0.090677  0  0.998392  0
H  H22  1  0.47672722  0.02007705  0.85227822  1  0  0.074669  0  0.939031  0  0  0.091625  0  0.998141  0  0  0.093023  0  0.997439  0  0  0.09184  0.090675  0  0.998419  0
H  H23  1  0.02326635  0.97992675  0.35228694  1  0  0.074652  0  0.939021  0  0  0.091661  0  0.998045  0  0  0.09307  0  0.997345  0  0  0.091865  0.090703  0  0.998325  0
H  H24  1  0.31215157  0.67435191  0.45908366  1  0  0.097998  0  0.950543  0  0  0.121068  0  1.011287  0  0  0.122169  0  1.01152  0  0  0.088174  0.120269  0  1.01105  0
H  H25  1  0.18785318  0.32564825  0.95907878  1  0  0.098005  0  0.950513  0  0  0.121087  0  1.011242  0  0  0.122186  0  1.011477  0  0  0.088156  0.120292  0  1.011005  0
H  H26  1  0.68785345  0.17434811  0.04091397  1  0  0.098015  0  0.950463  0  0  0.121084  0  1.011205  0  0  0.122183  0  1.01144  0  0  0.08818  0.120286  0  1.010967  0
H  H27  1  0.81214675  0.82564949  0.54092093  1  0  0.09801  0  0.950497  0  0  0.121091  0  1.011224  0  0  0.12219  0  1.011458  0  0  0.088162  0.120293  0  1.010987  0
H  H28  1  0.27979651  0.79039326  0.54301543  1  0  0.119803  0  0.966805  0  0  0.139092  0  1.030852  0  0  0.141385  0  1.029988  0  0  0.093151  0.137542  0  1.031326  0
H  H29  1  0.22021152  0.20960940  0.04300742  1  0  0.119784  0  0.966872  0  0  0.139105  0  1.030878  0  0  0.141396  0  1.030014  0  0  0.093136  0.137558  0  1.031354  0
H  H30  1  0.72021429  0.29038987  0.95698816  1  0  0.119818  0  0.966822  0  0  0.13912  0  1.030848  0  0  0.141412  0  1.029983  0  0  0.093155  0.13757  0  1.031322  0
H  H31  1  0.77979245  0.70960804  0.45699106  1  0  0.119785  0  0.966831  0  0  0.139115  0  1.030826  0  0  0.141407  0  1.029961  0  0  0.093133  0.137564  0  1.031307  0
H  H32  1  0.11509223  0.69059804  0.50871064  1  0  0.109066  0  0.962482  0  0  0.130158  0  1.023755  0  0  0.131474  0  1.024215  0  0  0.093647  0.129226  0  1.023341  0
H  H33  1  0.38491045  0.30940428  0.00870648  1  0  0.109131  0  0.96238  0  0  0.1302  0  1.023691  0  0  0.131517  0  1.024151  0  0  0.093669  0.129273  0  1.023277  0
H  H34  1  0.88491189  0.19059455  0.99129041  1  0  0.109032  0  0.962468  0  0  0.130105  0  1.023774  0  0  0.131422  0  1.024232  0  0  0.093623  0.129171  0  1.023357  0
H  H35  1  0.61508792  0.80940276  0.49129386  1  0  0.109081  0  0.962406  0  0  0.13015  0  1.02372  0  0  0.131466  0  1.024181  0  0  0.093638  0.129221  0  1.023305  0
H  H36  1  0.18775834  0.53748803  0.82205691  1  0  0.095457  0  0.96776  0  0  0.115787  0  1.034451  0  0  0.117256  0  1.034312  0  0  0.087874  0.114781  0  1.034419  0
H  H37  1  0.31222379  0.46250424  0.32205868  1  0  0.095419  0  0.967823  0  0  0.11577  0  1.034494  0  0  0.11724  0  1.034355  0  0  0.087854  0.114766  0  1.034462  0
H  H38  1  0.81222900  0.03747846  0.67793997  1  0  0.095507  0  0.967754  0  0  0.115843  0  1.03443  0  0  0.117313  0  1.03429  0  0  0.087893  0.114837  0  1.034399  0
H  H39  1  0.68776927  0.96250457  0.17794516  1  0  0.095419  0  0.967849  0  0  0.115803  0  1.034478  0  0  0.117273  0  1.034338  0  0  0.087888  0.114796  0  1.034446  0
H  H40  1  0.35903442  0.48267781  0.76051331  1  0  0.110818  0  0.950178  0  0  0.134043  0  1.006869  0  0  0.1356  0  1.00691  0  0  0.092502  0.132939  0  1.006701  0
H  H41  1  0.14094692  0.51731200  0.26051335  1  0  0.110827  0  0.950147  0  0  0.133967  0  1.006935  0  0  0.135519  0  1.006989  0  0  0.092487  0.132874  0  1.006756  0
H  H42  1  0.64095407  0.98267953  0.73948584  1  0  0.110851  0  0.95023  0  0  0.134021  0  1.006969  0  0  0.135573  0  1.007022  0  0  0.092492  0.132924  0  1.006795  0
H  H43  1  0.85904621  0.01731159  0.23949093  1  0  0.110795  0  0.950171  0  0  0.133993  0  1.006894  0  0  0.135547  0  1.00694  0  0  0.09246  0.132894  0  1.00672  0
H  H44  1  0.15708591  0.43672056  0.72824052  1  0  0.111605  0  0.949842  0  0  0.13411  0  1.008861  0  0  0.135998  0  1.00848  0  0  0.093753  0.132825  0  1.008955  0
H  H45  1  0.34289257  0.56327642  0.22824766  1  0  0.111485  0  0.9499  0  0  0.134049  0  1.008856  0  0  0.135938  0  1.008475  0  0  0.093766  0.132764  0  1.008954  0
H  H46  1  0.84289498  0.93671759  0.77175772  1  0  0.111642  0  0.949808  0  0  0.13414  0  1.008826  0  0  0.136028  0  1.008445  0  0  0.093778  0.132855  0  1.008922  0
H  H47  1  0.65710203  0.06327384  0.27175821  1  0  0.11153  0  0.94975  0  0  0.134087  0  1.008725  0  0  0.135975  0  1.008344  0  0  0.093757  0.132802  0  1.00882  0
H  H48  1  0.99235553  0.69315310  0.75551419  1  0  0.102326  0  0.969247  0  0  0.121596  0  1.035365  0  0  0.123335  0  1.035113  0  0  0.086669  0.120421  0  1.035442  0
H  H49  1  0.50764127  0.30684940  0.25551873  1  0  0.102245  0  0.969247  0  0  0.12154  0  1.03534  0  0  0.123276  0  1.035094  0  0  0.086651  0.120368  0  1.035417  0
H  H50  1  0.00765229  0.19314268  0.74448213  1  0  0.102259  0  0.96924  0  0  0.121534  0  1.035363  0  0  0.123274  0  1.035109  0  0  0.086647  0.120359  0  1.035441  0
H  H51  1  0.49235586  0.80684510  0.24448499  1  0  0.10233  0  0.969222  0  0  0.12162  0  1.035321  0  0  0.123359  0  1.035068  0  0  0.086669  0.120445  0  1.035399  0
H  H52  1  0.95794367  0.59206468  0.66099112  1  0  0.117295  0  0.949547  0  0  0.138321  0  1.007562  0  0  0.140799  0  1.006443  0  0  0.09283  0.136586  0  1.008315  0
H  H53  1  0.54204825  0.40794345  0.16099835  1  0  0.117242  0  0.949663  0  0  0.138281  0  1.007654  0  0  0.140757  0  1.006539  0  0  0.092823  0.136554  0  1.008406  0
H  H54  1  0.04205134  0.09204966  0.83900468  1  0  0.117232  0  0.949601  0  0  0.138327  0  1.007537  0  0  0.14078  0  1.006449  0  0  0.092829  0.136595  0  1.008289  0
H  H55  1  0.45794942  0.90793529  0.33900657  1  0  0.117256  0  0.949705  0  0  0.138297  0  1.007686  0  0  0.140768  0  1.006576  0  0  0.092775  0.136564  0  1.008439  0
H  H56  1  0.01631174  0.75074210  0.64405408  1  0  0.091329  0  0.969109  0  0  0.111627  0  1.036773  0  0  0.11258  0  1.037111  0  0  0.0831  0.110911  0  1.036539  0
H  H57  1  0.48369390  0.24926341  0.14405542  1  0  0.091409  0  0.968978  0  0  0.111648  0  1.03672  0  0  0.112607  0  1.037046  0  0  0.083073  0.110935  0  1.036483  0
H  H58  1  0.98370129  0.25073010  0.85594456  1  0  0.091449  0  0.968956  0  0  0.111685  0  1.036699  0  0  0.112645  0  1.03702  0  0  0.083078  0.110967  0  1.036473  0
H  H59  1  0.51630661  0.74925653  0.35594665  1  0  0.091318  0  0.969106  0  0  0.111615  0  1.036774  0  0  0.112568  0  1.037108  0  0  0.083086  0.110898  0  1.03654  0
H  H60  1  0.06022254  0.01312033  0.60807118  1  0  0.034137  0  0.898878  0  0  0.04445  0  0.962474  0  0  0.045495  0  0.957393  0  0  0.128782  0.043831  0  0.965626  0
H  H61  1  0.43977037  0.98690074  0.10807068  1  0  0.03419  0  0.898632  0  0  0.044453  0  0.962283  0  0  0.045497  0  0.957207  0  0  0.128764  0.043837  0  0.965427  0
H  H62  1  0.93976468  0.51311415  0.89193236  1  0  0.034195  0  0.898886  0  0  0.044527  0  0.962437  0  0  0.045574  0  0.957358  0  0  0.128805  0.04391  0  0.965588  0
H  H63  1  0.56022650  0.48689062  0.39192447  1  0  0.034143  0  0.898759  0  0  0.044437  0  0.962375  0  0  0.04548  0  0.9573  0  0  0.128737  0.04382  0  0.965523  0
C  C64  1  0.29546358  0.59846153  0.59570338  1  0  -0.02646  0  3.52583  0  0  0.00234  0  3.74448  0  0  -0.003176  0  3.760716  0  0  -0.01077  0.006332  0  3.732324  0
C  C65  1  0.20453653  0.40153790  0.09569900  1  0  -0.026322  0  3.525793  0  0  0.002266  0  3.744819  0  0  -0.00324  0  3.761065  0  0  -0.010716  0.00626  0  3.732676  0
C  C66  1  0.70453759  0.09846319  0.90429448  1  0  -0.026419  0  3.526029  0  0  0.002329  0  3.744672  0  0  -0.003186  0  3.760909  0  0  -0.010814  0.006317  0  3.732521  0
C  C67  1  0.79545988  0.90153982  0.40430249  1  0  -0.026372  0  3.525931  0  0  0.002236  0  3.744883  0  0  -0.003276  0  3.761126  0  0  -0.010709  0.006233  0  3.73273  0
C  C68  1  0.21514536  0.62877973  0.69047335  1  0  0.180147  0  3.462945  0  0  0.209356  0  3.687407  0  0  0.210401  0  3.707342  0  0  0.000944  0.208786  0  3.673244  0
C  C69  1  0.28484737  0.37122156  0.19047116  1  0  0.180103  0  3.46282  0  0  0.209213  0  3.68755  0  0  0.210248  0  3.707484  0  0  0.000905  0.208645  0  3.673395  0
C  C70  1  0.78485352  0.12877603  0.80952264  1  0  0.180159  0  3.463102  0  0  0.209436  0  3.687429  0  0  0.210486  0  3.707353  0  0  0.000963  0.208867  0  3.673256  0
C  C71  1  0.71514765  0.87121951  0.30953086  1  0  0.180256  0  3.462621  0  0  0.209294  0  3.687452  0  0  0.210335  0  3.707382  0  0  0.000921  0.208716  0  3.67331  0
C  C72  1  0.32827613  0.74023996  0.72262825  1  0  -0.18969  0  3.553296  0  0  -0.190426  0  3.776426  0  0  -0.197496  0  3.788456  0  0  -0.083578  -0.185224  0  3.766828  0
C  C73  1  0.17172069  0.25975602  0.22262235  1  0  -0.189966  0  3.553458  0  0  -0.190638  0  3.776606  0  0  -0.197686  0  3.788635  0  0  -0.083636  -0.185416  0  3.766997  0
C  C74  1  0.67173316  0.24024029  0.77737169  1  0  -0.189754  0  3.553651  0  0  -0.190503  0  3.776757  0  0  -0.197565  0  3.788803  0  0  -0.083538  -0.185301  0  3.767121  0
C  C75  1  0.82827865  0.75975868  0.27737910  1  0  -0.19007  0  3.553628  0  0  -0.190747  0  3.77677  0  0  -0.197807  0  3.78881  0  0  -0.08365  -0.185538  0  3.767156  0
C  C76  1  0.49882074  0.71901601  0.67967830  1  0  -0.110475  0  3.634059  0  0  -0.158055  0  3.893117  0  0  -0.157984  0  3.904566  0  0  -0.167646  -0.157778  0  3.884605  0
C  C77  1  0.00118044  0.28098143  0.17966914  1  0  -0.110296  0  3.633939  0  0  -0.157929  0  3.893023  0  0  -0.157847  0  3.904477  0  0  -0.16756  -0.157612  0  3.884515  0
C  C78  1  0.50118476  0.21901624  0.82031747  1  0  -0.110523  0  3.634345  0  0  -0.158063  0  3.893343  0  0  -0.157978  0  3.904775  0  0  -0.167666  -0.1578  0  3.88484  0
C  C79  1  0.99882146  0.78098689  0.32032971  1  0  -0.110214  0  3.634099  0  0  -0.157873  0  3.893187  0  0  -0.15781  0  3.90463  0  0  -0.167686  -0.157574  0  3.884686  0
C  C80  1  0.48060173  0.60671740  0.61540373  1  0  -0.14061  0  3.646091  0  0  -0.188283  0  3.902185  0  0  -0.188164  0  3.914265  0  0  -0.166447  -0.18797  0  3.893127  0
C  C81  1  0.01939863  0.39327942  0.11539589  1  0  -0.140532  0  3.64605  0  0  -0.188197  0  3.902221  0  0  -0.188132  0  3.914367  0  0  -0.166479  -0.187888  0  3.893164  0
C  C82  1  0.51940072  0.10672111  0.88459282  1  0  -0.140604  0  3.646237  0  0  -0.188378  0  3.902359  0  0  -0.188263  0  3.914439  0  0  -0.16646  -0.18806  0  3.893311  0
C  C83  1  0.98059896  0.89328452  0.38460420  1  0  -0.140566  0  3.646064  0  0  -0.188142  0  3.90215  0  0  -0.188065  0  3.914283  0  0  -0.166417  -0.187837  0  3.893098  0
C  C84  1  0.24351259  0.47266114  0.55669599  1  0  0.743077  0  3.75769  0  0  0.701747  0  4.041804  0  0  0.737002  0  4.035597  0  0  0.251159  0.677993  0  4.048545  0
C  C85  1  0.25648088  0.52734072  0.05669787  1  0  0.742968  0  3.757695  0  0  0.701702  0  4.041786  0  0  0.736962  0  4.035577  0  0  0.251175  0.67795  0  4.048531  0
C  C86  1  0.75649181  0.97266426  0.94330176  1  0  0.742742  0  3.758215  0  0  0.701575  0  4.042039  0  0  0.73682  0  4.035862  0  0  0.251149  0.677824  0  4.048779  0
C  C87  1  0.74351108  0.02734101  0.44330172  1  0  0.742907  0  3.757889  0  0  0.701721  0  4.04184  0  0  0.736987  0  4.035619  0  0  0.251169  0.677967  0  4.048579  0
C  C88  1  0.24709034  0.69482570  0.52263761  1  0  -0.321067  0  3.645852  0  0  -0.40409  0  3.882397  0  0  -0.4066  0  3.892284  0  0  -0.239342  -0.40188  0  3.874915  0
C  C89  1  0.25291252  0.30517676  0.02263293  1  0  -0.321188  0  3.645834  0  0  -0.40419  0  3.882472  0  0  -0.406696  0  3.892358  0  0  -0.239338  -0.401968  0  3.874967  0
C  C90  1  0.75291626  0.19482355  0.97736143  1  0  -0.321042  0  3.64579  0  0  -0.404071  0  3.882378  0  0  -0.406577  0  3.892265  0  0  -0.23934  -0.401877  0  3.874932  0
C  C91  1  0.74708583  0.80517644  0.47736672  1  0  -0.321108  0  3.645744  0  0  -0.404114  0  3.882365  0  0  -0.406619  0  3.892247  0  0  -0.239313  -0.401885  0  3.874833  0
C  C92  1  0.23175923  0.51480692  0.75358130  1  0  -0.346679  0  3.653235  0  0  -0.429981  0  3.891424  0  0  -0.433205  0  3.90106  0  0  -0.244748  -0.427277  0  3.883943  0
C  C93  1  0.26822571  0.48518657  0.25358234  1  0  -0.346485  0  3.653237  0  0  -0.42973  0  3.891466  0  0  -0.432953  0  3.901103  0  0  -0.244698  -0.427035  0  3.883993  0
C  C94  1  0.76823168  0.01480536  0.74641749  1  0  -0.346749  0  3.653368  0  0  -0.43001  0  3.891548  0  0  -0.433234  0  3.901181  0  0  -0.244761  -0.427318  0  3.884073  0
C  C95  1  0.73176623  0.98518676  0.24641823  1  0  -0.34652  0  3.653055  0  0  -0.429828  0  3.891279  0  0  -0.43305  0  3.900913  0  0  -0.244702  -0.427126  0  3.883803  0
C  C96  1  0.03467374  0.66825104  0.68721349  1  0  -0.340963  0  3.675567  0  0  -0.425088  0  3.913917  0  0  -0.428019  0  3.923499  0  0  -0.247785  -0.422632  0  3.906556  0
C  C97  1  0.46532509  0.33175677  0.18721585  1  0  -0.340893  0  3.675411  0  0  -0.424962  0  3.913823  0  0  -0.427887  0  3.923406  0  0  -0.247729  -0.422509  0  3.906458  0
C  C98  1  0.96533027  0.16823763  0.81278202  1  0  -0.340933  0  3.675398  0  0  -0.425067  0  3.913747  0  0  -0.427981  0  3.923348  0  0  -0.247757  -0.422614  0  3.906381  0
C  C99  1  0.53467218  0.83175046  0.31278732  1  0  -0.340958  0  3.675527  0  0  -0.425068  0  3.913903  0  0  -0.427989  0  3.923486  0  0  -0.247746  -0.422613  0  3.906547  0
C  C100  1  0.32735854  0.75250066  0.82448127  1  0  0.774048  0  3.774935  0  0  0.729898  0  4.068921  0  0  0.76591  0  4.061441  0  0  0.247352  0.705567  0  4.076671  0
C  C101  1  0.17263099  0.24749165  0.32447937  1  0  0.774274  0  3.774756  0  0  0.730077  0  4.068824  0  0  0.766054  0  4.061387  0  0  0.247439  0.705749  0  4.076575  0
C  C102  1  0.67264960  0.25251590  0.67551603  1  0  0.774  0  3.775101  0  0  0.729783  0  4.069204  0  0  0.765734  0  4.061817  0  0  0.247316  0.705517  0  4.076868  0
C  C103  1  0.82738178  0.74749237  0.17552134  1  0  0.774165  0  3.775175  0  0  0.729992  0  4.069174  0  0  0.765966  0  4.061752  0  0  0.247365  0.705664  0  4.076922  0
C  C104  1  0.16356717  0.06630432  0.57863131  1  0  0.61517  0  3.876135  0  0  0.5484  0  4.181806  0  0  0.581509  0  4.18088  0  0  0.158874  0.525412  0  4.189076  0
C  C105  1  0.33640694  0.93371366  0.07862947  1  0  0.615311  0  3.876398  0  0  0.548582  0  4.182034  0  0  0.581681  0  4.181118  0  0  0.159059  0.525602  0  4.189303  0
C  C106  1  0.83642769  0.56629904  0.92137724  1  0  0.615179  0  3.876089  0  0  0.548406  0  4.181747  0  0  0.581515  0  4.180824  0  0  0.158878  0.525418  0  4.189017  0
C  C107  1  0.66358473  0.43370601  0.42137218  1  0  0.615154  0  3.8766  0  0  0.548403  0  4.182251  0  0  0.581503  0  4.18133  0  0  0.158921  0.525421  0  4.189518  0
O  O108  1  0.35393796  0.40103214  0.52424147  1  0  -0.771695  0  2.07359  0  0  -0.725356  0  2.343187  0  0  -0.763713  0  2.329845  0  0  -0.417731  -0.706482  0  2.350204  0
O  O109  1  0.14606615  0.59897408  0.02424600  1  0  -0.771577  0  2.073699  0  0  -0.725272  0  2.343323  0  0  -0.763627  0  2.329982  0  0  -0.417673  -0.706399  0  2.350337  0
O  O110  1  0.64606729  0.90103618  0.97576404  1  0  -0.77156  0  2.073701  0  0  -0.725285  0  2.343222  0  0  -0.763636  0  2.329891  0  0  -0.417692  -0.70641  0  2.350236  0
O  O111  1  0.85392128  0.09898063  0.47575259  1  0  -0.771508  0  2.07383  0  0  -0.725233  0  2.343388  0  0  -0.763573  0  2.330053  0  0  -0.417678  -0.70636  0  2.350398  0
O  O112  1  0.09094157  0.44784482  0.55331880  1  0  -0.741236  0  2.051741  0  0  -0.691994  0  2.310276  0  0  -0.7297  0  2.294966  0  0  -0.416916  -0.673778  0  2.318394  0
O  O113  1  0.40906291  0.55216542  0.05332343  1  0  -0.741254  0  2.051722  0  0  -0.691972  0  2.310208  0  0  -0.729699  0  2.294893  0  0  -0.416989  -0.673754  0  2.318327  0
O  O114  1  0.90905656  0.94783908  0.94667340  1  0  -0.741057  0  2.051907  0  0  -0.691896  0  2.310437  0  0  -0.729609  0  2.29512  0  0  -0.416919  -0.67367  0  2.318537  0
O  O115  1  0.59092304  0.05215405  0.44668170  1  0  -0.74129  0  2.051635  0  0  -0.692041  0  2.310054  0  0  -0.729777  0  2.294745  0  0  -0.416985  -0.673833  0  2.318186  0
O  O116  1  0.20059191  0.80058424  0.86195283  1  0  -0.772682  0  1.996859  0  0  -0.727035  0  2.25999  0  0  -0.765139  0  2.242176  0  0  -0.425584  -0.708973  0  2.268981  0
O  O117  1  0.29941774  0.19940937  0.36194643  1  0  -0.772708  0  1.996224  0  0  -0.727053  0  2.259389  0  0  -0.765152  0  2.24159  0  0  -0.425617  -0.708988  0  2.268382  0
O  O118  1  0.79942139  0.30059669  0.63805013  1  0  -0.772554  0  1.996528  0  0  -0.726931  0  2.259737  0  0  -0.764996  0  2.241963  0  0  -0.425543  -0.708878  0  2.26867  0
O  O119  1  0.70059969  0.69939999  0.13805065  1  0  -0.772629  0  1.996374  0  0  -0.727  0  2.259555  0  0  -0.765099  0  2.241763  0  0  -0.425564  -0.708934  0  2.268544  0
O  O120  1  0.44890820  0.71193097  0.86993308  1  0  -0.771875  0  2.060457  0  0  -0.723899  0  2.327439  0  0  -0.763259  0  2.31107  0  0  -0.423456  -0.705162  0  2.335634  0
O  O121  1  0.05110523  0.28805897  0.36992617  1  0  -0.771999  0  2.061044  0  0  -0.724028  0  2.328058  0  0  -0.76336  0  2.311712  0  0  -0.423521  -0.705294  0  2.336252  0
O  O122  1  0.55110831  0.21195195  0.63006063  1  0  -0.771904  0  2.060855  0  0  -0.723933  0  2.327942  0  0  -0.763278  0  2.311603  0  0  -0.423467  -0.705223  0  2.336111  0
O  O123  1  0.94890531  0.78805868  0.13007745  1  0  -0.771841  0  2.06117  0  0  -0.723864  0  2.328164  0  0  -0.763209  0  2.311817  0  0  -0.423436  -0.705133  0  2.336355  0
O  O124  1  0.29885013  0.01388492  0.56330901  1  0  -0.610899  0  1.971824  0  0  -0.564103  0  2.208746  0  0  -0.595485  0  2.198427  0  0  -0.348741  -0.547895  0  2.214786  0
O  O125  1  0.20115080  0.98612074  0.06330285  1  0  -0.610857  0  1.972516  0  0  -0.564047  0  2.209434  0  0  -0.595422  0  2.199112  0  0  -0.348727  -0.547847  0  2.215476  0
O  O126  1  0.70114323  0.51388220  0.93670876  1  0  -0.610957  0  1.971746  0  0  -0.56418  0  2.208699  0  0  -0.595562  0  2.198383  0  0  -0.348783  -0.54797  0  2.214737  0
O  O127  1  0.79884606  0.48611458  0.43669501  1  0  -0.610789  0  1.972483  0  0  -0.564006  0  2.209418  0  0  -0.595369  0  2.199099  0  0  -0.348691  -0.547807  0  2.215464  0
O  O128  1  0.14246900  0.18347175  0.56073654  1  0  -0.811346  0  2.167371  0  0  -0.753601  0  2.440615  0  0  -0.799173  0  2.427563  0  0  -0.445937  -0.734785  0  2.448717  0
O  O129  1  0.35753066  0.81654418  0.06073826  1  0  -0.811567  0  2.167203  0  0  -0.753819  0  2.440447  0  0  -0.799407  0  2.427388  0  0  -0.446132  -0.735002  0  2.448555  0
O  O130  1  0.85752772  0.68346952  0.93926176  1  0  -0.811351  0  2.167382  0  0  -0.75359  0  2.440624  0  0  -0.799177  0  2.427571  0  0  -0.445929  -0.734774  0  2.448728  0
O  O131  1  0.64247634  0.31653290  0.43925806  1  0  -0.811427  0  2.167321  0  0  -0.753694  0  2.440587  0  0  -0.79927  0  2.42753  0  0  -0.445969  -0.73488  0  2.4487  0
