# generated using pymatgen
data_Zr3H23C25N5O16
_symmetry_space_group_name_H-M   'P 1'
_cell_length_a   14.82824776
_cell_length_b   14.77955744
_cell_length_c   14.79122104
_cell_angle_alpha   59.52676956
_cell_angle_beta   59.86053926
_cell_angle_gamma   59.96694415
_symmetry_Int_Tables_number   1
_chemical_formula_structural   Zr3H23C25N5O16
_chemical_formula_sum   'Zr6 H46 C50 N10 O32'
_cell_volume   2280.86069629
_cell_formula_units_Z   2
loop_
 _symmetry_equiv_pos_site_id
 _symmetry_equiv_pos_as_xyz
  1  'x, y, z'
loop_
 _atom_site_type_symbol
 _atom_site_label
 _atom_site_symmetry_multiplicity
 _atom_site_fract_x
 _atom_site_fract_y
 _atom_site_fract_z
 _atom_site_occupancy
 _atom_site_pbe_bader_charge
 _atom_site_pbe_bader_spin_density
 _atom_site_pbe_cm5_charge
 _atom_site_pbe_ddec_charge
 _atom_site_pbe_ddec_spin_density
 _atom_site_pbe_ddec_sum_bond_order
 _atom_site_pbe_magmom
Zr  Zr0  1  0.88268518  0.88010885  0.61433362  1  2.627295  0  1.628216  2.359975  0  2.787902  0
Zr  Zr1  1  0.12355117  0.11619801  0.37848466  1  2.630263  0  1.625104  2.360278  0  2.779282  0
Zr  Zr2  1  0.12080984  0.87534184  0.61931783  1  2.633053  0  1.624333  2.37044  0  2.748876  0
Zr  Zr3  1  0.88517369  0.12057592  0.37440464  1  2.636694  0  1.627444  2.370254  0  2.759206  0
Zr  Zr4  1  0.12187405  0.87961286  0.37782875  1  2.631256  0  1.629878  2.36162  0  2.789685  0
Zr  Zr5  1  0.88457835  0.11653851  0.61539881  1  2.632003  0  1.628824  2.360512  0  2.791684  0
H  H6  1  0.09474158  0.71463428  0.59183132  1  0.609504  0  0.332384  0.424524  0  0.856547  0
H  H7  1  0.09962508  0.09393441  0.21319737  1  0.595669  0  0.332045  0.424551  0  0.854244  0
H  H8  1  0.09634202  0.08977728  0.59333773  1  0.616542  0  0.333545  0.426399  0  0.852353  0
H  H9  1  0.72156786  0.09435046  0.58872255  1  0.606504  0  0.33404  0.427249  0  0.850207  0
H  H10  1  0.14038196  0.59295165  0.35399776  1  0.060051  0  0.101317  0.112877  0  1.020655  0
H  H11  1  0.86586030  0.40354904  0.63820633  1  0.112917  0  0.100781  0.112139  0  1.020231  0
H  H12  1  0.59329441  0.13986573  0.90159995  1  0.093795  0  0.100993  0.112816  0  1.02143  0
H  H13  1  0.41341353  0.85566719  0.09191318  1  0.114099  0  0.101508  0.113088  0  1.019459  0
H  H14  1  0.86274052  0.13679323  0.08887637  1  0.069475  0  0.102041  0.114421  0  1.014463  0
H  H15  1  0.13893485  0.85596116  0.90836641  1  0.07718  0  0.104316  0.1176  0  1.011934  0
H  H16  1  0.59652342  0.40775095  0.35635451  1  0.114169  0  0.104134  0.117494  0  1.012869  0
H  H17  1  0.41180580  0.59020883  0.63551793  1  0.070071  0  0.102203  0.114572  0  1.014149  0
H  H18  1  0.07940842  0.32173671  0.97898600  1  0.017376  0  0.092331  0.088221  0  0.976345  0
H  H19  1  0.17026664  0.34729035  0.00096296  1  0.028786  0  0.09132  0.091158  0  0.991203  0
H  H20  1  0.16727938  0.50600509  0.84131232  1  0.044847  0  0.093116  0.092869  0  0.984384  0
H  H21  1  0.07539978  0.47982962  0.82148893  1  0.009348  0  0.093236  0.090388  0  0.975347  0
H  H22  1  0.09242861  0.62313120  0.95771980  1  0.063631  0  0.089197  0.088084  0  0.99522  0
H  H23  1  0.94881889  0.68067232  0.01881803  1  0.041661  0  0.092549  0.090625  0  0.973382  0
H  H24  1  0.09415966  0.46355471  0.11777286  1  0.01607  0  0.086341  0.081392  0  1.005643  0
H  H25  1  0.95035277  0.52205206  0.17748457  1  0.015394  0  0.092488  0.09013  0  0.972064  0
H  H26  1  0.87425542  0.40323416  0.06272916  1  0.026008  0  0.088419  0.08597  0  0.993116  0
H  H27  1  0.81829616  0.48350913  0.14630951  1  0.026478  0  0.089668  0.088242  0  0.982998  0
H  H28  1  0.81651431  0.64487015  0.98882085  1  0.030044  0  0.08705  0.083003  0  0.990416  0
H  H29  1  0.86886654  0.56432946  0.90626978  1  0.043973  0  0.08585  0.083243  0  1.003259  0
H  H30  1  0.59406509  0.86107630  0.63788343  1  0.077612  0  0.100812  0.11224  0  1.020162  0
H  H31  1  0.40771352  0.13937816  0.35965796  1  0.093056  0  0.10096  0.113094  0  1.020085  0
H  H32  1  0.16620576  0.36029173  0.31090168  1  0.48473  0  0.296976  0.302058  0  1.00067  0
H  H33  1  0.21064099  0.47140587  0.25704543  1  0.416703  0  0.300309  0.289895  0  0.957402  0
H  H34  1  0.82179136  0.65391259  0.66410785  1  0.490753  0  0.296766  0.303007  0  1.00054  0
H  H35  1  0.77132345  0.54838712  0.71244599  1  0.421845  0  0.299052  0.28809  0  0.960576  0
H  H36  1  0.36081269  0.16648872  0.15166224  1  0.498723  0  0.296441  0.302458  0  1.000574  0
H  H37  1  0.46862542  0.21455824  0.04616655  1  0.402117  0  0.298773  0.28805  0  0.962034  0
H  H38  1  0.66371486  0.81165855  0.85971075  1  0.488265  0  0.297519  0.303392  0  0.99822  0
H  H39  1  0.56220177  0.75786720  0.97126462  1  0.431211  0  0.300495  0.29036  0  0.957513  0
H  H40  1  0.81637199  0.16120639  0.85895105  1  0.479438  0  0.295859  0.30183  0  0.999936  0
H  H41  1  0.76471319  0.20594160  0.96867547  1  0.397279  0  0.297553  0.286139  0  0.962917  0
H  H42  1  0.16809234  0.81361906  0.15639892  1  0.468627  0  0.296828  0.30317  0  1.000202  0
H  H43  1  0.21264109  0.76124284  0.05379217  1  0.434493  0  0.30106  0.291221  0  0.957197  0
H  H44  1  0.36225843  0.65585138  0.31278080  1  0.477849  0  0.296398  0.30246  0  0.999931  0
H  H45  1  0.47193378  0.55203800  0.26168128  1  0.422591  0  0.301331  0.291211  0  0.956556  0
H  H46  1  0.66270143  0.35938092  0.66147151  1  0.485211  0  0.2955  0.301742  0  0.999839  0
H  H47  1  0.56005753  0.46929817  0.70590314  1  0.425302  0  0.297484  0.285914  0  0.963015  0
H  H48  1  0.36099386  0.81495619  0.66933624  1  0.477838  0  0.296422  0.302992  0  0.999814  0
H  H49  1  0.46996057  0.76446765  0.71542551  1  0.420248  0  0.299247  0.287661  0  0.962638  0
H  H50  1  0.65549868  0.17079667  0.31354625  1  0.47647  0  0.296568  0.302459  0  0.999606  0
H  H51  1  0.55116652  0.21672119  0.26285171  1  0.432017  0  0.299042  0.28753  0  0.962406  0
C  C52  1  0.99725851  0.69693065  0.49520489  1  1.505322  0  0.233177  0.649513  0  4.077276  0
C  C53  1  0.31132511  0.99734809  0.19522772  1  1.492526  0  0.233114  0.650932  0  4.073988  0
C  C54  1  0.00380433  0.30460056  0.49224275  1  1.496743  0  0.233045  0.649852  0  4.074784  0
C  C55  1  0.70025386  0.99351839  0.80320165  1  1.501678  0  0.232089  0.647425  0  4.079357  0
C  C56  1  0.99629886  0.69511024  0.80723974  1  1.540874  0  0.244451  0.642076  0  4.017785  0
C  C57  1  0.69963185  0.00192936  0.48975354  1  1.502515  0  0.23313  0.650699  0  4.069433  0
C  C58  1  0.00106301  0.30898257  0.19340294  1  1.533578  0  0.244691  0.641349  0  4.018322  0
C  C59  1  0.30941658  0.99122002  0.50049614  1  1.509992  0  0.233759  0.652548  0  4.063154  0
C  C60  1  0.30911955  0.69441799  0.49281787  1  1.49599  0  0.233145  0.649276  0  4.076304  0
C  C61  1  0.99514707  0.99532559  0.80680403  1  1.511939  0  0.233466  0.649813  0  4.077024  0
C  C62  1  0.70291557  0.30747675  0.49513512  1  1.519295  0  0.232944  0.648748  0  4.077947  0
C  C63  1  0.00399869  0.99463136  0.19320146  1  1.52037  0  0.233087  0.652004  0  4.074788  0
C  C64  1  0.00669562  0.40395044  0.49078827  1  0.05264  0  -0.027204  -0.138219  0  3.954815  0
C  C65  1  0.99703430  0.59504858  0.49900275  1  -0.035645  0  -0.02669  -0.135431  0  3.953296  0
C  C66  1  0.08813375  0.45603096  0.40784644  1  0.399124  0  0.092997  0.278459  0  4.083205  0
C  C67  1  0.91713086  0.54145134  0.58336086  1  0.458529  0  0.091952  0.274741  0  4.090162  0
C  C68  1  0.07975805  0.55072718  0.41535714  1  0.034058  0  -0.101466  -0.205768  0  3.972926  0
C  C69  1  0.92506829  0.44719118  0.57550832  1  -0.081212  0  -0.101652  -0.20336  0  3.97274  0
C  C70  1  0.40966690  0.00095767  0.09341304  1  0.016395  0  -0.026401  -0.136154  0  3.952523  0
C  C71  1  0.59944719  0.99222761  0.90253568  1  0.001218  0  -0.026575  -0.136344  0  3.953033  0
C  C72  1  0.45885112  0.08528634  0.03959813  1  0.416638  0  0.092237  0.27685  0  4.090052  0
C  C73  1  0.54890279  0.90920215  0.95492439  1  0.362194  0  0.093005  0.277482  0  4.086649  0
C  C74  1  0.55313864  0.07715059  0.94546298  1  -0.008938  0  -0.102376  -0.206426  0  3.976271  0
C  C75  1  0.45495787  0.91701280  0.04946715  1  0.023831  0  -0.101226  -0.204445  0  3.971476  0
C  C76  1  0.99457584  0.99925942  0.90518880  1  -0.0379  0  -0.026468  -0.136872  0  3.952404  0
C  C77  1  0.00578865  0.99212264  0.09352712  1  -0.023617  0  -0.026691  -0.137672  0  3.954112  0
C  C78  1  0.91388512  0.08252373  0.95468032  1  0.439222  0  0.090684  0.275423  0  4.084269  0
C  C79  1  0.08741723  0.90983055  0.04302300  1  0.47248  0  0.094515  0.280509  0  4.084082  0
C  C80  1  0.92271158  0.07524766  0.04808778  1  0.007505  0  -0.102726  -0.208088  0  3.979504  0
C  C81  1  0.07821781  0.91674238  0.94991381  1  0.012717  0  -0.099749  -0.203689  0  3.967047  0
C  C82  1  0.40888952  0.59415766  0.49111254  1  -0.030392  0  -0.027006  -0.136307  0  3.951886  0
C  C83  1  0.60077242  0.40542537  0.49927154  1  -0.011571  0  -0.026527  -0.136894  0  3.953323  0
C  C84  1  0.45975532  0.54290223  0.40947023  1  0.432125  0  0.094264  0.279062  0  4.086134  0
C  C85  1  0.54857902  0.45521759  0.58231814  1  0.451416  0  0.091011  0.276843  0  4.084782  0
C  C86  1  0.55496640  0.44970406  0.41679595  1  -0.049815  0  -0.100289  -0.205039  0  3.969384  0
C  C87  1  0.45401144  0.54891088  0.57441592  1  0.019733  0  -0.102757  -0.208845  0  3.977989  0
C  C88  1  0.09055178  0.38473146  0.98784101  1  -0.014921  0  -0.154439  -0.166774  0  3.837087  0
C  C89  1  0.08831964  0.49045406  0.88208944  1  -0.02659  0  -0.154424  -0.168107  0  3.839084  0
C  C90  1  0.99403764  0.59311920  0.91305316  1  0.039412  0  -0.015899  0.017621  0  3.803293  0
C  C91  1  0.01402329  0.60688420  0.99758895  1  -0.085965  0  -0.159084  -0.171426  0  3.86146  0
C  C92  1  0.01519081  0.50138413  0.10321445  1  0.006786  0  -0.159855  -0.170371  0  3.864275  0
C  C93  1  0.99681622  0.41464238  0.09120070  1  0.061682  0  -0.016067  0.017416  0  3.799142  0
C  C94  1  0.88585917  0.46556024  0.07190421  1  -0.023044  0  -0.164866  -0.174463  0  3.884071  0
C  C95  1  0.88368422  0.57185806  0.96746857  1  -0.051007  0  -0.166912  -0.179761  0  3.892877  0
C  C96  1  0.40708123  0.99284394  0.50349726  1  0.056218  0  -0.02645  -0.136712  0  3.944548  0
C  C97  1  0.59735128  0.00495597  0.49136992  1  0.022286  0  -0.026693  -0.137412  0  3.947275  0
C  C98  1  0.45802931  0.91236223  0.58644715  1  0.422118  0  0.093364  0.2787  0  4.087211  0
C  C99  1  0.54395741  0.08791324  0.41087585  1  0.409562  0  0.093191  0.278111  0  4.086552  0
C  C100  1  0.55245535  0.92133577  0.57651427  1  -0.027189  0  -0.101781  -0.203551  0  3.96902  0
C  C101  1  0.45046610  0.07798251  0.41986820  1  -0.059859  0  -0.101919  -0.20558  0  3.968907  0
N  N102  1  0.17471805  0.41599898  0.32444112  1  -1.238895  0  -0.604827  -0.625552  0  3.335451  0
N  N103  1  0.83669529  0.57551263  0.67261932  1  -1.247051  0  -0.606602  -0.628357  0  3.341832  0
N  N104  1  0.41586898  0.17482290  0.07328948  1  -1.256429  0  -0.606505  -0.629179  0  3.34289  0
N  N105  1  0.58601806  0.82527000  0.91550119  1  -1.251956  0  -0.604988  -0.626699  0  3.338036  0
N  N106  1  0.83114800  0.17030135  0.91338680  1  -1.21983  0  -0.607595  -0.62851  0  3.334783  0
N  N107  1  0.17510225  0.82754560  0.07890714  1  -1.26716  0  -0.605319  -0.627294  0  3.340911  0
N  N108  1  0.41842605  0.57822618  0.32738986  1  -1.245095  0  -0.604178  -0.625189  0  3.34145  0
N  N109  1  0.58447781  0.41394313  0.67036956  1  -1.247573  0  -0.60741  -0.628773  0  3.334682  0
N  N110  1  0.41683711  0.82992114  0.67595019  1  -1.230185  0  -0.605599  -0.626883  0  3.344056  0
N  N111  1  0.57808523  0.17743294  0.32845658  1  -1.254426  0  -0.605276  -0.625231  0  3.342454  0
O  O112  1  0.91991814  0.73934486  0.57094906  1  -1.179421  0  -0.359994  -0.623468  0  2.317894  0
O  O113  1  0.27045436  0.07314383  0.23757166  1  -1.179065  0  -0.359607  -0.623656  0  2.31747  0
O  O114  1  0.08002362  0.26303679  0.41560365  1  -1.190001  0  -0.359731  -0.622911  0  2.320508  0
O  O115  1  0.74188528  0.91712363  0.76147484  1  -1.190034  0  -0.359419  -0.621953  0  2.319975  0
O  O116  1  0.07567668  0.73217541  0.76574873  1  -1.187399  0  -0.363215  -0.633918  0  2.287315  0
O  O117  1  0.74207661  0.07855582  0.41196835  1  -1.182522  0  -0.356169  -0.623943  0  2.29501  0
O  O118  1  0.92661871  0.26600641  0.23314678  1  -1.187017  0  -0.363226  -0.628056  0  2.312554  0
O  O119  1  0.26818230  0.91337081  0.57713465  1  -1.188446  0  -0.356206  -0.624332  0  2.291782  0
O  O120  1  0.26743246  0.73684189  0.41594227  1  -1.185497  0  -0.359818  -0.62138  0  2.31866  0
O  O121  1  0.91918743  0.07231275  0.76414955  1  -1.186918  0  -0.360594  -0.622921  0  2.321752  0
O  O122  1  0.74484243  0.26519718  0.57183078  1  -1.185384  0  -0.360102  -0.622649  0  2.318656  0
O  O123  1  0.08036370  0.91809888  0.23539977  1  -1.188366  0  -0.360432  -0.62342  0  2.321392  0
O  O124  1  0.07072915  0.91743093  0.76841914  1  -1.189366  0  -0.355631  -0.623633  0  2.277666  0
O  O125  1  0.74369734  0.26921172  0.41713360  1  -1.184107  0  -0.355232  -0.622459  0  2.279031  0
O  O126  1  0.92821006  0.07247524  0.23172920  1  -1.192344  0  -0.357839  -0.628662  0  2.278374  0
O  O127  1  0.26870277  0.73329461  0.57039843  1  -1.19095  0  -0.358549  -0.628435  0  2.279204  0
O  O128  1  0.92155050  0.73530306  0.76511289  1  -1.188546  0  -0.352839  -0.622153  0  2.289517  0
O  O129  1  0.27030198  0.06761798  0.42237420  1  -1.187181  0  -0.360066  -0.629365  0  2.286162  0
O  O130  1  0.07914260  0.26843193  0.23133647  1  -1.188356  0  -0.353176  -0.628383  0  2.264257  0
O  O131  1  0.74048697  0.92378107  0.56611803  1  -1.187764  0  -0.359731  -0.628061  0  2.286274  0
O  O132  1  0.74045772  0.07039107  0.76310192  1  -1.185314  0  -0.358927  -0.626033  0  2.287601  0
O  O133  1  0.07408822  0.73719653  0.41835223  1  -1.186896  0  -0.358011  -0.626294  0  2.286873  0
O  O134  1  0.27115926  0.92041542  0.23559919  1  -1.191128  0  -0.358436  -0.626755  0  2.287055  0
O  O135  1  0.92703606  0.26433728  0.56937001  1  -1.192265  0  -0.358836  -0.626974  0  2.285799  0
O  O136  1  0.80164603  0.06724816  0.56190219  1  -1.233222  0  -0.697325  -1.069249  0  2.365965  0
O  O137  1  0.07018367  0.06310431  0.56607139  1  -1.242353  0  -0.695845  -1.067005  0  2.363719  0
O  O138  1  0.07222415  0.06655575  0.29381823  1  -1.225031  0  -0.69628  -1.067107  0  2.366383  0
O  O139  1  0.06868967  0.79523361  0.56473428  1  -1.235437  0  -0.696432  -1.067454  0  2.368646  0
O  O140  1  0.15116885  0.94720830  0.44928897  1  -1.19592  0  -0.794097  -1.144052  0  2.14439  0
O  O141  1  0.95350392  0.95071931  0.44548459  1  -1.198679  0  -0.796167  -1.145857  0  2.147266  0
O  O142  1  0.95503981  0.14749596  0.44582812  1  -1.196446  0  -0.794583  -1.145372  0  2.143298  0
O  O143  1  0.95285002  0.94702618  0.64599579  1  -1.197603  0  -0.794374  -1.145276  0  2.142741  0
