# generated using pymatgen
data_ZnH9C13NO4
_symmetry_space_group_name_H-M   'P 1'
_cell_length_a   7.32896702
_cell_length_b   10.28042171
_cell_length_c   16.78653283
_cell_angle_alpha   90.00008969
_cell_angle_beta   90.00006817
_cell_angle_gamma   105.52021945
_symmetry_Int_Tables_number   1
_chemical_formula_structural   ZnH9C13NO4
_chemical_formula_sum   'Zn4 H36 C52 N4 O16'
_cell_volume   1218.66036245
_cell_formula_units_Z   4
loop_
 _symmetry_equiv_pos_site_id
 _symmetry_equiv_pos_as_xyz
  1  'x, y, z'
loop_
 _atom_site_type_symbol
 _atom_site_label
 _atom_site_symmetry_multiplicity
 _atom_site_fract_x
 _atom_site_fract_y
 _atom_site_fract_z
 _atom_site_occupancy
 _atom_site_hle17_bader_spin_density
 _atom_site_hle17_ddec_charge
 _atom_site_hle17_ddec_spin_density
 _atom_site_hle17_ddec_sum_bond_order
 _atom_site_hle17_magmom
 _atom_site_hse06_10hf_bader_spin_density
 _atom_site_hse06_10hf_ddec_charge
 _atom_site_hse06_10hf_ddec_spin_density
 _atom_site_hse06_10hf_ddec_sum_bond_order
 _atom_site_hse06_10hf_magmom
 _atom_site_hse06_bader_spin_density
 _atom_site_hse06_ddec_charge
 _atom_site_hse06_ddec_spin_density
 _atom_site_hse06_ddec_sum_bond_order
 _atom_site_hse06_magmom
 _atom_site_pbe_bader_spin_density
 _atom_site_pbe_cm5_charge
 _atom_site_pbe_ddec_charge
 _atom_site_pbe_ddec_spin_density
 _atom_site_pbe_ddec_sum_bond_order
 _atom_site_pbe_magmom
Zn  Zn0  1  0.31802613  0.89699703  0.49255130  1  0  1.044844  0  1.858344  0  0  0.87066  0  2.327691  0  0  0.923449  0  2.262081  0  0  0.676365  0.833857  0  2.372607  0
Zn  Zn1  1  0.18198115  0.60300251  0.99255194  1  0  1.04484  0  1.858432  0  0  0.870643  0  2.327771  0  0  0.92343  0  2.262163  0  0  0.676364  0.833841  0  2.372687  0
Zn  Zn2  1  0.68197310  0.10299889  0.50744986  1  0  1.044877  0  1.858382  0  0  0.870683  0  2.327703  0  0  0.923475  0  2.262084  0  0  0.676383  0.833884  0  2.372623  0
Zn  Zn3  1  0.81802813  0.39699850  0.00745042  1  0  1.04484  0  1.858329  0  0  0.870618  0  2.327662  0  0  0.923412  0  2.262043  0  0  0.676363  0.833817  0  2.372575  0
H  H4  1  0.95986037  0.85811770  0.65470108  1  0  0.107829  0  0.986244  0  0  0.112775  0  1.056282  0  0  0.116797  0  1.053194  0  0  0.102404  0.109801  0  1.058666  0
H  H5  1  0.54015681  0.64187666  0.15469827  1  0  0.107864  0  0.98622  0  0  0.112802  0  1.056242  0  0  0.116829  0  1.053153  0  0  0.102444  0.109833  0  1.058625  0
H  H6  1  0.04012409  0.14187511  0.34530188  1  0  0.107844  0  0.986159  0  0  0.112799  0  1.056181  0  0  0.116817  0  1.053096  0  0  0.102439  0.109831  0  1.058557  0
H  H7  1  0.45986898  0.35812848  0.84529933  1  0  0.107878  0  0.986082  0  0  0.112809  0  1.056142  0  0  0.116823  0  1.053055  0  0  0.10244  0.109839  0  1.058521  0
H  H8  1  0.05810406  0.74651287  0.77266499  1  0  0.097726  0  0.947716  0  0  0.107862  0  1.007727  0  0  0.111535  0  1.00502  0  0  0.10224  0.105186  0  1.009766  0
H  H9  1  0.44190051  0.75348090  0.27266012  1  0  0.097765  0  0.947671  0  0  0.107864  0  1.007727  0  0  0.111539  0  1.005017  0  0  0.1022  0.105185  0  1.009761  0
H  H10  1  0.94188303  0.25347593  0.22733498  1  0  0.097649  0  0.947763  0  0  0.107773  0  1.007775  0  0  0.111445  0  1.005069  0  0  0.102187  0.105105  0  1.00981  0
H  H11  1  0.55811298  0.24652416  0.72733450  1  0  0.097686  0  0.947742  0  0  0.107804  0  1.007756  0  0  0.111476  0  1.005052  0  0  0.102203  0.105135  0  1.009789  0
H  H12  1  0.47340710  0.57282556  0.83426738  1  0  0.11059  0  0.976727  0  0  0.114944  0  1.046738  0  0  0.118725  0  1.044293  0  0  0.103087  0.11222  0  1.048525  0
H  H13  1  0.02659072  0.92717542  0.33427019  1  0  0.110522  0  0.976766  0  0  0.114889  0  1.04676  0  0  0.118669  0  1.044314  0  0  0.103054  0.112163  0  1.048549  0
H  H14  1  0.52658072  0.42716525  0.16573260  1  0  0.110631  0  0.976585  0  0  0.114963  0  1.046643  0  0  0.118737  0  1.044199  0  0  0.103092  0.112238  0  1.048437  0
H  H15  1  0.97341609  0.07282255  0.66573336  1  0  0.110593  0  0.976656  0  0  0.114937  0  1.046697  0  0  0.118711  0  1.044244  0  0  0.10308  0.112212  0  1.048484  0
H  H16  1  0.37424530  0.68463781  0.71609529  1  0  0.097693  0  0.946359  0  0  0.108988  0  1.0045  0  0  0.112399  0  1.002287  0  0  0.103577  0.106488  0  1.006227  0
H  H17  1  0.12576794  0.81536892  0.21609865  1  0  0.097865  0  0.946383  0  0  0.109109  0  1.004534  0  0  0.112519  0  1.002324  0  0  0.10362  0.106616  0  1.006259  0
H  H18  1  0.62574116  0.31535300  0.28390766  1  0  0.097764  0  0.946302  0  0  0.109089  0  1.004396  0  0  0.112501  0  1.00218  0  0  0.103616  0.106594  0  1.006123  0
H  H19  1  0.87425449  0.18463821  0.78390609  1  0  0.097752  0  0.946409  0  0  0.109082  0  1.004495  0  0  0.112495  0  1.002279  0  0  0.10362  0.106589  0  1.006223  0
H  H20  1  0.90376351  0.82518195  0.52007527  1  0  0.094745  0  0.958112  0  0  0.101712  0  1.023558  0  0  0.103957  0  1.022026  0  0  0.121381  0.099995  0  1.024808  0
H  H21  1  0.59625045  0.67482706  0.02007729  1  0  0.094683  0  0.958206  0  0  0.101609  0  1.023683  0  0  0.103842  0  1.022156  0  0  0.121378  0.0999  0  1.024942  0
H  H22  1  0.09624525  0.17482510  0.47992590  1  0  0.094617  0  0.958156  0  0  0.101598  0  1.023603  0  0  0.103834  0  1.022066  0  0  0.121335  0.099883  0  1.024854  0
H  H23  1  0.40375720  0.32517697  0.97992388  1  0  0.094679  0  0.958165  0  0  0.101663  0  1.023586  0  0  0.103899  0  1.02205  0  0  0.12137  0.099947  0  1.024836  0
H  H24  1  0.61997106  0.63659794  0.48649104  1  0  0.109035  0  0.946167  0  0  0.121082  0  1.000939  0  0  0.123628  0  1.001425  0  0  0.109634  0.119202  0  1.000822  0
H  H25  1  0.88003419  0.86341355  0.98649143  1  0  0.108988  0  0.946209  0  0  0.121031  0  1.000978  0  0  0.123577  0  1.001463  0  0  0.109619  0.119133  0  1.000887  0
H  H26  1  0.38002524  0.36341609  0.51351132  1  0  0.10902  0  0.946213  0  0  0.121055  0  1.000976  0  0  0.123602  0  1.00146  0  0  0.10964  0.119146  0  1.000903  0
H  H27  1  0.11996799  0.13659044  0.01350735  1  0  0.109007  0  0.946204  0  0  0.121056  0  1.000968  0  0  0.123603  0  1.001454  0  0  0.109636  0.11918  0  1.000851  0
H  H28  1  0.66625360  0.44129598  0.40420059  1  0  0.099103  0  0.965444  0  0  0.107217  0  1.030093  0  0  0.11015  0  1.027554  0  0  0.105827  0.10496  0  1.032069  0
H  H29  1  0.83374185  0.05870871  0.90419649  1  0  0.099141  0  0.965405  0  0  0.107269  0  1.030035  0  0  0.110206  0  1.027488  0  0  0.105832  0.105011  0  1.032015  0
H  H30  1  0.33372854  0.55871293  0.59580177  1  0  0.099189  0  0.965306  0  0  0.107302  0  1.029945  0  0  0.110235  0  1.027399  0  0  0.105816  0.105045  0  1.031919  0
H  H31  1  0.16625476  0.94129122  0.09579991  1  0  0.099073  0  0.9655  0  0  0.107208  0  1.030125  0  0  0.110132  0  1.027592  0  0  0.105815  0.104952  0  1.032102  0
H  H32  1  0.99356574  0.44975476  0.35674299  1  0  0.103392  0  0.950804  0  0  0.113811  0  1.008814  0  0  0.115988  0  1.009832  0  0  0.108  0.112262  0  1.008232  0
H  H33  1  0.50642657  0.05024170  0.85673931  1  0  0.10341  0  0.950747  0  0  0.11381  0  1.008773  0  0  0.115987  0  1.009791  0  0  0.108  0.112257  0  1.008194  0
H  H34  1  0.00641046  0.55024908  0.64325341  1  0  0.103426  0  0.95068  0  0  0.113797  0  1.008757  0  0  0.115974  0  1.009775  0  0  0.108001  0.112247  0  1.008171  0
H  H35  1  0.49356746  0.94975116  0.14325590  1  0  0.103361  0  0.950778  0  0  0.113781  0  1.008792  0  0  0.115958  0  1.009809  0  0  0.107996  0.112232  0  1.008211  0
H  H36  1  0.26255269  0.64715246  0.39675831  1  0  0.086892  0  0.94244  0  0  0.096808  0  1.002521  0  0  0.099624  0  0.999906  0  0  0.119924  0.094671  0  1.004533  0
H  H37  1  0.23744654  0.85284067  0.89675921  1  0  0.086851  0  0.942501  0  0  0.096776  0  1.002573  0  0  0.099591  0  0.999959  0  0  0.119921  0.094641  0  1.004585  0
H  H38  1  0.73743261  0.35284639  0.60323511  1  0  0.086841  0  0.942475  0  0  0.096762  0  1.002569  0  0  0.099579  0  0.999954  0  0  0.119914  0.09463  0  1.004581  0
H  H39  1  0.76255086  0.14715019  0.10324017  1  0  0.0869  0  0.942455  0  0  0.096814  0  1.00253  0  0  0.099629  0  0.999918  0  0  0.119935  0.094684  0  1.004542  0
C  C40  1  0.66037888  0.77762821  0.67782068  1  0  -0.062716  0  3.757197  0  0  -0.040712  0  3.989737  0  0  -0.047708  0  4.012607  0  0  -0.019313  -0.036102  0  3.974187  0
C  C41  1  0.83963734  0.72237831  0.17782049  1  0  -0.06273  0  3.757171  0  0  -0.04079  0  3.989793  0  0  -0.047781  0  4.012664  0  0  -0.019427  -0.036188  0  3.974259  0
C  C42  1  0.33960768  0.22236663  0.32218346  1  0  -0.06238  0  3.757002  0  0  -0.040423  0  3.989514  0  0  -0.047414  0  4.012387  0  0  -0.019203  -0.035809  0  3.973954  0
C  C43  1  0.16038319  0.27763486  0.82217889  1  0  -0.062675  0  3.757259  0  0  -0.040696  0  3.989814  0  0  -0.047693  0  4.012686  0  0  -0.019288  -0.036086  0  3.974266  0
C  C44  1  0.85344146  0.79475896  0.69364831  1  0  -0.085639  0  3.744377  0  0  -0.109179  0  3.995717  0  0  -0.110471  0  4.016053  0  0  -0.089294  -0.10815  0  3.981894  0
C  C45  1  0.64657025  0.70524254  0.19364562  1  0  -0.085724  0  3.744331  0  0  -0.109208  0  3.995655  0  0  -0.110508  0  4.015986  0  0  -0.089309  -0.108177  0  3.981834  0
C  C46  1  0.14654920  0.20523590  0.30635345  1  0  -0.085835  0  3.744321  0  0  -0.109391  0  3.995665  0  0  -0.110679  0  4.016003  0  0  -0.089392  -0.108357  0  3.98183  0
C  C47  1  0.35344535  0.29476455  0.80635019  1  0  -0.085779  0  3.744188  0  0  -0.109329  0  3.995522  0  0  -0.11061  0  4.015868  0  0  -0.08935  -0.108292  0  3.98169  0
C  C48  1  0.90850081  0.73247465  0.75943138  1  0  -0.077175  0  3.746997  0  0  -0.098564  0  3.994223  0  0  -0.099184  0  4.013502  0  0  -0.087873  -0.097987  0  3.981104  0
C  C49  1  0.59150805  0.76752604  0.25942932  1  0  -0.077031  0  3.746853  0  0  -0.098408  0  3.99409  0  0  -0.09903  0  4.013371  0  0  -0.087719  -0.097805  0  3.980973  0
C  C50  1  0.09148911  0.26751819  0.24056978  1  0  -0.076924  0  3.747117  0  0  -0.098278  0  3.994278  0  0  -0.098899  0  4.013561  0  0  -0.087756  -0.097696  0  3.981156  0
C  C51  1  0.40850754  0.23248105  0.74056768  1  0  -0.076966  0  3.747  0  0  -0.098298  0  3.994145  0  0  -0.098921  0  4.013425  0  0  -0.087771  -0.097719  0  3.981024  0
C  C52  1  0.77204774  0.65201272  0.81016781  1  0  -0.05985  0  3.755419  0  0  -0.037879  0  3.987478  0  0  -0.04496  0  4.010431  0  0  -0.018215  -0.03326  0  3.971978  0
C  C53  1  0.72795486  0.84798912  0.31016471  1  0  -0.059953  0  3.755508  0  0  -0.037999  0  3.987587  0  0  -0.045078  0  4.010537  0  0  -0.018262  -0.03343  0  3.97215  0
C  C54  1  0.22794245  0.34797710  0.18983395  1  0  -0.060205  0  3.755804  0  0  -0.038186  0  3.987802  0  0  -0.045267  0  4.010756  0  0  -0.018283  -0.033569  0  3.972313  0
C  C55  1  0.27205726  0.15201594  0.68983408  1  0  -0.060129  0  3.755703  0  0  -0.038152  0  3.987736  0  0  -0.045231  0  4.010686  0  0  -0.018305  -0.033541  0  3.972246  0
C  C56  1  0.57912313  0.63368194  0.79405603  1  0  -0.072965  0  3.721393  0  0  -0.096798  0  3.972839  0  0  -0.097917  0  3.993928  0  0  -0.085945  -0.095906  0  3.958512  0
C  C57  1  0.92088177  0.86631885  0.29405661  1  0  -0.072858  0  3.721381  0  0  -0.096685  0  3.972786  0  0  -0.097802  0  3.993871  0  0  -0.085915  -0.095768  0  3.958461  0
C  C58  1  0.42086469  0.36630887  0.20594692  1  0  -0.0728  0  3.721508  0  0  -0.096676  0  3.973014  0  0  -0.097785  0  3.994092  0  0  -0.085892  -0.095778  0  3.958682  0
C  C59  1  0.07913372  0.13368421  0.70594574  1  0  -0.072813  0  3.721341  0  0  -0.096676  0  3.972842  0  0  -0.097782  0  3.993919  0  0  -0.085872  -0.095772  0  3.958505  0
C  C60  1  0.52390853  0.69621015  0.72817049  1  0  -0.078671  0  3.739291  0  0  -0.100284  0  3.987789  0  0  -0.101209  0  4.007959  0  0  -0.086771  -0.099516  0  3.974059  0
C  C61  1  0.97610479  0.80379550  0.22817104  1  0  -0.079006  0  3.739454  0  0  -0.100537  0  3.987934  0  0  -0.101465  0  4.008102  0  0  -0.086833  -0.099766  0  3.974207  0
C  C62  1  0.47607830  0.30378166  0.27183365  1  0  -0.078999  0  3.739215  0  0  -0.100601  0  3.987711  0  0  -0.101532  0  4.007883  0  0  -0.086866  -0.099827  0  3.973976  0
C  C63  1  0.02391427  0.19621362  0.77183191  1  0  -0.07883  0  3.739362  0  0  -0.100452  0  3.987853  0  0  -0.101379  0  4.008024  0  0  -0.08681  -0.099684  0  3.974128  0
C  C64  1  0.60238274  0.84985179  0.60872603  1  0  0.65281  0  3.889868  0  0  0.601182  0  4.181738  0  0  0.636499  0  4.173856  0  0  0.212925  0.577277  0  4.186241  0
C  C65  1  0.89763274  0.65014946  0.10872520  1  0  0.653054  0  3.889637  0  0  0.601377  0  4.18154  0  0  0.636691  0  4.17366  0  0  0.212998  0.577476  0  4.186048  0
C  C66  1  0.39760409  0.15014002  0.39127633  1  0  0.652925  0  3.889598  0  0  0.601419  0  4.181307  0  0  0.636734  0  4.173421  0  0  0.21298  0.577524  0  4.1858  0
C  C67  1  0.10239043  0.34985969  0.89127299  1  0  0.653125  0  3.88948  0  0  0.601507  0  4.181314  0  0  0.636824  0  4.173426  0  0  0.212955  0.577603  0  4.185819  0
C  C68  1  0.83443744  0.59001719  0.88237568  1  0  0.658166  0  3.889369  0  0  0.605986  0  4.180777  0  0  0.64152  0  4.173005  0  0  0.213985  0.581901  0  4.185327  0
C  C69  1  0.66555914  0.90997880  0.38237320  1  0  0.658421  0  3.88935  0  0  0.606292  0  4.180676  0  0  0.641825  0  4.172896  0  0  0.214176  0.58222  0  4.185226  0
C  C70  1  0.16554592  0.40997259  0.11762667  1  0  0.658628  0  3.889074  0  0  0.606461  0  4.180442  0  0  0.641995  0  4.172659  0  0  0.214215  0.582371  0  4.185008  0
C  C71  1  0.33444767  0.09001917  0.61762618  1  0  0.65851  0  3.889227  0  0  0.606363  0  4.180573  0  0  0.641896  0  4.172794  0  0  0.214155  0.582284  0  4.185127  0
C  C72  1  0.91658046  0.73865146  0.48521038  1  0  0.131285  0  3.668953  0  0  0.097068  0  3.922623  0  0  0.103708  0  3.942557  0  0  0.051901  0.092862  0  3.909096  0
C  C73  1  0.58342805  0.76135401  0.98521290  1  0  0.131232  0  3.668996  0  0  0.097044  0  3.922768  0  0  0.103698  0  3.942686  0  0  0.051877  0.092828  0  3.909257  0
C  C74  1  0.08342110  0.26135454  0.51478900  1  0  0.131355  0  3.668827  0  0  0.097106  0  3.922557  0  0  0.10376  0  3.942478  0  0  0.051907  0.092906  0  3.909025  0
C  C75  1  0.41657750  0.23864799  0.01478827  1  0  0.131273  0  3.66891  0  0  0.097049  0  3.922646  0  0  0.103703  0  3.942567  0  0  0.051863  0.092848  0  3.909117  0
C  C76  1  0.75953227  0.63326541  0.46582808  1  0  -0.123994  0  3.728525  0  0  -0.135011  0  3.978487  0  0  -0.143478  0  4.001879  0  0  -0.08203  -0.129561  0  3.962763  0
C  C77  1  0.74047142  0.86674198  0.96582840  1  0  -0.123874  0  3.728631  0  0  -0.134863  0  3.978541  0  0  -0.14333  0  4.001934  0  0  -0.082051  -0.129408  0  3.962838  0
C  C78  1  0.24046492  0.36674359  0.53417189  1  0  -0.12379  0  3.728499  0  0  -0.134768  0  3.978398  0  0  -0.143234  0  4.00179  0  0  -0.08199  -0.129305  0  3.962699  0
C  C79  1  0.25952866  0.13325999  0.03417038  1  0  -0.123882  0  3.728484  0  0  -0.134891  0  3.978443  0  0  -0.143358  0  4.001831  0  0  -0.082006  -0.129443  0  3.962725  0
C  C80  1  0.78497705  0.52700984  0.41935090  1  0  0.002318  0  3.703447  0  0  -0.016616  0  3.950204  0  0  -0.012415  0  3.96845  0  0  -0.060565  -0.018944  0  3.937727  0
C  C81  1  0.71502499  0.97299335  0.91935012  1  0  0.002195  0  3.703386  0  0  -0.016764  0  3.950129  0  0  -0.01257  0  3.968377  0  0  -0.060562  -0.019085  0  3.937641  0
C  C82  1  0.21501120  0.47299709  0.58064788  1  0  0.00179  0  3.703029  0  0  -0.017145  0  3.949802  0  0  -0.012944  0  3.968054  0  0  -0.060741  -0.019458  0  3.937298  0
C  C83  1  0.28497535  0.02700559  0.08064807  1  0  0.00227  0  3.703457  0  0  -0.016677  0  3.950215  0  0  -0.012469  0  3.968469  0  0  -0.060573  -0.019006  0  3.937741  0
C  C84  1  0.96702434  0.53045749  0.39324252  1  0  -0.115925  0  3.734947  0  0  -0.125233  0  3.981415  0  0  -0.133239  0  4.005174  0  0  -0.079032  -0.120242  0  3.965478  0
C  C85  1  0.53297338  0.96954157  0.89324105  1  0  -0.115887  0  3.734806  0  0  -0.125156  0  3.981255  0  0  -0.133161  0  4.005015  0  0  -0.079  -0.120152  0  3.965301  0
C  C86  1  0.03295770  0.46954740  0.60675388  1  0  -0.11558  0  3.734327  0  0  -0.124838  0  3.980776  0  0  -0.132843  0  4.004534  0  0  -0.078829  -0.119837  0  3.964821  0
C  C87  1  0.46702449  0.03045434  0.10675536  1  0  -0.115831  0  3.73488  0  0  -0.125144  0  3.98135  0  0  -0.13315  0  4.005107  0  0  -0.078994  -0.120145  0  3.965407  0
C  C88  1  0.11726587  0.63866669  0.41532255  1  0  0.123711  0  3.695369  0  0  0.092132  0  3.943031  0  0  0.098813  0  3.962486  0  0  0.049945  0.0879  0  3.92983  0
C  C89  1  0.38273353  0.86133054  0.91532354  1  0  0.123682  0  3.695432  0  0  0.092109  0  3.943121  0  0  0.098789  0  3.962578  0  0  0.049945  0.087874  0  3.929916  0
C  C90  1  0.88272290  0.36133420  0.58467206  1  0  0.123669  0  3.695448  0  0  0.092075  0  3.943127  0  0  0.098755  0  3.962587  0  0  0.049938  0.087834  0  3.929933  0
C  C91  1  0.61726570  0.13866538  0.08467584  1  0  0.123684  0  3.695423  0  0  0.09214  0  3.94308  0  0  0.09882  0  3.962537  0  0  0.049956  0.087902  0  3.929885  0
N  N92  1  0.09240460  0.74060891  0.46088233  1  0  -0.319163  0  3.2837  0  0  -0.233788  0  3.555266  0  0  -0.254418  0  3.571194  0  0  -0.328454  -0.219939  0  3.544298  0
N  N93  1  0.40760019  0.75939152  0.96088442  1  0  -0.318977  0  3.283539  0  0  -0.233667  0  3.555168  0  0  -0.254295  0  3.571088  0  0  -0.328417  -0.21982  0  3.544207  0
N  N94  1  0.90759175  0.25939404  0.53911467  1  0  -0.319147  0  3.283582  0  0  -0.23378  0  3.555173  0  0  -0.254409  0  3.571097  0  0  -0.328464  -0.219927  0  3.544209  0
N  N95  1  0.59240115  0.24060642  0.03911674  1  0  -0.319142  0  3.283708  0  0  -0.23382  0  3.555332  0  0  -0.254451  0  3.571258  0  0  -0.328447  -0.219974  0  3.544368  0
O  O96  1  0.43707702  0.80126681  0.57998388  1  0  -0.633486  0  2.061021  0  0  -0.570441  0  2.322599  0  0  -0.5986  0  2.309212  0  0  -0.314758  -0.550737  0  2.331019  0
O  O97  1  0.06294004  0.69873647  0.07998530  1  0  -0.633621  0  2.060958  0  0  -0.570549  0  2.322563  0  0  -0.598707  0  2.309177  0  0  -0.31483  -0.550843  0  2.330984  0
O  O98  1  0.56290870  0.19872198  0.42001729  1  0  -0.633656  0  2.060842  0  0  -0.570605  0  2.32235  0  0  -0.598764  0  2.308961  0  0  -0.314834  -0.550905  0  2.330769  0
O  O99  1  0.93709207  0.30127474  0.92001646  1  0  -0.633626  0  2.060854  0  0  -0.570574  0  2.322427  0  0  -0.598736  0  2.309048  0  0  -0.314773  -0.550869  0  2.330841  0
O  O100  1  0.72439648  0.95492440  0.58380316  1  0  -0.624604  0  2.087911  0  0  -0.556431  0  2.350099  0  0  -0.584657  0  2.336201  0  0  -0.307668  -0.536768  0  2.358869  0
O  O101  1  0.77561837  0.54508280  0.08380216  1  0  -0.624694  0  2.087971  0  0  -0.556486  0  2.3502  0  0  -0.584708  0  2.336299  0  0  -0.307645  -0.536815  0  2.358956  0
O  O102  1  0.27558351  0.04506737  0.41619861  1  0  -0.624646  0  2.08787  0  0  -0.556594  0  2.350062  0  0  -0.584818  0  2.336156  0  0  -0.307679  -0.536928  0  2.358823  0
O  O103  1  0.22440948  0.45493544  0.91619424  1  0  -0.624809  0  2.087806  0  0  -0.55661  0  2.349936  0  0  -0.584836  0  2.336029  0  0  -0.307692  -0.536938  0  2.358686  0
O  O104  1  0.00266556  0.64365497  0.90646266  1  0  -0.654748  0  2.11065  0  0  -0.590425  0  2.381337  0  0  -0.619132  0  2.367061  0  0  -0.31626  -0.570434  0  2.390424  0
O  O105  1  0.49733144  0.85634323  0.40645791  1  0  -0.654786  0  2.110688  0  0  -0.590469  0  2.381318  0  0  -0.619177  0  2.367041  0  0  -0.316227  -0.570474  0  2.390397  0
O  O106  1  0.99732400  0.35633686  0.09354268  1  0  -0.654871  0  2.110719  0  0  -0.590574  0  2.381404  0  0  -0.619279  0  2.367126  0  0  -0.316328  -0.570578  0  2.390498  0
O  O107  1  0.50267163  0.14365573  0.59354028  1  0  -0.65485  0  2.110699  0  0  -0.590558  0  2.381413  0  0  -0.619265  0  2.367135  0  0  -0.316267  -0.570565  0  2.390505  0
O  O108  1  0.71693376  0.48973640  0.91475990  1  0  -0.611204  0  2.059648  0  0  -0.540817  0  2.315635  0  0  -0.569361  0  2.302556  0  0  -0.305073  -0.521033  0  2.323973  0
O  O109  1  0.78306078  0.01025826  0.41475947  1  0  -0.61134  0  2.059635  0  0  -0.541021  0  2.315684  0  0  -0.569563  0  2.302597  0  0  -0.305249  -0.521241  0  2.324038  0
O  O110  1  0.28305880  0.51025243  0.08524186  1  0  -0.611366  0  2.059512  0  0  -0.54103  0  2.315566  0  0  -0.569574  0  2.302481  0  0  -0.305181  -0.521237  0  2.323917  0
O  O111  1  0.21694119  0.98973767  0.58524229  1  0  -0.611356  0  2.059609  0  0  -0.541018  0  2.31564  0  0  -0.569563  0  2.302559  0  0  -0.305194  -0.521227  0  2.32398  0
