# generated using pymatgen
data_Zn2H19C30N3O7
_symmetry_space_group_name_H-M   'P 1'
_cell_length_a   8.17596131
_cell_length_b   12.47611162
_cell_length_c   14.17388511
_cell_angle_alpha   64.72503381
_cell_angle_beta   88.25358340
_cell_angle_gamma   72.96293917
_symmetry_Int_Tables_number   1
_chemical_formula_structural   Zn2H19C30N3O7
_chemical_formula_sum   'Zn4 H38 C60 N6 O14'
_cell_volume   1242.50622023
_cell_formula_units_Z   2
loop_
 _symmetry_equiv_pos_site_id
 _symmetry_equiv_pos_as_xyz
  1  'x, y, z'
loop_
 _atom_site_type_symbol
 _atom_site_label
 _atom_site_symmetry_multiplicity
 _atom_site_fract_x
 _atom_site_fract_y
 _atom_site_fract_z
 _atom_site_occupancy
 _atom_site_hle17_bader_spin_density
 _atom_site_hle17_ddec_charge
 _atom_site_hle17_ddec_spin_density
 _atom_site_hle17_ddec_sum_bond_order
 _atom_site_hle17_magmom
 _atom_site_hse06_10hf_bader_spin_density
 _atom_site_hse06_10hf_ddec_charge
 _atom_site_hse06_10hf_ddec_spin_density
 _atom_site_hse06_10hf_ddec_sum_bond_order
 _atom_site_hse06_10hf_magmom
 _atom_site_hse06_bader_spin_density
 _atom_site_hse06_ddec_charge
 _atom_site_hse06_ddec_spin_density
 _atom_site_hse06_ddec_sum_bond_order
 _atom_site_hse06_magmom
 _atom_site_pbe_bader_spin_density
 _atom_site_pbe_cm5_charge
 _atom_site_pbe_ddec_charge
 _atom_site_pbe_ddec_spin_density
 _atom_site_pbe_ddec_sum_bond_order
 _atom_site_pbe_magmom
Zn  Zn0  1  0.65079163  0.04875306  0.43803811  1  0  1.14288  0  1.753097  0  0  0.975445  0  2.204569  0  0  1.024062  0  2.144249  0  0  0.673686  0.941196  0  2.246239  0
Zn  Zn1  1  0.34920770  0.95124820  0.56196018  1  0  1.142855  0  1.753112  0  0  0.975431  0  2.204574  0  0  1.024043  0  2.14426  0  0  0.67366  0.94118  0  2.246245  0
Zn  Zn2  1  0.72909005  0.87257599  0.70788632  1  0  1.081504  0  1.807149  0  0  0.903463  0  2.277279  0  0  0.952621  0  2.21864  0  0  0.674042  0.868988  0  2.317599  0
Zn  Zn3  1  0.27091255  0.12742339  0.29211400  1  0  1.081503  0  1.807132  0  0  0.903471  0  2.277238  0  0  0.952627  0  2.218602  0  0  0.674054  0.869001  0  2.31756  0
H  H4  1  0.44115521  0.32364227  0.32694106  1  0  0.082783  0  0.929957  0  0  0.095185  0  0.987687  0  0  0.097339  0  0.985905  0  0  0.120429  0.093586  0  0.98903  0
H  H5  1  0.55884740  0.67635991  0.67305680  1  0  0.082867  0  0.929891  0  0  0.095216  0  0.987672  0  0  0.097368  0  0.985893  0  0  0.12045  0.093616  0  0.989015  0
H  H6  1  0.43224078  0.51210195  0.15957579  1  0  0.105921  0  0.945349  0  0  0.117336  0  1.002135  0  0  0.12  0  1.002504  0  0  0.10807  0.11541  0  1.002053  0
H  H7  1  0.56776301  0.48789743  0.84042309  1  0  0.105889  0  0.94534  0  0  0.11733  0  1.002106  0  0  0.119983  0  1.002491  0  0  0.108061  0.115403  0  1.002025  0
H  H8  1  0.64964908  0.48771710  0.03376901  1  0  0.100569  0  0.956634  0  0  0.108095  0  1.024312  0  0  0.111596  0  1.020986  0  0  0.10848  0.105507  0  1.026738  0
H  H9  1  0.35035147  0.51228416  0.96622925  1  0  0.100581  0  0.956648  0  0  0.108113  0  1.02432  0  0  0.111612  0  1.020998  0  0  0.108485  0.105527  0  1.026741  0
H  H10  1  0.84748496  0.09845469  0.25082627  1  0  0.098927  0  0.960858  0  0  0.1039  0  1.02897  0  0  0.107088  0  1.026109  0  0  0.120373  0.101557  0  1.031097  0
H  H11  1  0.15251315  0.90154657  0.74917275  1  0  0.098907  0  0.960855  0  0  0.103905  0  1.028946  0  0  0.107095  0  1.026082  0  0  0.120358  0.10156  0  1.031073  0
H  H12  1  0.97170378  0.07196739  0.13283987  1  0  0.112825  0  0.964297  0  0  0.122258  0  1.028066  0  0  0.125572  0  1.026479  0  0  0.109226  0.119853  0  1.029372  0
H  H13  1  0.02829842  0.92803292  0.86716011  1  0  0.112882  0  0.964278  0  0  0.122289  0  1.028073  0  0  0.125602  0  1.026486  0  0  0.109234  0.119883  0  1.029376  0
H  H14  1  0.21201309  0.24868540  0.86089472  1  0  0.095365  0  0.988947  0  0  0.106627  0  1.051047  0  0  0.109318  0  1.050224  0  0  0.103728  0.104692  0  1.051781  0
H  H15  1  0.78798826  0.75131399  0.13910421  1  0  0.095337  0  0.988908  0  0  0.106597  0  1.051019  0  0  0.109289  0  1.050195  0  0  0.103716  0.104662  0  1.051754  0
H  H16  1  0.82210271  0.60578407  0.86572998  1  0  0.09871  0  0.952588  0  0  0.100988  0  1.027201  0  0  0.105209  0  1.022532  0  0  0.119884  0.097884  0  1.030638  0
H  H17  1  0.17789538  0.39421439  0.13427079  1  0  0.098717  0  0.952589  0  0  0.100992  0  1.027206  0  0  0.105211  0  1.022538  0  0  0.119904  0.09789  0  1.030643  0
H  H18  1  0.23639065  0.40240553  0.75159971  1  0  0.094257  0  0.943087  0  0  0.110962  0  0.994177  0  0  0.11348  0  0.99231  0  0  0.110952  0.10908  0  0.995597  0
H  H19  1  0.76360948  0.59759386  0.24839996  1  0  0.094269  0  0.943074  0  0  0.110979  0  0.99416  0  0  0.113497  0  0.992293  0  0  0.110963  0.109097  0  0.99558  0
H  H20  1  0.24268488  0.60683601  0.61032319  1  0  0.105724  0  0.952594  0  0  0.114583  0  1.014366  0  0  0.116862  0  1.01513  0  0  0.109127  0.112924  0  1.014029  0
H  H21  1  0.75731608  0.39316431  0.38967611  1  0  0.105726  0  0.952595  0  0  0.114602  0  1.014355  0  0  0.116881  0  1.015118  0  0  0.10912  0.112941  0  1.014025  0
H  H22  1  0.03637024  0.80214077  0.60339253  1  0  0.09428  0  0.94162  0  0  0.101565  0  1.005419  0  0  0.104072  0  1.003391  0  0  0.121899  0.099658  0  1.007006  0
H  H23  1  0.96362951  0.19785955  0.39660750  1  0  0.09425  0  0.941734  0  0  0.101542  0  1.005525  0  0  0.104049  0  1.003497  0  0  0.121885  0.099637  0  1.007113  0
H  H24  1  0.19458992  0.91499092  0.17149221  1  0  0.098061  0  0.971033  0  0  0.106472  0  1.03661  0  0  0.109068  0  1.035528  0  0  0.101365  0.10454  0  1.037492  0
H  H25  1  0.80540782  0.08501127  0.82850717  1  0  0.098041  0  0.971068  0  0  0.10646  0  1.03663  0  0  0.109056  0  1.035546  0  0  0.101361  0.104527  0  1.03751  0
H  H26  1  0.39066882  0.71674032  0.18399202  1  0  0.074736  0  0.988744  0  0  0.084381  0  1.054257  0  0  0.086385  0  1.054547  0  0  0.091129  0.082966  0  1.054116  0
H  H27  1  0.60932809  0.28326093  0.81600773  1  0  0.074747  0  0.98875  0  0  0.084375  0  1.054284  0  0  0.086378  0  1.054575  0  0  0.091113  0.082966  0  1.054134  0
H  H28  1  0.54796166  0.70948378  0.03040326  1  0  0.09499  0  0.949634  0  0  0.106096  0  1.011961  0  0  0.10916  0  1.010127  0  0  0.100302  0.103922  0  1.013245  0
H  H29  1  0.45203607  0.29051841  0.96959612  1  0  0.09498  0  0.949595  0  0  0.106068  0  1.011951  0  0  0.109139  0  1.010106  0  0  0.100275  0.10389  0  1.013245  0
H  H30  1  0.28066611  0.09430290  0.84525294  1  0  0.101957  0  0.958715  0  0  0.112319  0  1.019912  0  0  0.11587  0  1.017048  0  0  0.104366  0.109737  0  1.022005  0
H  H31  1  0.71933649  0.90569648  0.15474739  1  0  0.101965  0  0.958738  0  0  0.112311  0  1.019949  0  0  0.115859  0  1.01709  0  0  0.104368  0.10973  0  1.022043  0
H  H32  1  0.55365581  0.27522082  0.62678538  1  0  0.111076  0  0.926839  0  0  0.124362  0  0.979209  0  0  0.127903  0  0.977538  0  0  0.10963  0.12178  0  0.980556  0
H  H33  1  0.44634357  0.72478043  0.37321574  1  0  0.111068  0  0.926844  0  0  0.124355  0  0.979214  0  0  0.127897  0  0.977544  0  0  0.109632  0.121774  0  0.98056  0
H  H34  1  0.55044842  0.47581727  0.62675890  1  0  0.080194  0  0.957352  0  0  0.092901  0  1.016079  0  0  0.095578  0  1.014926  0  0  0.097146  0.090987  0  1.016943  0
H  H35  1  0.44955219  0.52418398  0.37324218  1  0  0.080194  0  0.957373  0  0  0.092887  0  1.016113  0  0  0.095564  0  1.01496  0  0  0.097146  0.090975  0  1.016974  0
H  H36  1  0.82139628  0.53402644  0.60873030  1  0  0.098557  0  0.964706  0  0  0.104738  0  1.031757  0  0  0.108298  0  1.030064  0  0  0.096758  0.102159  0  1.033119  0
H  H37  1  0.17860516  0.46597573  0.39127041  1  0  0.098579  0  0.964696  0  0  0.104759  0  1.031746  0  0  0.108319  0  1.030052  0  0  0.09678  0.102181  0  1.033107  0
H  H38  1  0.09061855  0.39235639  0.58648121  1  0  0.09247  0  0.962569  0  0  0.102458  0  1.025226  0  0  0.105427  0  1.023919  0  0  0.100541  0.10031  0  1.026253  0
H  H39  1  0.90938205  0.60764485  0.41351987  1  0  0.092435  0  0.962632  0  0  0.102463  0  1.025246  0  0  0.105432  0  1.023939  0  0  0.100528  0.100315  0  1.026273  0
H  H40  1  0.33769817  0.16487683  0.45062378  1  0  0.400321  0  0.925116  0  0  0.36642  0  0.995637  0  0  0.378409  0  0.978557  0  0  0.2712  0.357929  0  1.007688  0
H  H41  1  0.66230119  0.83512442  0.54937592  1  0  0.400284  0  0.925181  0  0  0.366372  0  0.995712  0  0  0.378361  0  0.978633  0  0  0.271181  0.357881  0  1.007764  0
C  C42  1  0.53029432  0.31804597  0.26915432  1  0  0.121745  0  3.71156  0  0  0.087469  0  3.969165  0  0  0.094509  0  3.987082  0  0  0.04631  0.082997  0  3.956918  0
C  C43  1  0.46970703  0.68195342  0.73084462  1  0  0.121651  0  3.711518  0  0  0.087421  0  3.969115  0  0  0.094461  0  3.987028  0  0  0.046295  0.082948  0  3.956869  0
C  C44  1  0.52683962  0.42210641  0.17647757  1  0  -0.123  0  3.753011  0  0  -0.133679  0  4.008407  0  0  -0.141161  0  4.030589  0  0  -0.084439  -0.128893  0  3.993386  0
C  C45  1  0.47316542  0.57789297  0.82352269  1  0  -0.122956  0  3.752893  0  0  -0.133649  0  4.008276  0  0  -0.141123  0  4.030466  0  0  -0.084441  -0.128865  0  3.993257  0
C  C46  1  0.64502092  0.40863980  0.10636685  1  0  -0.032333  0  3.68131  0  0  -0.060907  0  3.930601  0  0  -0.057406  0  3.947939  0  0  -0.061238  -0.062769  0  3.918658  0
C  C47  1  0.35498040  0.59135960  0.89363138  1  0  -0.032323  0  3.681346  0  0  -0.060898  0  3.930687  0  0  -0.057399  0  3.948025  0  0  -0.061193  -0.06276  0  3.918748  0
C  C48  1  0.76212632  0.29102613  0.12909212  1  0  -0.021122  0  3.737316  0  0  -0.00275  0  3.969439  0  0  -0.008108  0  3.993014  0  0  0.001089  0.000473  0  3.953572  0
C  C49  1  0.23787418  0.70897234  0.87090647  1  0  -0.021055  0  3.737235  0  0  -0.002734  0  3.969474  0  0  -0.00809  0  3.993051  0  0  0.001082  0.000486  0  3.953607  0
C  C50  1  0.75712537  0.19195610  0.22487180  1  0  0.099051  0  3.64656  0  0  0.061713  0  3.896381  0  0  0.067959  0  3.913724  0  0  0.055598  0.057756  0  3.884635  0
C  C51  1  0.24287314  0.80804423  0.77512756  1  0  0.099095  0  3.646468  0  0  0.061738  0  3.89634  0  0  0.067986  0  3.91368  0  0  0.055617  0.057783  0  3.884591  0
C  C52  1  0.88826548  0.27376912  0.05539426  1  0  0.215968  0  3.792306  0  0  0.213577  0  4.04206  0  0  0.221377  0  4.062629  0  0  0.118334  0.208515  0  4.028072  0
C  C53  1  0.11173379  0.72622935  0.94460437  1  0  0.215816  0  3.792243  0  0  0.213407  0  4.042049  0  0  0.221204  0  4.06262  0  0  0.118234  0.208348  0  4.028057  0
C  C54  1  0.98747864  0.15468967  0.06853734  1  0  -0.171193  0  3.637234  0  0  -0.20016  0  3.887419  0  0  -0.207948  0  3.907995  0  0  -0.074495  -0.1952  0  3.873803  0
C  C55  1  0.01252395  0.84530971  0.93146298  1  0  -0.171198  0  3.637191  0  0  -0.200141  0  3.887396  0  0  -0.207928  0  3.907972  0  0  -0.074472  -0.195181  0  3.873775  0
C  C56  1  0.10661889  0.14290540  0.99772098  1  0  0.120548  0  3.762031  0  0  0.133698  0  3.992419  0  0  0.138777  0  4.014466  0  0  0.014451  0.130447  0  3.977497  0
C  C57  1  0.89337963  0.85709492  0.00227908  1  0  0.120583  0  3.762062  0  0  0.133718  0  3.992423  0  0  0.138798  0  4.01447  0  0  0.014468  0.130464  0  3.977502  0
C  C58  1  0.11840806  0.25340856  0.91610446  1  0  -0.185589  0  3.68458  0  0  -0.212881  0  3.929854  0  0  -0.221266  0  3.951329  0  0  -0.08057  -0.207476  0  3.915461  0
C  C59  1  0.88159328  0.74659083  0.08389448  1  0  -0.185509  0  3.684507  0  0  -0.212817  0  3.92978  0  0  -0.221199  0  3.951248  0  0  -0.080531  -0.207413  0  3.915392  0
C  C60  1  0.01446267  0.36880203  0.90730591  1  0  0.218452  0  3.810546  0  0  0.216674  0  4.057033  0  0  0.224687  0  4.07723  0  0  0.117092  0.2115  0  4.04325  0
C  C61  1  0.98553457  0.63119831  0.09269136  1  0  0.218395  0  3.810605  0  0  0.216641  0  4.057025  0  0  0.224656  0  4.077219  0  0  0.117042  0.211465  0  4.043244  0
C  C62  1  0.91676620  0.60108873  0.81080812  1  0  0.108807  0  3.642611  0  0  0.066731  0  3.895524  0  0  0.074115  0  3.911469  0  0  0.054822  0.061939  0  3.8849  0
C  C63  1  0.08323391  0.39891067  0.18919013  1  0  0.108855  0  3.642463  0  0  0.066761  0  3.895382  0  0  0.074146  0  3.911328  0  0  0.054845  0.061963  0  3.884772  0
C  C64  1  0.02732049  0.48610728  0.82140456  1  0  -0.022118  0  3.741932  0  0  -0.002804  0  3.974199  0  0  -0.00839  0  3.997547  0  0  0.001536  0.000562  0  3.958462  0
C  C65  1  0.97267434  0.51389305  0.17859418  1  0  -0.022163  0  3.74199  0  0  -0.002807  0  3.974181  0  0  -0.008393  0  3.997528  0  0  0.001571  0.000561  0  3.958442  0
C  C66  1  0.14646109  0.48860078  0.74754882  1  0  -0.042953  0  3.69484  0  0  -0.067901  0  3.938597  0  0  -0.065025  0  3.957388  0  0  -0.061402  -0.069361  0  3.925644  0
C  C67  1  0.85353903  0.51139862  0.25245014  1  0  -0.042887  0  3.69479  0  0  -0.067858  0  3.938555  0  0  -0.064984  0  3.957348  0  0  -0.061382  -0.069315  0  3.925598  0
C  C68  1  0.15154003  0.60177774  0.66848789  1  0  -0.108977  0  3.743454  0  0  -0.121723  0  3.998909  0  0  -0.129434  0  4.022688  0  0  -0.079722  -0.116867  0  3.982983  0
C  C69  1  0.84845967  0.39821979  0.33151249  1  0  -0.109018  0  3.743367  0  0  -0.121792  0  3.998855  0  0  -0.129503  0  4.022633  0  0  -0.079739  -0.116936  0  3.982927  0
C  C70  1  0.03650379  0.71137313  0.66372700  1  0  0.136181  0  3.686115  0  0  0.101245  0  3.941548  0  0  0.108766  0  3.95968  0  0  0.04957  0.09641  0  3.929308  0
C  C71  1  0.96349548  0.28862534  0.33627163  1  0  0.136188  0  3.686218  0  0  0.101258  0  3.941647  0  0  0.108779  0  3.95978  0  0  0.049605  0.096423  0  3.929406  0
C  C72  1  0.22033979  0.02143024  0.00749342  1  0  0.035466  0  3.762183  0  0  0.053022  0  3.993394  0  0  0.050367  0  4.017003  0  0  -0.00753  0.054648  0  3.97728  0
C  C73  1  0.77966237  0.97856728  0.99250761  1  0  0.035432  0  3.762225  0  0  0.053053  0  3.99335  0  0  0.050396  0  4.016957  0  0  -0.007537  0.054681  0  3.977234  0
C  C74  1  0.25391089  0.91225201  0.10227812  1  0  -0.072973  0  3.676565  0  0  -0.095944  0  3.922648  0  0  -0.095826  0  3.942713  0  0  -0.078121  -0.095649  0  3.908804  0
C  C75  1  0.74608884  0.08774551  0.89772368  1  0  -0.072982  0  3.676551  0  0  -0.095977  0  3.922618  0  0  -0.095856  0  3.942679  0  0  -0.078134  -0.09568  0  3.908771  0
C  C76  1  0.36844687  0.80029046  0.10991226  1  0  -0.079792  0  3.782486  0  0  -0.090356  0  4.034923  0  0  -0.094762  0  4.057991  0  0  -0.095153  -0.087463  0  4.019104  0
C  C77  1  0.63155407  0.19970706  0.89008880  1  0  -0.079819  0  3.782427  0  0  -0.090376  0  4.03487  0  0  -0.094784  0  4.057941  0  0  -0.095154  -0.087487  0  4.019042  0
C  C78  1  0.45514147  0.79543950  0.02489076  1  0  -0.067184  0  3.733153  0  0  -0.0946  0  3.986075  0  0  -0.0935  0  4.006338  0  0  -0.084898  -0.094977  0  3.972153  0
C  C79  1  0.54485867  0.20455709  0.97511208  1  0  -0.067297  0  3.732834  0  0  -0.094686  0  3.985751  0  0  -0.093589  0  4.006013  0  0  -0.084945  -0.095063  0  3.971831  0
C  C80  1  0.42302715  0.90353386  0.92994434  1  0  -0.06066  0  3.780411  0  0  -0.034881  0  4.011967  0  0  -0.043953  0  4.036677  0  0  -0.019318  -0.029096  0  3.995327  0
C  C81  1  0.57697547  0.09646272  0.07005986  1  0  -0.060384  0  3.780109  0  0  -0.034605  0  4.011627  0  0  -0.043676  0  4.036336  0  0  -0.019168  -0.028824  0  3.994993  0
C  C82  1  0.30405213  0.01399919  0.92155085  1  0  -0.099326  0  3.69095  0  0  -0.129279  0  3.93274  0  0  -0.129027  0  3.952606  0  0  -0.07661  -0.129079  0  3.919125  0
C  C83  1  0.69595172  0.98600018  0.07845086  1  0  -0.099391  0  3.691069  0  0  -0.129357  0  3.93285  0  0  -0.129101  0  3.952709  0  0  -0.076647  -0.129158  0  3.919238  0
C  C84  1  0.51643870  0.90550633  0.83721940  1  0  0.61916  0  3.940448  0  0  0.572218  0  4.22862  0  0  0.605846  0  4.223695  0  0  0.189046  0.549476  0  4.231113  0
C  C85  1  0.48356145  0.09449306  0.16278098  1  0  0.619006  0  3.940539  0  0  0.572065  0  4.228703  0  0  0.605692  0  4.223785  0  0  0.189003  0.549326  0  4.231194  0
C  C86  1  0.80707249  0.10707718  0.60224152  1  0  0.716677  0  3.847563  0  0  0.657762  0  4.148555  0  0  0.694837  0  4.136355  0  0  0.23224  0.632392  0  4.156306  0
C  C87  1  0.19292483  0.89292594  0.39775682  1  0  0.71676  0  3.847445  0  0  0.657909  0  4.148356  0  0  0.694974  0  4.13615  0  0  0.232329  0.63254  0  4.156107  0
C  C88  1  0.82450301  0.22012955  0.61013700  1  0  -0.051703  0  3.696263  0  0  -0.035895  0  3.929329  0  0  -0.038618  0  3.947965  0  0  -0.004385  -0.034202  0  3.916992  0
C  C89  1  0.17549637  0.77987169  0.38986411  1  0  -0.051765  0  3.696192  0  0  -0.036034  0  3.929329  0  0  -0.038712  0  3.947901  0  0  -0.004445  -0.034342  0  3.916992  0
C  C90  1  0.67187873  0.30063920  0.62070904  1  0  -0.101598  0  3.73909  0  0  -0.123078  0  3.987717  0  0  -0.12554  0  4.007011  0  0  -0.089567  -0.1214  0  3.974673  0
C  C91  1  0.32811983  0.69936111  0.37929314  1  0  -0.10155  0  3.739114  0  0  -0.123007  0  3.987737  0  0  -0.125483  0  4.007016  0  0  -0.089541  -0.12133  0  3.974693  0
C  C92  1  0.67070821  0.41264975  0.62086403  1  0  -0.066507  0  3.793828  0  0  -0.079995  0  4.045543  0  0  -0.080227  0  4.065243  0  0  -0.09134  -0.079648  0  4.031997  0
C  C93  1  0.32929320  0.58734962  0.37913844  1  0  -0.066522  0  3.793972  0  0  -0.08  0  4.045678  0  0  -0.080231  0  4.065379  0  0  -0.091342  -0.079654  0  4.032134  0
C  C94  1  0.82227966  0.44516722  0.61142402  1  0  -0.080411  0  3.773726  0  0  -0.094633  0  4.02747  0  0  -0.096992  0  4.047673  0  0  -0.096937  -0.093099  0  4.013768  0
C  C95  1  0.17772216  0.55483402  0.38857632  1  0  -0.080406  0  3.773803  0  0  -0.094626  0  4.02755  0  0  -0.096986  0  4.047755  0  0  -0.096945  -0.093092  0  4.01385  0
C  C96  1  0.97291287  0.36629698  0.59899413  1  0  -0.071205  0  3.750243  0  0  -0.094276  0  4.000217  0  0  -0.094475  0  4.020934  0  0  -0.087057  -0.093963  0  3.98614  0
C  C97  1  0.02708770  0.63370427  0.40100483  1  0  -0.071206  0  3.750247  0  0  -0.094316  0  4.000218  0  0  -0.094515  0  4.020939  0  0  -0.087051  -0.094002  0  3.986141  0
C  C98  1  0.97611696  0.25437576  0.59681973  1  0  -0.088266  0  3.730826  0  0  -0.075512  0  3.965656  0  0  -0.082395  0  3.9877  0  0  -0.018589  -0.0711  0  3.950936  0
C  C99  1  0.02388241  0.74562549  0.40318067  1  0  -0.088215  0  3.730699  0  0  -0.075447  0  3.965555  0  0  -0.082344  0  3.98759  0  0  -0.01859  -0.071037  0  3.950835  0
C  C100  1  0.13539109  0.18208549  0.56820220  1  0  0.655054  0  3.90211  0  0  0.601931  0  4.20115  0  0  0.636396  0  4.193477  0  0  0.209063  0.578562  0  4.205597  0
C  C101  1  0.86460545  0.81791669  0.43179862  1  0  0.654975  0  3.901992  0  0  0.601835  0  4.20106  0  0  0.6363  0  4.193389  0  0  0.209033  0.578465  0  4.205506  0
N  N102  1  0.64453787  0.20535200  0.29287962  1  0  -0.330119  0  3.30827  0  0  -0.252387  0  3.579492  0  0  -0.271126  0  3.59575  0  0  -0.323414  -0.239733  0  3.568299  0
N  N103  1  0.35546223  0.79464740  0.70711864  1  0  -0.330168  0  3.308312  0  0  -0.252424  0  3.579511  0  0  -0.271161  0  3.595765  0  0  -0.323425  -0.23977  0  3.568313  0
N  N104  1  0.90044434  0.37904534  0.97583039  1  0  -0.384714  0  3.045943  0  0  -0.352379  0  3.308149  0  0  -0.365788  0  3.323165  0  0  -0.309416  -0.343209  0  3.297755  0
N  N105  1  0.09954962  0.62095408  0.02416659  1  0  -0.384663  0  3.045912  0  0  -0.352308  0  3.308088  0  0  -0.365715  0  3.323101  0  0  -0.309371  -0.34314  0  3.297695  0
N  N106  1  0.92103851  0.71008511  0.73361047  1  0  -0.346271  0  3.335495  0  0  -0.262026  0  3.614044  0  0  -0.281694  0  3.629278  0  0  -0.33383  -0.248809  0  3.603602  0
N  N107  1  0.07896243  0.28991521  0.26638813  1  0  -0.346293  0  3.33538  0  0  -0.262063  0  3.613937  0  0  -0.28173  0  3.629172  0  0  -0.333913  -0.248846  0  3.603497  0
O  O108  1  0.47348763  0.00036191  0.74997476  1  0  -0.614627  0  1.908572  0  0  -0.564209  0  2.13649  0  0  -0.589394  0  2.128063  0  0  -0.322594  -0.546643  0  2.141702  0
O  O109  1  0.52651463  0.99963839  0.25002805  1  0  -0.614569  0  1.908591  0  0  -0.564146  0  2.136504  0  0  -0.589338  0  2.128092  0  0  -0.322564  -0.546579  0  2.141715  0
O  O110  1  0.64370342  0.80725493  0.85116034  1  0  -0.654715  0  2.00057  0  0  -0.585101  0  2.260967  0  0  -0.61482  0  2.251469  0  0  -0.335384  -0.564285  0  2.266818  0
O  O111  1  0.35629506  0.19274261  0.14884007  1  0  -0.654666  0  2.000541  0  0  -0.58506  0  2.260957  0  0  -0.614764  0  2.251433  0  0  -0.335379  -0.564241  0  2.266808  0
O  O112  1  0.75322224  0.12755188  0.51132828  1  0  -0.64483  0  2.066303  0  0  -0.577919  0  2.337715  0  0  -0.606289  0  2.321814  0  0  -0.310812  -0.55801  0  2.348023  0
O  O113  1  0.24677548  0.87244751  0.48867357  1  0  -0.644854  0  2.066239  0  0  -0.577946  0  2.337601  0  0  -0.606318  0  2.321702  0  0  -0.310841  -0.558035  0  2.347909  0
O  O114  1  0.83322157  0.00652622  0.68638577  1  0  -0.631466  0  2.07502  0  0  -0.559129  0  2.351052  0  0  -0.587171  0  2.33372  0  0  -0.306959  -0.539524  0  2.362375  0
O  O115  1  0.16677980  0.99347316  0.31361458  1  0  -0.631509  0  2.075095  0  0  -0.5592  0  2.351124  0  0  -0.587242  0  2.333795  0  0  -0.306987  -0.539597  0  2.36245  0
O  O116  1  0.14829040  0.06812257  0.59117118  1  0  -0.654297  0  2.079888  0  0  -0.579912  0  2.348809  0  0  -0.609138  0  2.33427  0  0  -0.31785  -0.559449  0  2.358133  0
O  O117  1  0.85170856  0.93187962  0.40882818  1  0  -0.654266  0  2.079829  0  0  -0.579833  0  2.348706  0  0  -0.609065  0  2.334174  0  0  -0.31782  -0.559369  0  2.358026  0
O  O118  1  0.23906814  0.23864143  0.51920414  1  0  -0.60746  0  1.93198  0  0  -0.554273  0  2.149304  0  0  -0.578276  0  2.139599  0  0  -0.317351  -0.537437  0  2.155439  0
O  O119  1  0.76093004  0.76135981  0.48079771  1  0  -0.607456  0  1.931992  0  0  -0.554273  0  2.149333  0  0  -0.578274  0  2.139624  0  0  -0.317353  -0.537438  0  2.155472  0
O  O120  1  0.38842331  0.10047576  0.42380695  1  0  -0.997785  0  1.995755  0  0  -0.887997  0  2.309701  0  0  -0.923202  0  2.266182  0  0  -0.572502  -0.862989  0  2.339322  0
O  O121  1  0.61157769  0.89952455  0.57619447  1  0  -0.997763  0  1.995798  0  0  -0.887955  0  2.309765  0  0  -0.923161  0  2.266246  0  0  -0.572492  -0.862946  0  2.339384  0
