# generated using pymatgen
data_UH12C17S(NO3)2
_symmetry_space_group_name_H-M   'P 1'
_cell_length_a   8.40573318
_cell_length_b   9.49623190
_cell_length_c   11.09854436
_cell_angle_alpha   106.43575976
_cell_angle_beta   97.51461176
_cell_angle_gamma   98.74915673
_symmetry_Int_Tables_number   1
_chemical_formula_structural   UH12C17S(NO3)2
_chemical_formula_sum   'U2 H24 C34 S2 N4 O12'
_cell_volume   825.59068920
_cell_formula_units_Z   2
loop_
 _symmetry_equiv_pos_site_id
 _symmetry_equiv_pos_as_xyz
  1  'x, y, z'
loop_
 _atom_site_type_symbol
 _atom_site_label
 _atom_site_symmetry_multiplicity
 _atom_site_fract_x
 _atom_site_fract_y
 _atom_site_fract_z
 _atom_site_occupancy
 _atom_site_hle17_bader_spin_density
 _atom_site_hle17_ddec_charge
 _atom_site_hle17_ddec_spin_density
 _atom_site_hle17_ddec_sum_bond_order
 _atom_site_hle17_magmom
 _atom_site_hse06_10hf_bader_spin_density
 _atom_site_hse06_10hf_ddec_charge
 _atom_site_hse06_10hf_ddec_spin_density
 _atom_site_hse06_10hf_ddec_sum_bond_order
 _atom_site_hse06_10hf_magmom
 _atom_site_hse06_bader_spin_density
 _atom_site_hse06_ddec_charge
 _atom_site_hse06_ddec_spin_density
 _atom_site_hse06_ddec_sum_bond_order
 _atom_site_hse06_magmom
 _atom_site_pbe_bader_spin_density
 _atom_site_pbe_cm5_charge
 _atom_site_pbe_ddec_charge
 _atom_site_pbe_ddec_spin_density
 _atom_site_pbe_ddec_sum_bond_order
 _atom_site_pbe_magmom
U  U0  1  0.19594057  0.62371659  0.48565289  1  0  2.455983  0  4.179468  0  0  2.508472  0  4.84477  0  0  2.617248  0  4.808666  0  0  2.174917  2.432528  0  4.869889  0
U  U1  1  0.80405734  0.37628460  0.51434368  1  0  2.45606  0  4.179628  0  0  2.508509  0  4.844889  0  0  2.61723  0  4.808881  0  0  2.174922  2.432558  0  4.870015  0
H  H2  1  0.98061161  0.38044792  0.29350037  1  0  0.419657  0  0.88909  0  0  0.399498  0  0.941616  0  0  0.411212  0  0.924824  0  0  0.298328  0.391065  0  0.953615  0
H  H3  1  0.01938820  0.61955100  0.70649944  1  0  0.419663  0  0.889081  0  0  0.399496  0  0.941617  0  0  0.41121  0  0.924825  0  0  0.298327  0.391062  0  0.953616  0
H  H4  1  0.05848950  0.39933469  0.94097395  1  0  0.109605  0  0.952124  0  0  0.119308  0  1.013805  0  0  0.122409  0  1.012053  0  0  0.110007  0.117077  0  1.015131  0
H  H5  1  0.94150792  0.60066424  0.05902473  1  0  0.10962  0  0.952097  0  0  0.119313  0  1.013798  0  0  0.122419  0  1.012025  0  0  0.11  0.117081  0  1.015123  0
H  H6  1  0.15478777  0.46746218  0.75767188  1  0  0.099314  0  0.976274  0  0  0.108204  0  1.040146  0  0  0.112087  0  1.037431  0  0  0.113575  0.105593  0  1.042079  0
H  H7  1  0.84521204  0.53253674  0.24232703  1  0  0.099304  0  0.976311  0  0  0.108201  0  1.040167  0  0  0.112081  0  1.037456  0  0  0.113562  0.10559  0  1.042098  0
H  H8  1  0.44586694  0.55089703  0.76319511  1  0  0.120508  0  0.983799  0  0  0.12896  0  1.045801  0  0  0.133453  0  1.041393  0  0  0.112348  0.125818  0  1.048962  0
H  H9  1  0.55413457  0.44910412  0.23680632  1  0  0.120481  0  0.983827  0  0  0.12896  0  1.045785  0  0  0.133454  0  1.041379  0  0  0.112345  0.125812  0  1.048967  0
H  H10  1  0.05278357  0.84784529  0.73996784  1  0  0.088667  0  0.952215  0  0  0.098272  0  1.01301  0  0  0.101479  0  1.009445  0  0  0.124848  0.095764  0  1.015785  0
H  H11  1  0.94721819  0.15215699  0.26003209  1  0  0.088703  0  0.952287  0  0  0.098319  0  1.013051  0  0  0.101527  0  1.009485  0  0  0.124866  0.095812  0  1.015833  0
H  H12  1  0.14817350  0.04590085  0.95156846  1  0  0.114861  0  0.939906  0  0  0.125376  0  0.996318  0  0  0.128984  0  0.995327  0  0  0.111785  0.122667  0  0.997517  0
H  H13  1  0.85182800  0.95410031  0.04843297  1  0  0.114866  0  0.939934  0  0  0.125378  0  0.99635  0  0  0.128986  0  0.995359  0  0  0.111791  0.12267  0  0.997542  0
H  H14  1  0.44074634  0.17532006  0.01322506  1  0  0.10724  0  0.964281  0  0  0.115517  0  1.028748  0  0  0.11823  0  1.027337  0  0  0.108879  0.113624  0  1.029333  0
H  H15  1  0.55925517  0.82468110  0.98677547  1  0  0.107262  0  0.964373  0  0  0.115553  0  1.028805  0  0  0.118265  0  1.027399  0  0  0.108897  0.113656  0  1.029395  0
H  H16  1  0.89764636  0.14813672  0.79255417  1  0  0.100547  0  0.942203  0  0  0.115048  0  0.997269  0  0  0.117414  0  0.99671  0  0  0.109433  0.113385  0  0.997844  0
H  H17  1  0.10235560  0.85186108  0.20744558  1  0  0.10057  0  0.942134  0  0  0.115074  0  0.997196  0  0  0.117441  0  0.996638  0  0  0.109433  0.113405  0  0.997775  0
H  H18  1  0.71782293  0.21661738  0.95141100  1  0  0.10751  0  0.942571  0  0  0.119411  0  1.001197  0  0  0.121408  0  1.002202  0  0  0.106901  0.118035  0  1.000454  0
H  H19  1  0.28218048  0.78338154  0.04858917  1  0  0.107542  0  0.942579  0  0  0.119441  0  1.001202  0  0  0.121439  0  1.002207  0  0  0.106915  0.118064  0  1.000457  0
H  H20  1  0.93464134  0.99054596  0.58050451  1  0  0.100675  0  0.944618  0  0  0.11451  0  1.002689  0  0  0.116764  0  1.000991  0  0  0.116671  0.113033  0  1.003687  0
H  H21  1  0.06535942  0.00945184  0.41949512  1  0  0.100682  0  0.944627  0  0  0.114523  0  1.002676  0  0  0.116743  0  1.001022  0  0  0.11667  0.113049  0  1.003668  0
H  H22  1  0.80867331  0.79682458  0.36947090  1  0  0.110451  0  0.954446  0  0  0.123032  0  1.010721  0  0  0.125702  0  1.010556  0  0  0.112083  0.12095  0  1.011537  0
H  H23  1  0.19132531  0.20317435  0.63052789  1  0  0.110508  0  0.954391  0  0  0.123033  0  1.010727  0  0  0.125704  0  1.010562  0  0  0.112083  0.120951  0  1.011541  0
H  H24  1  0.51173128  0.68244738  0.33012641  1  0  0.07885  0  0.979402  0  0  0.086349  0  1.045967  0  0  0.088252  0  1.044273  0  0  0.120568  0.085035  0  1.046805  0
H  H25  1  0.48826853  0.31755154  0.66987340  1  0  0.078867  0  0.979399  0  0  0.086365  0  1.045962  0  0  0.088269  0  1.044268  0  0  0.120575  0.08505  0  1.046802  0
C  C26  1  0.30075466  0.43611928  0.04675877  1  0  -0.1679  0  3.710568  0  0  -0.147514  0  3.958701  0  0  -0.1556  0  3.981091  0  0  -0.017208  -0.142329  0  3.943466  0
C  C27  1  0.69924445  0.56388188  0.95324242  1  0  -0.167943  0  3.710745  0  0  -0.147581  0  3.95889  0  0  -0.155668  0  3.981282  0  0  -0.017252  -0.142405  0  3.943678  0
C  C28  1  0.18871375  0.43280868  0.94288767  1  0  -0.056421  0  3.750206  0  0  -0.08773  0  4.008064  0  0  -0.085596  0  4.026688  0  0  -0.081166  -0.088786  0  3.995402  0
C  C29  1  0.81128416  0.56719249  0.05711251  1  0  -0.056439  0  3.750398  0  0  -0.08775  0  4.008266  0  0  -0.085611  0  4.026892  0  0  -0.081146  -0.088804  0  3.995611  0
C  C30  1  0.24356455  0.47324499  0.84034478  1  0  -0.044736  0  3.729474  0  0  -0.057844  0  3.984421  0  0  -0.060119  0  4.002926  0  0  -0.080534  -0.056412  0  3.971931  0
C  C31  1  0.75643481  0.52675730  0.15965582  1  0  -0.044735  0  3.729544  0  0  -0.057844  0  3.984489  0  0  -0.06012  0  4.002998  0  0  -0.08055  -0.056414  0  3.972003  0
C  C32  1  0.40801782  0.51803903  0.84295098  1  0  -0.107137  0  3.705962  0  0  -0.132679  0  3.959365  0  0  -0.132869  0  3.976152  0  0  -0.084841  -0.132035  0  3.94748  0
C  C33  1  0.59198034  0.48196325  0.15705040  1  0  -0.107117  0  3.705941  0  0  -0.132646  0  3.959332  0  0  -0.132839  0  3.976121  0  0  -0.084814  -0.132005  0  3.947444  0
C  C34  1  0.52685947  0.52103455  0.94737934  1  0  0.050489  0  3.754018  0  0  0.059466  0  3.983968  0  0  0.059447  0  4.009022  0  0  -0.00356  0.05957  0  3.966291  0
C  C35  1  0.47313988  0.47896774  0.05262126  1  0  0.050499  0  3.753955  0  0  0.059416  0  3.983944  0  0  0.059397  0  4.008998  0  0  -0.00357  0.059525  0  3.966257  0
C  C36  1  0.17968952  0.90746069  0.76800699  1  0  0.146948  0  3.696246  0  0  0.122777  0  3.952942  0  0  0.133352  0  3.967436  0  0  0.060045  0.115572  0  3.943995  0
C  C37  1  0.82031104  0.09254160  0.23199282  1  0  0.146911  0  3.696362  0  0  0.122737  0  3.953062  0  0  0.133312  0  3.967552  0  0  0.06003  0.115536  0  3.944118  0
C  C38  1  0.23326985  0.01932775  0.88640475  1  0  -0.112964  0  3.723896  0  0  -0.125816  0  3.97558  0  0  -0.133501  0  3.995763  0  0  -0.080154  -0.121915  0  3.963389  0
C  C39  1  0.76673310  0.98067453  0.11359530  1  0  -0.112949  0  3.723883  0  0  -0.125815  0  3.97557  0  0  -0.133502  0  3.995755  0  0  -0.080144  -0.121914  0  3.963379  0
C  C40  1  0.39561452  0.09160896  0.92007730  1  0  -0.039048  0  3.681555  0  0  -0.065096  0  3.928698  0  0  -0.061896  0  3.947192  0  0  -0.061134  -0.066646  0  3.915438  0
C  C41  1  0.60438385  0.90838884  0.07992209  1  0  -0.03907  0  3.681593  0  0  -0.065135  0  3.928687  0  0  -0.061935  0  3.94718  0  0  -0.061149  -0.06668  0  3.915425  0
C  C42  1  0.50256043  0.05550222  0.83326038  1  0  0.027748  0  3.775025  0  0  0.04769  0  3.99938  0  0  0.044662  0  4.023131  0  0  0.004613  0.050504  0  3.981983  0
C  C43  1  0.49744083  0.94449782  0.16674075  1  0  0.027734  0  3.77514  0  0  0.047748  0  3.999371  0  0  0.04472  0  4.023121  0  0  0.004627  0.050561  0  3.981979  0
C  C44  1  0.43791918  0.94062495  0.71537102  1  0  0.149932  0  3.740452  0  0  0.145767  0  3.983137  0  0  0.151563  0  4.003403  0  0  0.128268  0.141863  0  3.969492  0
C  C45  1  0.56208088  0.05937510  0.28462819  1  0  0.14998  0  3.740509  0  0  0.145815  0  3.983135  0  0  0.151613  0  4.003398  0  0  0.128283  0.141911  0  3.969494  0
C  C46  1  0.54172297  0.90314892  0.62306935  1  0  0.15314  0  3.73737  0  0  0.150002  0  3.980204  0  0  0.15627  0  3.99948  0  0  0.129378  0.145524  0  3.966901  0
C  C47  1  0.45827709  0.09685112  0.37692986  1  0  0.153162  0  3.737321  0  0  0.149999  0  3.980152  0  0  0.156264  0  3.999426  0  0  0.129416  0.145523  0  3.966849  0
C  C48  1  0.70813362  0.97798476  0.65269172  1  0  0.034873  0  3.770075  0  0  0.049977  0  4.001102  0  0  0.048079  0  4.023296  0  0  0.010015  0.051587  0  3.985706  0
C  C49  1  0.29186619  0.02201416  0.34730899  1  0  0.034833  0  3.770084  0  0  0.049975  0  4.001045  0  0  0.048081  0  4.023231  0  0  0.009959  0.051585  0  3.985646  0
C  C50  1  0.77000581  0.09109190  0.77316050  1  0  -0.0708  0  3.713297  0  0  -0.095382  0  3.965904  0  0  -0.097859  0  3.987382  0  0  -0.069972  -0.093471  0  3.951613  0
C  C51  1  0.22999665  0.90890813  0.22683985  1  0  -0.070775  0  3.713231  0  0  -0.095366  0  3.965817  0  0  -0.097849  0  3.987302  0  0  -0.069956  -0.093449  0  3.951516  0
C  C52  1  0.67085809  0.12926059  0.86015289  1  0  -0.091896  0  3.720861  0  0  -0.115234  0  3.975083  0  0  -0.118343  0  3.998769  0  0  -0.079033  -0.113339  0  3.958659  0
C  C53  1  0.32914412  0.87073833  0.13984716  1  0  -0.091994  0  3.720957  0  0  -0.11537  0  3.97518  0  0  -0.11848  0  3.998869  0  0  -0.079084  -0.113478  0  3.958754  0
C  C54  1  0.80583410  0.93706734  0.55941004  1  0  -0.022107  0  3.65444  0  0  -0.050786  0  3.905327  0  0  -0.046697  0  3.920513  0  0  -0.045667  -0.053046  0  3.894611  0
C  C55  1  0.19416666  0.06293046  0.44058959  1  0  -0.02208  0  3.654388  0  0  -0.050749  0  3.905222  0  0  -0.046642  0  3.920419  0  0  -0.045627  -0.053012  0  3.894509  0
C  C56  1  0.73643952  0.83195425  0.44302708  1  0  -0.094838  0  3.692578  0  0  -0.108884  0  3.942505  0  0  -0.115608  0  3.961927  0  0  -0.068295  -0.104815  0  3.93  0
C  C57  1  0.26356029  0.16804468  0.55697273  1  0  -0.094921  0  3.692526  0  0  -0.108941  0  3.942468  0  0  -0.115662  0  3.961877  0  0  -0.068318  -0.104867  0  3.929956  0
C  C58  1  0.57003280  0.76585573  0.42077572  1  0  0.171227  0  3.674843  0  0  0.142204  0  3.939413  0  0  0.153148  0  3.954127  0  0  0.070441  0.135409  0  3.928764  0
C  C59  1  0.42996606  0.23414432  0.57922248  1  0  0.17119  0  3.674915  0  0  0.142171  0  3.939477  0  0  0.153115  0  3.954187  0  0  0.070429  0.135381  0  3.928828  0
S  S60  1  0.22427007  0.37673145  0.17096114  1  0  1.317627  0  5.583934  0  0  1.232207  0  6.095944  0  0  1.283351  0  6.069574  0  0  0.53185  1.196549  0  6.112625  0
S  S61  1  0.77572904  0.62326971  0.82904005  1  0  1.317675  0  5.583887  0  0  1.232223  0  6.095925  0  0  1.283367  0  6.069555  0  0  0.531845  1.196562  0  6.112616  0
N  N62  1  0.27903568  0.86596309  0.68541144  1  0  -0.417558  0  3.2353  0  0  -0.389161  0  3.522601  0  0  -0.411865  0  3.546915  0  0  -0.35652  -0.374218  0  3.506666  0
N  N63  1  0.72096608  0.13403919  0.31458939  1  0  -0.417616  0  3.235342  0  0  -0.389237  0  3.522656  0  0  -0.411932  0  3.546965  0  0  -0.356555  -0.374295  0  3.50673  0
N  N64  1  0.47517084  0.79823465  0.50823898  1  0  -0.415602  0  3.230029  0  0  -0.39247  0  3.526304  0  0  -0.415769  0  3.550173  0  0  -0.363401  -0.376103  0  3.509091  0
N  N65  1  0.52482802  0.20176540  0.49176101  1  0  -0.415544  0  3.229979  0  0  -0.392423  0  3.526271  0  0  -0.415713  0  3.550138  0  0  -0.363391  -0.376063  0  3.509072  0
O  O66  1  0.07952724  0.72838044  0.40603965  1  0  -0.729858  0  1.592964  0  0  -0.74223  0  1.903636  0  0  -0.766453  0  1.892502  0  0  -0.761636  -0.72781  0  1.912382  0
O  O67  1  0.92047303  0.27161511  0.59396119  1  0  -0.729898  0  1.592897  0  0  -0.742216  0  1.903491  0  0  -0.766445  0  1.892405  0  0  -0.761499  -0.727802  0  1.912266  0
O  O68  1  0.32247952  0.53049487  0.56881014  1  0  -0.676097  0  1.58822  0  0  -0.68422  0  1.88217  0  0  -0.707306  0  1.870802  0  0  -0.743925  -0.670884  0  1.891204  0
O  O69  1  0.67752269  0.46950404  0.43119081  1  0  -0.676115  0  1.588391  0  0  -0.684262  0  1.882398  0  0  -0.707332  0  1.87104  0  0  -0.744063  -0.670917  0  1.891432  0
O  O70  1  0.27641056  0.51304494  0.28757338  1  0  -0.742813  0  2.067302  0  0  -0.713859  0  2.356436  0  0  -0.74347  0  2.344057  0  0  -0.402925  -0.691644  0  2.364045  0
O  O71  1  0.72358929  0.48695959  0.71242601  1  0  -0.742772  0  2.067307  0  0  -0.713801  0  2.356417  0  0  -0.7434  0  2.34404  0  0  -0.402896  -0.691583  0  2.364027  0
O  O72  1  0.04495558  0.33921881  0.13486725  1  0  -0.658302  0  1.944994  0  0  -0.607616  0  2.183103  0  0  -0.629138  0  2.169236  0  0  -0.325396  -0.591925  0  2.191926  0
O  O73  1  0.95504518  0.66077899  0.86513328  1  0  -0.658383  0  1.944966  0  0  -0.607635  0  2.183028  0  0  -0.629159  0  2.169163  0  0  -0.325406  -0.591942  0  2.19185  0
O  O74  1  0.30112011  0.25411507  0.18562287  1  0  -0.621137  0  1.941631  0  0  -0.578218  0  2.181141  0  0  -0.600518  0  2.171221  0  0  -0.316381  -0.561851  0  2.187236  0
O  O75  1  0.69888284  0.74588720  0.81437988  1  0  -0.621163  0  1.941631  0  0  -0.578242  0  2.181155  0  0  -0.600545  0  2.171237  0  0  -0.31638  -0.561874  0  2.187246  0
O  O76  1  0.99688315  0.40487285  0.38752814  1  0  -0.996632  0  1.834589  0  0  -1.017283  0  2.105777  0  0  -1.061866  0  2.088799  0  0  -0.713194  -0.983895  0  2.116273  0
O  O77  1  0.00311787  0.59512607  0.61247179  1  0  -0.996606  0  1.834567  0  0  -1.017259  0  2.105766  0  0  -1.061845  0  2.088789  0  0  -0.71319  -0.983865  0  2.116253  0
