# generated using pymatgen
data_BaH2C6(NO2)2
_symmetry_space_group_name_H-M   'P 1'
_cell_length_a   7.01722971
_cell_length_b   9.19775818
_cell_length_c   11.73168309
_cell_angle_alpha   89.99986015
_cell_angle_beta   103.21136378
_cell_angle_gamma   90.00046288
_symmetry_Int_Tables_number   1
_chemical_formula_structural   BaH2C6(NO2)2
_chemical_formula_sum   'Ba4 H8 C24 N8 O16'
_cell_volume   737.15522103
_cell_formula_units_Z   4
loop_
 _symmetry_equiv_pos_site_id
 _symmetry_equiv_pos_as_xyz
  1  'x, y, z'
loop_
 _atom_site_type_symbol
 _atom_site_label
 _atom_site_symmetry_multiplicity
 _atom_site_fract_x
 _atom_site_fract_y
 _atom_site_fract_z
 _atom_site_occupancy
 _atom_site_hle17_bader_spin_density
 _atom_site_hle17_ddec_charge
 _atom_site_hle17_ddec_spin_density
 _atom_site_hle17_ddec_sum_bond_order
 _atom_site_hle17_magmom
 _atom_site_hse06_10hf_bader_spin_density
 _atom_site_hse06_10hf_ddec_charge
 _atom_site_hse06_10hf_ddec_spin_density
 _atom_site_hse06_10hf_ddec_sum_bond_order
 _atom_site_hse06_10hf_magmom
 _atom_site_hse06_bader_spin_density
 _atom_site_hse06_ddec_charge
 _atom_site_hse06_ddec_spin_density
 _atom_site_hse06_ddec_sum_bond_order
 _atom_site_hse06_magmom
 _atom_site_pbe_bader_spin_density
 _atom_site_pbe_cm5_charge
 _atom_site_pbe_ddec_charge
 _atom_site_pbe_ddec_spin_density
 _atom_site_pbe_ddec_sum_bond_order
 _atom_site_pbe_magmom
Ba  Ba0  1  0.47372124  0.89084332  0.13945677  1  0  1.613632  0  1.193773  0  0  1.456741  0  1.590819  0  0  1.501817  0  1.546518  0  0  0.99585  1.423692  0  1.622124  0
Ba  Ba1  1  0.02627811  0.39084506  0.86054454  1  0  1.613607  0  1.19381  0  0  1.456718  0  1.590863  0  0  1.501797  0  1.546561  0  0  0.995803  1.423656  0  1.622166  0
Ba  Ba2  1  0.52627868  0.10915622  0.86054363  1  0  1.613625  0  1.193777  0  0  1.456732  0  1.590823  0  0  1.501808  0  1.546522  0  0  0.995827  1.42368  0  1.622128  0
Ba  Ba3  1  0.97372328  0.60915557  0.13945606  1  0  1.613609  0  1.193791  0  0  1.45672  0  1.590845  0  0  1.501801  0  1.546541  0  0  0.995805  1.423655  0  1.622147  0
H  H4  1  0.65845959  0.04091566  0.43661389  1  0  0.087159  0  0.969981  0  0  0.088229  0  1.045725  0  0  0.092568  0  1.041662  0  0  0.120572  0.08503  0  1.048785  0
H  H5  1  0.84154019  0.54091504  0.56338819  1  0  0.087224  0  0.969913  0  0  0.088259  0  1.045692  0  0  0.092594  0  1.041632  0  0  0.120574  0.085059  0  1.048752  0
H  H6  1  0.34154033  0.95908496  0.56338651  1  0  0.087227  0  0.96991  0  0  0.088251  0  1.045701  0  0  0.09261  0  1.041616  0  0  0.120579  0.085049  0  1.048763  0
H  H7  1  0.15846120  0.45908450  0.43661156  1  0  0.08716  0  0.97  0  0  0.088238  0  1.045731  0  0  0.092561  0  1.04169  0  0  0.120574  0.08504  0  1.048791  0
H  H8  1  0.75229217  0.26872455  0.55204817  1  0  0.095422  0  0.931125  0  0  0.10412  0  0.990607  0  0  0.107781  0  0.987986  0  0  0.128227  0.101395  0  0.99268  0
H  H9  1  0.74770853  0.76872044  0.44795190  1  0  0.095437  0  0.931134  0  0  0.104154  0  0.990595  0  0  0.107823  0  0.987954  0  0  0.128213  0.101428  0  0.992665  0
H  H10  1  0.24770776  0.73127717  0.44795308  1  0  0.09542  0  0.931183  0  0  0.104124  0  0.990649  0  0  0.107788  0  0.98802  0  0  0.128218  0.1014  0  0.992721  0
H  H11  1  0.25229433  0.23127801  0.55204721  1  0  0.095432  0  0.931163  0  0  0.104145  0  0.990628  0  0  0.107815  0  0.987988  0  0  0.128204  0.101423  0  0.992697  0
C  C12  1  0.61573923  0.14674464  0.39680239  1  0  0.067077  0  3.711191  0  0  0.037706  0  3.979899  0  0  0.039501  0  3.995976  0  0  0.052149  0.036283  0  3.969278  0
C  C13  1  0.88426020  0.64674307  0.60319774  1  0  0.066997  0  3.711095  0  0  0.037642  0  3.979828  0  0  0.03944  0  3.995906  0  0  0.052096  0.036222  0  3.969201  0
C  C14  1  0.38426070  0.85325598  0.60319802  1  0  0.066978  0  3.711139  0  0  0.037622  0  3.979874  0  0  0.039402  0  3.995939  0  0  0.052108  0.036213  0  3.969239  0
C  C15  1  0.11574266  0.35325647  0.39680222  1  0  0.067016  0  3.711179  0  0  0.037636  0  3.979898  0  0  0.039439  0  3.995989  0  0  0.052091  0.036219  0  3.969267  0
C  C16  1  0.67266806  0.27365825  0.46064864  1  0  0.083565  0  3.69069  0  0  0.057453  0  3.958448  0  0  0.060356  0  3.973823  0  0  0.05952  0.055529  0  3.948104  0
C  C17  1  0.82733122  0.77365762  0.53935208  1  0  0.083534  0  3.690728  0  0  0.05741  0  3.958459  0  0  0.060314  0  3.973836  0  0  0.059541  0.055486  0  3.948109  0
C  C18  1  0.32733186  0.72634129  0.53935262  1  0  0.083581  0  3.690727  0  0  0.057483  0  3.958455  0  0  0.060387  0  3.973835  0  0  0.059562  0.055556  0  3.948111  0
C  C19  1  0.17267163  0.22634192  0.46064788  1  0  0.083504  0  3.690767  0  0  0.057374  0  3.958507  0  0  0.060279  0  3.973881  0  0  0.059528  0.055452  0  3.948158  0
C  C20  1  0.52890218  0.41108068  0.30176410  1  0  0.075247  0  3.664016  0  0  0.073871  0  3.918335  0  0  0.075546  0  3.931575  0  0  0.142353  0.072321  0  3.909968  0
C  C21  1  0.97109561  0.91108260  0.69823359  1  0  0.075104  0  3.664239  0  0  0.07374  0  3.91858  0  0  0.075414  0  3.931821  0  0  0.142263  0.072186  0  3.91022  0
C  C22  1  0.47109774  0.58891886  0.69823545  1  0  0.075239  0  3.663942  0  0  0.073858  0  3.91829  0  0  0.075533  0  3.93153  0  0  0.142333  0.07232  0  3.909923  0
C  C23  1  0.02890432  0.08891802  0.30176596  1  0  0.075071  0  3.664211  0  0  0.073683  0  3.918528  0  0  0.075356  0  3.931769  0  0  0.142272  0.072144  0  3.910175  0
C  C24  1  0.46485248  0.28339294  0.23771609  1  0  0.045003  0  3.687521  0  0  0.046284  0  3.932334  0  0  0.044829  0  3.948988  0  0  0.131823  0.04679  0  3.921584  0
C  C25  1  0.03514868  0.78339742  0.76228227  1  0  0.045105  0  3.68756  0  0  0.046432  0  3.932331  0  0  0.044976  0  3.948992  0  0  0.13184  0.046935  0  3.921584  0
C  C26  1  0.53514890  0.71660660  0.76228451  1  0  0.044996  0  3.687575  0  0  0.046262  0  3.932424  0  0  0.044804  0  3.949085  0  0  0.131803  0.046758  0  3.921675  0
C  C27  1  0.96485124  0.21660321  0.23771813  1  0  0.045258  0  3.687521  0  0  0.046577  0  3.932305  0  0  0.045124  0  3.948963  0  0  0.131904  0.047078  0  3.921551  0
C  C28  1  0.49700521  0.56136946  0.24824436  1  0  0.676625  0  3.935619  0  0  0.621692  0  4.237928  0  0  0.657589  0  4.225469  0  0  0.226818  0.597123  0  4.245676  0
C  C29  1  0.00299218  0.06137031  0.75175476  1  0  0.676672  0  3.93544  0  0  0.621655  0  4.23789  0  0  0.657552  0  4.225432  0  0  0.226836  0.597089  0  4.245636  0
C  C30  1  0.50299471  0.43863008  0.75175605  1  0  0.676657  0  3.935586  0  0  0.621722  0  4.237893  0  0  0.65762  0  4.225432  0  0  0.226834  0.597138  0  4.245664  0
C  C31  1  0.99700628  0.93862923  0.24824544  1  0  0.676649  0  3.935574  0  0  0.621717  0  4.237872  0  0  0.657614  0  4.225412  0  0  0.226816  0.59711  0  4.245679  0
C  C32  1  0.34219424  0.29170674  0.11361267  1  0  0.658418  0  3.911001  0  0  0.606196  0  4.208356  0  0  0.640392  0  4.199787  0  0  0.236632  0.582993  0  4.213451  0
C  C33  1  0.15780995  0.79171485  0.88638354  1  0  0.658301  0  3.911156  0  0  0.606018  0  4.208587  0  0  0.640214  0  4.200022  0  0  0.236522  0.582822  0  4.213678  0
C  C34  1  0.65780568  0.70829280  0.88638774  1  0  0.658288  0  3.911167  0  0  0.60607  0  4.20852  0  0  0.640268  0  4.199956  0  0  0.2366  0.582878  0  4.213605  0
C  C35  1  0.84218851  0.20828469  0.11361666  1  0  0.658149  0  3.91124  0  0  0.605853  0  4.208704  0  0  0.640046  0  4.200142  0  0  0.236461  0.582669  0  4.213771  0
N  N36  1  0.51252437  0.15190337  0.28549251  1  0  -0.325279  0  3.180873  0  0  -0.283278  0  3.446027  0  0  -0.292116  0  3.463749  0  0  -0.335659  -0.276909  0  3.434098  0
N  N37  1  0.98747804  0.65190534  0.71450802  1  0  -0.325284  0  3.180914  0  0  -0.283271  0  3.446016  0  0  -0.292108  0  3.463735  0  0  -0.335616  -0.276899  0  3.434081  0
N  N38  1  0.48747702  0.84809726  0.71450895  1  0  -0.325281  0  3.180901  0  0  -0.283264  0  3.446036  0  0  -0.292103  0  3.463765  0  0  -0.335654  -0.276892  0  3.434099  0
N  N39  1  0.01252188  0.34809420  0.28549238  1  0  -0.325308  0  3.18091  0  0  -0.283308  0  3.446044  0  0  -0.292143  0  3.46376  0  0  -0.335644  -0.276934  0  3.434106  0
N  N40  1  0.63271901  0.40564580  0.41304693  1  0  -0.26607  0  3.04526  0  0  -0.241491  0  3.317924  0  0  -0.248781  0  3.331188  0  0  -0.287559  -0.236393  0  3.309041  0
N  N41  1  0.86727726  0.90564418  0.58695311  1  0  -0.266016  0  3.04546  0  0  -0.241459  0  3.318171  0  0  -0.24875  0  3.331438  0  0  -0.287511  -0.236359  0  3.309289  0
N  N42  1  0.36728092  0.59435483  0.58695347  1  0  -0.266036  0  3.045249  0  0  -0.241472  0  3.317931  0  0  -0.248762  0  3.331194  0  0  -0.287555  -0.236381  0  3.309054  0
N  N43  1  0.13272413  0.09435536  0.41304664  1  0  -0.265975  0  3.045441  0  0  -0.241403  0  3.318132  0  0  -0.248695  0  3.331403  0  0  -0.287484  -0.236306  0  3.30925  0
O  O44  1  0.36364348  0.64152659  0.27167012  1  0  -0.714171  0  1.953626  0  0  -0.656801  0  2.192875  0  0  -0.685334  0  2.183782  0  0  -0.368653  -0.636275  0  2.198352  0
O  O45  1  0.13635329  0.14153051  0.72832706  1  0  -0.714169  0  1.95346  0  0  -0.656782  0  2.192768  0  0  -0.68531  0  2.183667  0  0  -0.368627  -0.636249  0  2.198238  0
O  O46  1  0.63635792  0.35847296  0.72832964  1  0  -0.714212  0  1.953604  0  0  -0.656831  0  2.192839  0  0  -0.685364  0  2.183744  0  0  -0.368659  -0.636295  0  2.198319  0
O  O47  1  0.86364371  0.85847121  0.27167209  1  0  -0.714179  0  1.953544  0  0  -0.656813  0  2.192798  0  0  -0.685347  0  2.183706  0  0  -0.368643  -0.636264  0  2.198287  0
O  O48  1  0.61587660  0.60014458  0.18730073  1  0  -0.702403  0  1.989078  0  0  -0.639979  0  2.234249  0  0  -0.668644  0  2.224324  0  0  -0.387235  -0.619468  0  2.240379  0
O  O49  1  0.88412234  0.10014433  0.81269856  1  0  -0.702404  0  1.98906  0  0  -0.639953  0  2.23428  0  0  -0.668618  0  2.224353  0  0  -0.387245  -0.619442  0  2.240412  0
O  O50  1  0.38412333  0.39985496  0.81269797  1  0  -0.702408  0  1.989133  0  0  -0.639981  0  2.234305  0  0  -0.668647  0  2.22438  0  0  -0.387229  -0.619466  0  2.240446  0
O  O51  1  0.11587466  0.89985521  0.18730144  1  0  -0.702383  0  1.98912  0  0  -0.639956  0  2.234294  0  0  -0.668622  0  2.224367  0  0  -0.387215  -0.619429  0  2.240445  0
O  O52  1  0.33717193  0.18346959  0.04595776  1  0  -0.695084  0  1.966984  0  0  -0.636491  0  2.208164  0  0  -0.662349  0  2.199093  0  0  -0.343323  -0.618311  0  2.213922  0
O  O53  1  0.16283259  0.68347534  0.95404040  1  0  -0.695073  0  1.966966  0  0  -0.636457  0  2.20817  0  0  -0.66232  0  2.199101  0  0  -0.343255  -0.618259  0  2.213894  0
O  O54  1  0.66282946  0.81653104  0.95404284  1  0  -0.695045  0  1.966953  0  0  -0.636451  0  2.208132  0  0  -0.66231  0  2.199061  0  0  -0.343331  -0.618275  0  2.213889  0
O  O55  1  0.83716587  0.31652420  0.04595980  1  0  -0.695033  0  1.966979  0  0  -0.636412  0  2.208189  0  0  -0.662275  0  2.199122  0  0  -0.343236  -0.61821  0  2.213891  0
O  O56  1  0.24987668  0.41003642  0.08627282  1  0  -0.699106  0  2.051547  0  0  -0.634213  0  2.295137  0  0  -0.663121  0  2.288456  0  0  -0.371492  -0.613776  0  2.299078  0
O  O57  1  0.25012434  0.91004066  0.91372358  1  0  -0.699067  0  2.051761  0  0  -0.63414  0  2.29536  0  0  -0.663046  0  2.288682  0  0  -0.371448  -0.61371  0  2.299308  0
O  O58  1  0.75012471  0.58996312  0.91372694  1  0  -0.698987  0  2.05158  0  0  -0.634108  0  2.295193  0  0  -0.663016  0  2.288516  0  0  -0.371438  -0.613674  0  2.29913  0
O  O59  1  0.74987412  0.08995888  0.08627748  1  0  -0.699016  0  2.051793  0  0  -0.634072  0  2.295368  0  0  -0.662976  0  2.288691  0  0  -0.371437  -0.613647  0  2.299309  0
