# generated using pymatgen
data_La2NiH22C26(N3O10)2
_symmetry_space_group_name_H-M   'P 1'
_cell_length_a   6.92662117
_cell_length_b   9.17769447
_cell_length_c   13.92823448
_cell_angle_alpha   86.76639813
_cell_angle_beta   84.84064731
_cell_angle_gamma   75.71233603
_symmetry_Int_Tables_number   1
_chemical_formula_structural   La2NiH22C26(N3O10)2
_chemical_formula_sum   'La2 Ni1 H22 C26 N6 O20'
_cell_volume   854.02296913
_cell_formula_units_Z   1
loop_
 _symmetry_equiv_pos_site_id
 _symmetry_equiv_pos_as_xyz
  1  'x, y, z'
loop_
 _atom_site_type_symbol
 _atom_site_label
 _atom_site_symmetry_multiplicity
 _atom_site_fract_x
 _atom_site_fract_y
 _atom_site_fract_z
 _atom_site_occupancy
 _atom_site_hle17_bader_spin_density
 _atom_site_hle17_ddec_charge
 _atom_site_hle17_ddec_spin_density
 _atom_site_hle17_ddec_sum_bond_order
 _atom_site_hle17_magmom
 _atom_site_hse06_10hf_bader_spin_density
 _atom_site_hse06_10hf_ddec_charge
 _atom_site_hse06_10hf_ddec_spin_density
 _atom_site_hse06_10hf_ddec_sum_bond_order
 _atom_site_hse06_10hf_magmom
 _atom_site_hse06_bader_spin_density
 _atom_site_hse06_ddec_charge
 _atom_site_hse06_ddec_spin_density
 _atom_site_hse06_ddec_sum_bond_order
 _atom_site_hse06_magmom
 _atom_site_pbe_bader_spin_density
 _atom_site_pbe_cm5_charge
 _atom_site_pbe_ddec_charge
 _atom_site_pbe_ddec_spin_density
 _atom_site_pbe_ddec_sum_bond_order
 _atom_site_pbe_magmom
La  La0  1  0.49393005  0.71650751  0.40639809  1  0  2.08613  0  1.705157  0  0  1.966757  0  2.200429  0  0  2.066222  0  2.105299  0  0  1.375763  1.892413  0  2.26692  0
La  La1  1  0.50605351  0.28350214  0.59360483  1  0  2.086058  0  1.70527  0  0  1.966693  0  2.200488  0  0  2.066148  0  2.105388  0  0  1.375754  1.892333  0  2.267014  0
Ni  Ni2  1  0.50000587  0.49999356  0.99999349  1  0  0.548443  0  2.519311  0  0  0.516107  0  3.006228  0  0  0.589414  0  2.927654  0  0  0.624235  0.475819  0  3.055493  0
H  H3  1  0.16579913  0.43459931  0.99014984  1  0  0.293683  0  0.926676  0  0  0.279012  0  0.999018  0  0  0.285328  0  0.992199  0  0  0.291145  0.274053  0  1.00453  0
H  H4  1  0.83420444  0.56539464  0.00984877  1  0  0.293604  0  0.926692  0  0  0.278955  0  0.99902  0  0  0.285271  0  0.992202  0  0  0.291131  0.273995  0  1.004536  0
H  H5  1  0.28815243  0.25438941  0.97893434  1  0  0.313471  0  0.882507  0  0  0.310532  0  0.927721  0  0  0.315987  0  0.923853  0  0  0.306747  0.306565  0  0.930733  0
H  H6  1  0.71185874  0.74560353  0.02106400  1  0  0.313534  0  0.88245  0  0  0.31059  0  0.927671  0  0  0.316047  0  0.9238  0  0  0.306784  0.306622  0  0.930692  0
H  H7  1  0.76887721  0.15346550  0.05888996  1  0  0.11277  0  0.892201  0  0  0.126742  0  0.941647  0  0  0.12979  0  0.937981  0  0  0.155157  0.124136  0  0.944766  0
H  H8  1  0.23113023  0.84653366  0.94112257  1  0  0.112735  0  0.892201  0  0  0.126759  0  0.941605  0  0  0.12981  0  0.937937  0  0  0.155146  0.124148  0  0.944726  0
H  H9  1  0.73425144  0.09077433  0.24183698  1  0  0.338833  0  0.823894  0  0  0.32652  0  0.86772  0  0  0.334225  0  0.862081  0  0  0.353117  0.320622  0  0.872603  0
H  H10  1  0.26575390  0.90923928  0.75816983  1  0  0.338878  0  0.823733  0  0  0.326581  0  0.867558  0  0  0.33428  0  0.861918  0  0  0.353097  0.320683  0  0.872435  0
H  H11  1  0.98011458  0.53734867  0.13773536  1  0  0.117175  0  0.958738  0  0  0.127649  0  1.020306  0  0  0.131868  0  1.017353  0  0  0.106978  0.1247  0  1.022256  0
H  H12  1  0.01988432  0.46264624  0.86226125  1  0  0.117202  0  0.958708  0  0  0.127639  0  1.02032  0  0  0.131855  0  1.017379  0  0  0.106963  0.12469  0  1.022269  0
H  H13  1  0.07952309  0.25897442  0.39477332  1  0  0.110058  0  0.972647  0  0  0.119568  0  1.038983  0  0  0.124129  0  1.035031  0  0  0.113042  0.116331  0  1.041789  0
H  H14  1  0.92047738  0.74102843  0.60522279  1  0  0.110087  0  0.972636  0  0  0.119579  0  1.038998  0  0  0.124141  0  1.035042  0  0  0.113038  0.116336  0  1.041803  0
H  H15  1  0.34078538  0.07953245  0.12139938  1  0  0.10833  0  0.939101  0  0  0.118816  0  0.998915  0  0  0.123572  0  0.995271  0  0  0.102083  0.115521  0  1.001331  0
H  H16  1  0.65921607  0.92045923  0.87860016  1  0  0.108305  0  0.939217  0  0  0.118782  0  0.999036  0  0  0.123536  0  0.995397  0  0  0.102071  0.115485  0  1.001451  0
H  H17  1  0.74622227  0.91666367  0.50853050  1  0  0.433522  0  0.869831  0  0  0.40292  0  0.933777  0  0  0.414088  0  0.917778  0  0  0.303627  0.394908  0  0.945222  0
H  H18  1  0.25376724  0.08334143  0.49146954  1  0  0.433471  0  0.869891  0  0  0.402825  0  0.933913  0  0  0.413995  0  0.917912  0  0  0.303576  0.394809  0  0.945365  0
H  H19  1  0.70795307  0.97337019  0.40502073  1  0  0.432631  0  0.852788  0  0  0.404854  0  0.916271  0  0  0.415646  0  0.900413  0  0  0.310381  0.396773  0  0.928229  0
H  H20  1  0.29204352  0.02662710  0.59497944  1  0  0.432632  0  0.852769  0  0  0.404842  0  0.916297  0  0  0.415635  0  0.900438  0  0  0.310368  0.39676  0  0.928255  0
H  H21  1  0.12117250  0.61473380  0.49782424  1  0  0.44547  0  0.851229  0  0  0.41446  0  0.915671  0  0  0.426071  0  0.898768  0  0  0.304639  0.406045  0  0.92791  0
H  H22  1  0.87882914  0.38526571  0.50217271  1  0  0.445463  0  0.85124  0  0  0.414448  0  0.915696  0  0  0.426057  0  0.898798  0  0  0.304624  0.406034  0  0.927934  0
H  H23  1  0.01522799  0.76404989  0.43849047  1  0  0.445691  0  0.838142  0  0  0.420679  0  0.890958  0  0  0.431582  0  0.875  0  0  0.310511  0.412623  0  0.902782  0
H  H24  1  0.98476808  0.23595305  0.56150941  1  0  0.445576  0  0.838319  0  0  0.420573  0  0.891115  0  0  0.431476  0  0.875159  0  0  0.310476  0.412523  0  0.902929  0
C  C25  1  0.69565202  0.22968356  0.11499164  1  0  0.263682  0  3.582835  0  0  0.198117  0  3.866767  0  0  0.216258  0  3.874855  0  0  0.175128  0.186442  0  3.861768  0
C  C26  1  0.30435387  0.77031187  0.88501398  1  0  0.263557  0  3.582441  0  0  0.197959  0  3.866399  0  0  0.21608  0  3.874477  0  0  0.175015  0.186293  0  3.861392  0
C  C27  1  0.58648898  0.31986936  0.26071824  1  0  0.041702  0  3.65266  0  0  0.029235  0  3.905389  0  0  0.028697  0  3.922865  0  0  0.110883  0.028711  0  3.894881  0
C  C28  1  0.41351958  0.68012262  0.73928529  1  0  0.041839  0  3.652532  0  0  0.029307  0  3.905358  0  0  0.028757  0  3.922834  0  0  0.110961  0.028779  0  3.894853  0
C  C29  1  0.52904540  0.43204966  0.19053081  1  0  -0.008338  0  3.708049  0  0  -0.014445  0  3.959332  0  0  -0.015526  0  3.980066  0  0  0.094431  -0.013922  0  3.946911  0
C  C30  1  0.47096470  0.56794217  0.80946836  1  0  -0.008451  0  3.708323  0  0  -0.014539  0  3.959608  0  0  -0.015624  0  3.980334  0  0  0.094344  -0.014015  0  3.947188  0
C  C31  1  0.41068636  0.58971954  0.18458905  1  0  0.653489  0  3.863225  0  0  0.609604  0  4.163145  0  0  0.64904  0  4.154081  0  0  0.230963  0.581427  0  4.170481  0
C  C32  1  0.58931716  0.41027877  0.81540573  1  0  0.653194  0  3.863596  0  0  0.60933  0  4.163471  0  0  0.648767  0  4.154407  0  0  0.230871  0.581154  0  4.170798  0
C  C33  1  0.55126750  0.31072696  0.36714721  1  0  0.643055  0  3.965465  0  0  0.595628  0  4.264589  0  0  0.630195  0  4.259014  0  0  0.221737  0.571762  0  4.268071  0
C  C34  1  0.44873234  0.68928175  0.63285363  1  0  0.642948  0  3.965442  0  0  0.595541  0  4.264592  0  0  0.630103  0  4.259003  0  0  0.221627  0.571677  0  4.26807  0
C  C35  1  0.87594482  0.53519533  0.32481910  1  0  0.630783  0  3.916467  0  0  0.584803  0  4.209876  0  0  0.617862  0  4.206268  0  0  0.197806  0.562341  0  4.211274  0
C  C36  1  0.12405921  0.46479737  0.67517669  1  0  0.630653  0  3.916577  0  0  0.584608  0  4.210116  0  0  0.61767  0  4.206507  0  0  0.197746  0.562143  0  4.211513  0
C  C37  1  0.15793215  0.30928995  0.11482525  1  0  0.285785  0  3.885124  0  0  0.283253  0  4.148804  0  0  0.289878  0  4.171846  0  0  0.082897  0.27841  0  4.132567  0
C  C38  1  0.84206444  0.69070735  0.88517492  1  0  0.286026  0  3.88511  0  0  0.283496  0  4.148761  0  0  0.290123  0  4.171801  0  0  0.083011  0.27866  0  4.132508  0
C  C39  1  0.04627366  0.42828398  0.17100554  1  0  -0.176763  0  3.666383  0  0  -0.208698  0  3.916641  0  0  -0.21195  0  3.935959  0  0  -0.096886  -0.205463  0  3.903023  0
C  C40  1  0.95371866  0.57171315  0.82899266  1  0  -0.176925  0  3.666373  0  0  -0.208804  0  3.916654  0  0  -0.212059  0  3.93597  0  0  -0.096896  -0.205574  0  3.903038  0
C  C41  1  0.01612454  0.41012943  0.27095799  1  0  -0.036802  0  3.781437  0  0  -0.012191  0  4.020203  0  0  -0.016657  0  4.040613  0  0  -0.017643  -0.009564  0  4.006357  0
C  C42  1  0.98387564  0.58987009  0.72903974  1  0  -0.036646  0  3.78106  0  0  -0.012101  0  4.019928  0  0  -0.016562  0  4.040328  0  0  -0.017624  -0.009478  0  4.006084  0
C  C43  1  0.10420957  0.27428485  0.31721849  1  0  -0.097975  0  3.694674  0  0  -0.144067  0  3.954768  0  0  -0.143471  0  3.971426  0  0  -0.092159  -0.143799  0  3.943103  0
C  C44  1  0.89578330  0.72571901  0.68277788  1  0  -0.097969  0  3.694489  0  0  -0.144042  0  3.954603  0  0  -0.143438  0  3.971247  0  0  -0.092128  -0.143758  0  3.942925  0
C  C45  1  0.24773251  0.17341320  0.16192369  1  0  -0.194576  0  3.710239  0  0  -0.227127  0  3.963368  0  0  -0.230592  0  3.982429  0  0  -0.102646  -0.223781  0  3.949371  0
C  C46  1  0.75226837  0.82658422  0.83807772  1  0  -0.194629  0  3.710448  0  0  -0.227182  0  3.963572  0  0  -0.230649  0  3.982633  0  0  -0.102646  -0.223834  0  3.949563  0
C  C47  1  0.22365208  0.15748227  0.26241208  1  0  -0.047351  0  3.80147  0  0  -0.022999  0  4.041652  0  0  -0.027354  0  4.062069  0  0  -0.02306  -0.020295  0  4.027771  0
C  C48  1  0.77634512  0.84251738  0.73759008  1  0  -0.047562  0  3.801739  0  0  -0.023161  0  4.041905  0  0  -0.027516  0  4.062321  0  0  -0.023177  -0.02046  0  4.028018  0
C  C49  1  0.33429832  0.01731083  0.31213295  1  0  0.637577  0  3.922914  0  0  0.58895  0  4.220961  0  0  0.622515  0  4.215927  0  0  0.198234  0.565879  0  4.223815  0
C  C50  1  0.66569511  0.98269122  0.68787356  1  0  0.637807  0  3.92283  0  0  0.589124  0  4.220933  0  0  0.622691  0  4.215889  0  0  0.198277  0.566048  0  4.223799  0
N  N51  1  0.17297551  0.32694860  0.01478997  1  0  -0.659372  0  3.083918  0  0  -0.635564  0  3.316999  0  0  -0.65236  0  3.314946  0  0  -0.600932  -0.623331  0  3.318549  0
N  N52  1  0.82703055  0.67304652  0.98520847  1  0  -0.659396  0  3.083905  0  0  -0.635607  0  3.316952  0  0  -0.652405  0  3.314902  0  0  -0.600985  -0.623377  0  3.318508  0
N  N53  1  0.59797207  0.37277437  0.10138678  1  0  -0.32048  0  3.431973  0  0  -0.276144  0  3.747171  0  0  -0.303358  0  3.760274  0  0  -0.372861  -0.260583  0  3.739667  0
N  N54  1  0.40203762  0.62721861  0.89861306  1  0  -0.320245  0  3.431662  0  0  -0.275905  0  3.746844  0  0  -0.303096  0  3.759929  0  0  -0.37277  -0.260347  0  3.739341  0
N  N55  1  0.69070652  0.19566605  0.21060101  1  0  -0.277297  0  3.425501  0  0  -0.219056  0  3.664675  0  0  -0.233885  0  3.67772  0  0  -0.350672  -0.209516  0  3.656888  0
N  N56  1  0.30930447  0.80433151  0.78939924  1  0  -0.277287  0  3.425067  0  0  -0.219081  0  3.664328  0  0  -0.233872  0  3.677344  0  0  -0.350607  -0.209551  0  3.656539  0
O  O57  1  0.38558924  0.63855236  0.09493245  1  0  -0.520784  0  2.031397  0  0  -0.494601  0  2.311477  0  0  -0.536258  0  2.2977  0  0  -0.306536  -0.467801  0  2.320922  0
O  O58  1  0.61441014  0.36145371  0.90505994  1  0  -0.520556  0  2.031768  0  0  -0.494354  0  2.311845  0  0  -0.536006  0  2.298067  0  0  -0.306454  -0.467565  0  2.321297  0
O  O59  1  0.34105052  0.66873556  0.25509661  1  0  -0.588792  0  2.000392  0  0  -0.551943  0  2.237565  0  0  -0.583483  0  2.228273  0  0  -0.331851  -0.528927  0  2.24407  0
O  O60  1  0.65895646  0.33126950  0.74489551  1  0  -0.588651  0  2.000347  0  0  -0.551846  0  2.237571  0  0  -0.58338  0  2.228279  0  0  -0.33183  -0.528824  0  2.244061  0
O  O61  1  0.59170037  0.18133517  0.40866122  1  0  -0.650784  0  1.991609  0  0  -0.603624  0  2.228841  0  0  -0.631971  0  2.220398  0  0  -0.322098  -0.58336  0  2.234388  0
O  O62  1  0.40829806  0.81867346  0.59133825  1  0  -0.650726  0  1.991333  0  0  -0.603567  0  2.228571  0  0  -0.631915  0  2.22014  0  0  -0.322056  -0.583302  0  2.234113  0
O  O63  1  0.48221508  0.43121524  0.41303165  1  0  -0.692931  0  2.036147  0  0  -0.642584  0  2.286935  0  0  -0.678167  0  2.283139  0  0  -0.358913  -0.617005  0  2.288505  0
O  O64  1  0.51778112  0.56879561  0.58696779  1  0  -0.692964  0  2.036531  0  0  -0.642514  0  2.287134  0  0  -0.678165  0  2.283491  0  0  -0.358852  -0.616935  0  2.288697  0
O  O65  1  0.85008258  0.52897736  0.41709289  1  0  -0.669627  0  2.018175  0  0  -0.616354  0  2.253171  0  0  -0.646732  0  2.246563  0  0  -0.342862  -0.594427  0  2.256766  0
O  O66  1  0.14991795  0.47102540  0.58290107  1  0  -0.669574  0  2.018372  0  0  -0.616233  0  2.253346  0  0  -0.646617  0  2.246744  0  0  -0.342804  -0.594297  0  2.256921  0
O  O67  1  0.77167607  0.64306611  0.27582530  1  0  -0.648294  0  1.95037  0  0  -0.6083  0  2.184786  0  0  -0.638175  0  2.178363  0  0  -0.376987  -0.586785  0  2.188479  0
O  O68  1  0.22831432  0.35692411  0.72417120  1  0  -0.648257  0  1.950374  0  0  -0.608225  0  2.184834  0  0  -0.638097  0  2.17841  0  0  -0.377019  -0.58671  0  2.188529  0
O  O69  1  0.26447723  0.98088284  0.39671209  1  0  -0.683632  0  2.002498  0  0  -0.62572  0  2.233008  0  0  -0.656818  0  2.224147  0  0  -0.370921  -0.603435  0  2.238375  0
O  O70  1  0.73549748  0.01911888  0.60329451  1  0  -0.683668  0  2.002579  0  0  -0.625783  0  2.233149  0  0  -0.656877  0  2.224278  0  0  -0.370922  -0.603506  0  2.23853  0
O  O71  1  0.49358801  0.93719881  0.27193476  1  0  -0.642865  0  1.931483  0  0  -0.604729  0  2.164493  0  0  -0.631694  0  2.155906  0  0  -0.348477  -0.585337  0  2.170433  0
O  O72  1  0.50641730  0.06281056  0.72807875  1  0  -0.642992  0  1.931412  0  0  -0.604833  0  2.164462  0  0  -0.631801  0  2.155873  0  0  -0.348507  -0.585431  0  2.170397  0
O  O73  1  0.74549081  0.87768454  0.44257581  1  0  -0.865426  0  1.845056  0  0  -0.815254  0  2.025297  0  0  -0.840679  0  1.992673  0  0  -0.597231  -0.796558  0  2.048584  0
O  O74  1  0.25450352  0.12231504  0.55742577  1  0  -0.865364  0  1.845051  0  0  -0.815172  0  2.025311  0  0  -0.840593  0  1.992675  0  0  -0.5972  -0.796476  0  2.048601  0
O  O75  1  0.14485785  0.70304901  0.45784468  1  0  -0.885996  0  1.857089  0  0  -0.842804  0  2.050533  0  0  -0.868565  0  2.017104  0  0  -0.644613  -0.82372  0  2.074129  0
O  O76  1  0.85513941  0.29695052  0.54215462  1  0  -0.885903  0  1.85724  0  0  -0.842685  0  2.050633  0  0  -0.868443  0  2.017208  0  0  -0.644561  -0.823606  0  2.074225  0
