# generated using pymatgen
data_Mn3P6H44(C12O11)2
_symmetry_space_group_name_H-M   'P 1'
_cell_length_a   8.26574387
_cell_length_b   10.04030849
_cell_length_c   13.19912200
_cell_angle_alpha   66.67068446
_cell_angle_beta   82.94292752
_cell_angle_gamma   70.73479291
_symmetry_Int_Tables_number   1
_chemical_formula_structural   Mn3P6H44(C12O11)2
_chemical_formula_sum   'Mn3 P6 H44 C24 O22'
_cell_volume   949.48293014
_cell_formula_units_Z   1
loop_
 _symmetry_equiv_pos_site_id
 _symmetry_equiv_pos_as_xyz
  1  'x, y, z'
loop_
 _atom_site_type_symbol
 _atom_site_label
 _atom_site_symmetry_multiplicity
 _atom_site_fract_x
 _atom_site_fract_y
 _atom_site_fract_z
 _atom_site_occupancy
 _atom_site_hle17_ddec_charge
 _atom_site_hle17_ddec_spin_density
 _atom_site_hle17_ddec_sum_bond_order
 _atom_site_hle17_magmom
 _atom_site_hse06_10hf_ddec_charge
 _atom_site_hse06_10hf_ddec_spin_density
 _atom_site_hse06_10hf_ddec_sum_bond_order
 _atom_site_hse06_10hf_magmom
 _atom_site_hse06_ddec_charge
 _atom_site_hse06_ddec_spin_density
 _atom_site_hse06_ddec_sum_bond_order
 _atom_site_hse06_magmom
 _atom_site_pbe_cm5_charge
 _atom_site_pbe_ddec_charge
 _atom_site_pbe_ddec_spin_density
 _atom_site_pbe_ddec_sum_bond_order
 _atom_site_pbe_magmom
Mn  Mn0  1  0.02297411  0.15013488  0.39204864  1  1.326588  -4.791208  1.629919  -4.693  1.173757  -4.722408  2.107646  -4.565  1.230325  -4.760538  2.037021  -4.618  0.609966  1.128226  -4.685335  2.159377  -4.516
Mn  Mn1  1  0.97671551  0.85023012  0.60790415  1  1.3263  4.791828  1.630991  4.692  1.172997  4.719783  2.109386  4.563  1.229933  4.76127  2.038374  4.617  0.609199  1.126987  4.67874  2.161532  4.512
Mn  Mn2  1  0.50004327  0.99993440  0.50014043  1  1.330905  -4.788498  1.664216  -4.695  1.178702  -4.716298  2.1554  -4.566  1.232275  -4.754056  2.084814  -4.618  0.608161  1.136083  -4.679581  2.206971  -4.517
P  P3  1  0.58952354  0.31566573  0.31079991  1  1.539171  -0.007371  4.692899  -0.007  1.37706  -0.012676  5.198665  -0.01  1.427084  -0.009658  5.160604  -0.008  0.385221  1.341582  -0.015488  5.224716  -0.011
P  P4  1  0.41035804  0.68432055  0.68926136  1  1.539207  0.001266  4.693104  0.001  1.37723  0.001334  5.198789  0.001  1.427367  0.00109  5.160676  0.001  0.385037  1.341705  0.001547  5.224865  0.002
P  P5  1  0.85698183  0.88557255  0.36526016  1  1.537251  -0.003449  4.696069  -0.003  1.384992  -0.005859  5.189903  -0.004  1.434552  -0.004429  5.153897  -0.003  0.380178  1.349716  -0.007105  5.214143  -0.005
P  P6  1  0.14304984  0.11442774  0.63476984  1  1.537368  -0.008552  4.696706  -0.007  1.384877  -0.012333  5.190765  -0.009  1.434472  -0.009845  5.154695  -0.007  0.380051  1.349574  -0.014713  5.215096  -0.01
P  P7  1  0.93672032  0.71685310  0.88827665  1  1.51273  0.004537  4.695069  0.004  1.350643  0.007139  5.199822  0.005  1.399179  0.005554  5.16302  0.005  0.381737  1.31656  0.008691  5.224772  0.006
P  P8  1  0.06325894  0.28322026  0.11170370  1  1.512564  -0.004517  4.694416  -0.004  1.350479  -0.007186  5.199144  -0.005  1.398927  -0.005576  5.162424  -0.005  0.381533  1.316414  -0.008794  5.224084  -0.006
H  H9  1  0.27680747  0.86796328  0.49103566  1  0.434107  -5.4e-05  0.863568  0.0  0.399999  -0.000739  0.937721  -0.001  0.411438  -0.000548  0.921121  -0.001  0.310694  0.391813  -0.000907  0.949598  -0.001
H  H10  1  0.72326119  0.13167515  0.50876028  1  0.434748  0.000149  0.863362  0.0  0.400628  -0.000337  0.937289  0.0  0.41206  -0.00018  0.920684  0.0  0.310987  0.392449  -0.00048  0.94917  0.0
H  H11  1  0.33914532  0.92823301  0.36508057  1  0.453391  0.000655  0.768572  -0.001  0.439617  -0.000589  0.80999  -0.002  0.447867  -3.5e-05  0.802093  -0.002  0.351663  0.43338  -0.001146  0.816073  -0.002
H  H12  1  0.66130728  0.07134047  0.63488988  1  0.454493  -0.000136  0.766981  0.0  0.440694  -0.000433  0.808436  -0.001  0.448935  -0.000291  0.800538  0.0  0.352295  0.43447  -0.000571  0.81451  -0.001
H  H13  1  0.11018986  0.39484425  0.27041498  1  0.424866  -7.1e-05  0.854657  -0.001  0.397275  -0.00098  0.924384  -0.002  0.406585  -0.000682  0.911018  -0.001  0.306273  0.390657  -0.00124  0.9338  -0.002
H  H14  1  0.88985892  0.60529117  0.72951369  1  0.424619  5.9e-05  0.854247  0.001  0.396957  0.000953  0.924671  0.002  0.406283  0.00067  0.911277  0.001  0.306224  0.390336  0.001204  0.933596  0.002
H  H15  1  0.25584470  0.29990435  0.35951434  1  0.438155  0.000324  0.865806  -0.001  0.40584  -0.000689  0.931596  -0.002  0.416896  -0.000333  0.915765  -0.002  0.29637  0.39797  -0.001019  0.942817  -0.002
H  H16  1  0.74411502  0.70013199  0.64047381  1  0.43824  0.000728  0.865541  0.001  0.405782  0.001437  0.93152  0.002  0.416846  0.001206  0.915684  0.002  0.296421  0.397884  0.001644  0.94278  0.002
H  H17  1  0.72477104  0.33755603  0.14650740  1  0.443469  -1e-06  0.848544  0.0  0.409162  -5.1e-05  0.91777  0.0  0.420275  -1.1e-05  0.901957  0.0  0.315398  0.401394  -9.6e-05  0.928815  0.0
H  H18  1  0.27530935  0.66244156  0.85355206  1  0.44331  -0.00019  0.849007  0.0  0.409077  -0.00026  0.917947  0.0  0.420225  -0.000227  0.902081  0.0  0.315377  0.401314  -0.000294  0.928985  0.0
H  H19  1  0.93463061  0.06711235  0.23304887  1  0.42154  0.000151  0.888868  0.0  0.388986  -0.00013  0.958334  0.0  0.399913  -2e-05  0.942458  0.0  0.31444  0.381269  -0.000231  0.96954  0.0
H  H20  1  0.06552135  0.93282375  0.76703412  1  0.421279  -0.000322  0.889366  0.0  0.389059  -0.000147  0.958279  0.0  0.400005  -0.000196  0.942369  0.0  0.314498  0.381348  -0.000115  0.969476  0.0
H  H21  1  0.86607809  0.50261548  0.95063238  1  0.441239  1.7e-05  0.862854  0.0  0.405363  2.2e-05  0.933151  0.0  0.416854  2.4e-05  0.916997  0.0  0.308412  0.39735  1.2e-05  0.944404  0.0
H  H22  1  0.13389791  0.49744376  0.04928490  1  0.441088  -1.9e-05  0.863067  0.0  0.405182  -2.5e-05  0.9334  0.0  0.416697  -2.6e-05  0.917212  0.0  0.308314  0.397168  -1.9e-05  0.944652  0.0
H  H23  1  0.38541846  0.55886705  0.22974939  1  0.134457  -0.000149  0.957644  0.0  0.149833  -0.00042  1.011186  0.0  0.152389  -0.000297  1.010039  0.0  0.108636  0.147889  -0.000545  1.012176  0.0
H  H24  1  0.61456115  0.44117153  0.77022591  1  0.134626  0.000236  0.957667  0.0  0.149937  0.000335  1.01123  0.0  0.1525  0.000263  1.01008  0.0  0.10872  0.147979  0.000409  1.012237  0.0
H  H25  1  0.43707913  0.52531119  0.36468493  1  0.12972  0.000137  0.977347  0.0  0.145306  1.8e-05  1.034324  0.0  0.14728  4.4e-05  1.033991  0.0  0.104729  0.143745  -8e-06  1.034794  0.0
H  H26  1  0.56287247  0.47476834  0.63529281  1  0.129709  6.3e-05  0.977479  0.0  0.145304  9.4e-05  1.034406  0.0  0.147279  7.9e-05  1.034078  0.0  0.104706  0.143729  9.8e-05  1.034893  0.0
H  H27  1  0.61318128  0.47690928  0.46170818  1  0.095638  0.000123  1.002386  0.0  0.116456  0.000129  1.064093  0.0  0.117746  0.000142  1.063633  0.0  0.08609  0.11546  0.000109  1.064602  0.0
H  H28  1  0.38676930  0.52313629  0.53827726  1  0.095727  -0.000109  1.002275  0.0  0.116584  -9.4e-05  1.063906  0.0  0.11788  -0.00011  1.063435  0.0  0.086106  0.115591  -8.8e-05  1.064414  0.0
H  H29  1  0.67041495  0.62544597  0.47536878  1  0.117671  0.000308  0.957119  0.0  0.137577  0.00034  1.020363  0.0  0.139547  0.000359  1.019534  0.0  0.092887  0.136081  0.000337  1.021118  0.0
H  H30  1  0.32951863  0.37461735  0.52459391  1  0.117542  0.000453  0.957417  0.0  0.13747  0.000533  1.020604  0.0  0.139443  0.000549  1.019777  0.0  0.09283  0.13598  0.000525  1.02136  0.0
H  H31  1  0.82832385  0.45487887  0.47658186  1  0.107707  -8e-06  0.974962  0.0  0.129621  -6e-05  1.039062  0.0  0.130575  -2.4e-05  1.03918  0.0  0.092559  0.128873  -5.5e-05  1.039188  0.0
H  H32  1  0.17160914  0.54516878  0.52342257  1  0.107604  -3.4e-05  0.974642  0.0  0.129457  3.1e-05  1.038849  0.0  0.130418  3e-06  1.038962  0.0  0.092412  0.128698  2.7e-05  1.038987  0.0
H  H33  1  0.08742555  0.68869130  0.33222611  1  0.129014  -0.000233  0.952545  0.0  0.14369  -0.000451  1.007507  0.0  0.146076  -0.000338  1.006504  0.0  0.10538  0.141875  -0.000517  1.008391  0.0
H  H34  1  0.91254508  0.31133086  0.66778121  1  0.129089  -0.000277  0.95249  0.0  0.143736  -0.000403  1.007428  0.0  0.146122  -0.000315  1.006423  0.0  0.105434  0.141918  -0.000573  1.008315  0.0
H  H35  1  0.95193493  0.61509619  0.43868781  1  0.131421  -7e-06  0.980117  0.0  0.144861  -0.000138  1.040747  0.0  0.147145  -0.000117  1.039992  0.0  0.108414  0.143102  -0.000148  1.04161  0.0
H  H36  1  0.04809910  0.38482147  0.56131225  1  0.131506  0.00017  0.98006  0.0  0.144898  0.000179  1.040678  0.0  0.147173  0.000174  1.03994  0.0  0.10847  0.143135  0.000174  1.041545  0.0
H  H37  1  0.12600825  0.77231968  0.17826535  1  0.09819  -2e-06  0.970209  0.0  0.121019  -3.7e-05  1.029472  0.0  0.122445  -2.1e-05  1.028947  0.0  0.08646  0.119904  -5.7e-05  1.029925  0.0
H  H38  1  0.87399959  0.22768177  0.82173440  1  0.098231  -3e-06  0.970216  0.0  0.121049  1e-06  1.029501  0.0  0.122472  0.0  1.028974  0.0  0.086466  0.119937  -5e-06  1.029948  0.0
H  H39  1  0.98125925  0.93188840  0.08346305  1  0.1074  1.3e-05  0.972945  0.0  0.127867  5e-06  1.037622  0.0  0.129212  6e-06  1.037216  0.0  0.089896  0.126967  -7e-06  1.037772  0.0
H  H40  1  0.01873956  0.06811857  0.91654718  1  0.107414  -4.3e-05  0.972993  0.0  0.12791  -6.5e-05  1.037617  0.0  0.129253  -5.3e-05  1.03721  0.0  0.089953  0.12701  -6.7e-05  1.037765  0.0
H  H41  1  0.09518910  0.77174085  0.04837665  1  0.114811  -9e-06  0.979534  0.0  0.132181  -1.9e-05  1.044104  0.0  0.134464  -1.5e-05  1.043166  0.0  0.089601  0.130402  -3.7e-05  1.044974  0.0
H  H42  1  0.90480582  0.22827002  0.95161534  1  0.114922  3e-06  0.979627  0.0  0.132349  1.1e-05  1.044088  0.0  0.134631  9e-06  1.043152  0.0  0.089675  0.130567  1.5e-05  1.044963  0.0
H  H43  1  0.83877302  0.91986249  0.94876934  1  0.138417  -5.2e-05  0.946652  0.0  0.153916  2.9e-05  1.000785  0.0  0.155918  -0.0  1.000692  0.0  0.112737  0.152507  6.4e-05  1.000859  0.0
H  H44  1  0.16120826  0.08013464  0.05124061  1  0.13839  7.4e-05  0.946636  0.0  0.153959  -3.8e-05  1.000687  0.0  0.15596  -3e-06  1.000601  0.0  0.11277  0.152549  -7.5e-05  1.000764  0.0
H  H45  1  0.66789901  0.86994909  0.92191085  1  0.147014  -0.000102  0.925102  0.0  0.163808  -7.9e-05  0.973017  0.0  0.16635  -7.9e-05  0.972325  0.0  0.117535  0.161955  -8.1e-05  0.973597  0.0
H  H46  1  0.33209624  0.13005776  0.07810652  1  0.147016  0.000119  0.925003  0.0  0.163789  8.2e-05  0.972953  0.0  0.166323  8.9e-05  0.972277  0.0  0.117541  0.161939  7.4e-05  0.973529  0.0
H  H47  1  0.44877033  0.60218348  0.07986506  1  0.113532  4e-06  0.964632  0.0  0.134907  7e-06  1.022286  0.0  0.136672  5e-06  1.021704  0.0  0.092324  0.133559  8e-06  1.02276  0.0
H  H48  1  0.55122705  0.39782322  0.92011202  1  0.113482  1e-06  0.964771  0.0  0.13485  7e-06  1.022421  0.0  0.136617  5e-06  1.021838  0.0  0.092278  0.133504  1.2e-05  1.022894  0.0
H  H49  1  0.58911885  0.66038301  0.97364049  1  0.119703  8e-06  0.966734  0.0  0.138206  5e-06  1.030567  0.0  0.140459  5e-06  1.029375  0.0  0.092391  0.136476  -1e-06  1.031484  0.0
H  H50  1  0.41087212  0.33962478  0.02634209  1  0.119696  -1.1e-05  0.966874  0.0  0.13815  -5e-06  1.030723  0.0  0.140434  -6e-06  1.029497  0.0  0.092407  0.136422  -1.3e-05  1.031642  0.0
H  H51  1  0.42768078  0.79833561  0.01059033  1  0.110699  8e-06  0.924349  0.0  0.13598  -8e-06  0.977465  0.0  0.13724  -8e-06  0.977476  0.0  0.092798  0.134929  -3.2e-05  0.977603  0.0
H  H52  1  0.57232094  0.20166533  0.98938884  1  0.110676  -1.2e-05  0.924429  0.0  0.135993  -1.3e-05  0.977467  0.0  0.137254  -1.1e-05  0.977481  0.0  0.092798  0.134934  -2.8e-05  0.977616  0.0
C  C53  1  0.62150228  0.60414195  0.24156429  1  0.013211  0.000149  3.74346  0.0  0.019459  -0.000144  3.988626  0.0  0.017071  3.6e-05  4.015018  0.0  -0.023078  0.020898  -0.00025  3.970746  0.0
C  C54  1  0.37851097  0.39585750  0.75842197  1  0.013608  -0.0002  3.743661  0.0  0.019681  -0.000461  3.988926  0.0  0.017298  -0.000328  4.015324  0.0  -0.023075  0.02113  -0.000487  3.971019  0.0
C  C55  1  0.72632764  0.60969997  0.31550341  1  0.055034  -0.0006  3.690938  -0.001  0.066809  -0.000669  3.939237  -0.001  0.067511  -0.00047  3.963428  -0.001  -0.014237  0.066829  -0.000213  3.922373  0.0
C  C56  1  0.27365876  0.39032219  0.68449355  1  0.055167  -0.000532  3.690523  0.0  0.066968  -0.000567  3.938814  0.0  0.067681  -0.000478  3.963005  0.0  -0.014163  0.066997  -0.001003  3.921927  -0.001
C  C57  1  0.85457557  0.68154085  0.27488538  1  0.034555  0.000265  3.710788  0.0  0.041273  -2.7e-05  3.952373  0.0  0.039956  0.00012  3.977098  0.0  -0.014902  0.041932  -0.000233  3.935655  0.0
C  C58  1  0.14540523  0.31846879  0.72512022  1  0.034342  0.000105  3.71092  0.0  0.04104  -0.000121  3.952458  0.0  0.039712  -6.5e-05  3.977194  0.0  -0.014932  0.041704  3.3e-05  3.935726  0.0
C  C59  1  0.88471730  0.74046200  0.16078281  1  0.056955  -0.000243  3.695386  0.0  0.065032  -0.000379  3.947904  0.0  0.06589  -0.000301  3.971853  0.0  -0.014484  0.063989  -0.000763  3.932198  -0.001
C  C60  1  0.11526396  0.25954994  0.83922056  1  0.056951  -0.000223  3.695409  0.0  0.065032  -0.000195  3.948038  0.0  0.065888  -0.000197  3.97199  0.0  -0.014573  0.064  -0.000391  3.932322  0.0
C  C61  1  0.77369569  0.74090079  0.08743025  1  0.022125  0.000612  3.726902  0.001  0.026832  0.000615  3.974469  0.001  0.025086  0.000546  4.000159  0.001  -0.022637  0.027814  0.000654  3.957574  0.001
C  C62  1  0.22629682  0.25911775  0.91257182  1  0.02225  -0.000115  3.72666  0.0  0.026788  -0.000361  3.974436  0.0  0.025055  -0.000203  4.000126  0.0  -0.022545  0.027764  -0.000437  3.957542  0.0
C  C63  1  0.64109987  0.67422008  0.12639476  1  0.045178  2.3e-05  3.70912  0.0  0.051516  -8e-05  3.968089  0.0  0.052156  -0.000103  3.993059  0.0  -0.018839  0.050679  -0.000414  3.951535  0.0
C  C64  1  0.35890016  0.32578629  0.87359357  1  0.045039  -0.000499  3.709297  0.0  0.051518  -0.000455  3.968207  0.0  0.052144  -0.000388  3.993201  0.0  -0.018839  0.050676  -0.000771  3.951647  -0.001
C  C65  1  0.49291007  0.51750268  0.28683368  1  -0.489488  -0.00223  3.741268  -0.002  -0.514888  -0.003017  3.985638  -0.002  -0.523263  -0.002328  3.993107  -0.002  -0.17021  -0.508715  -0.003686  3.980584  -0.003
C  C66  1  0.50706231  0.48250628  0.71315990  1  -0.489801  0.000122  3.741789  0.0  -0.515029  2.1e-05  3.985959  0.0  -0.523414  -2.4e-05  3.993416  0.0  -0.170327  -0.508848  5.3e-05  3.980932  0.0
C  C67  1  0.70680858  0.53882275  0.43850095  1  -0.331452  0.000206  3.719988  0.0  -0.414994  7.6e-05  3.959689  0.0  -0.416927  0.000154  3.968732  0.0  -0.251233  -0.413435  -3.2e-05  3.953492  0.0
C  C68  1  0.29314230  0.46121824  0.56148731  1  -0.331349  -2.2e-05  3.719652  0.0  -0.414847  -5.2e-05  3.959237  0.0  -0.416787  -4.7e-05  3.968277  0.0  -0.251105  -0.413291  -2e-05  3.953054  0.0
C  C69  1  0.95279861  0.69995110  0.35521341  1  -0.475112  -0.001911  3.713572  -0.002  -0.497224  -0.002382  3.948218  -0.002  -0.506192  -0.001928  3.956489  -0.001  -0.163321  -0.490633  -0.002832  3.942657  -0.002
C  C70  1  0.04719045  0.30002639  0.64481149  1  -0.475242  -0.001064  3.714003  -0.001  -0.497218  -0.000932  3.948627  -0.001  -0.506182  -0.000719  3.95689  -0.001  -0.163317  -0.490612  -0.001043  3.943082  -0.001
C  C71  1  0.02956249  0.80683423  0.11527011  1  -0.335084  -2.6e-05  3.74004  0.0  -0.418463  -6.1e-05  3.985913  0.0  -0.420843  -3.7e-05  3.994948  0.0  -0.252242  -0.416447  -8.9e-05  3.979797  0.0
C  C72  1  0.97043315  0.19316732  0.88473362  1  -0.33529  1.5e-05  3.740376  0.0  -0.418686  -7e-06  3.98619  0.0  -0.421063  -4e-06  3.995221  0.0  -0.252378  -0.41667  -3e-06  3.980073  0.0
C  C73  1  0.79193293  0.82280801  0.96496875  1  -0.480436  0.001007  3.72246  0.001  -0.499505  0.001258  3.961669  0.001  -0.508395  0.000981  3.970247  0.001  -0.16115  -0.493184  0.001537  3.955824  0.001
C  C74  1  0.20805909  0.17719352  0.03503831  1  -0.480387  -0.001093  3.721797  -0.001  -0.499453  -0.0013  3.96108  -0.001  -0.508358  -0.001  3.969703  -0.001  -0.16121  -0.493129  -0.001591  3.955232  -0.001
C  C75  1  0.52123810  0.68338229  0.04445350  1  -0.327468  -3.5e-05  3.712488  0.0  -0.407596  -1.9e-05  3.956801  0.0  -0.410087  -1.7e-05  3.965866  0.0  -0.247497  -0.405468  -2.9e-05  3.950673  0.0
C  C76  1  0.47876620  0.31661842  0.95553311  1  -0.327481  2.8e-05  3.712906  0.0  -0.407583  8e-06  3.957141  0.0  -0.410097  9e-06  3.966186  0.0  -0.247517  -0.405458  2e-06  3.951021  0.0
O  O77  1  0.46001619  0.23076334  0.36739656  1  -0.879096  -0.030667  2.002411  -0.018  -0.788271  -0.039354  2.273657  -0.023  -0.817941  -0.035453  2.25058  -0.02  -0.354161  -0.766434  -0.043024  2.289263  -0.026
O  O78  1  0.53983961  0.76925887  0.63259646  1  -0.879277  -0.028466  2.002628  -0.014  -0.788815  -0.035926  2.274496  -0.018  -0.818477  -0.033124  2.251318  -0.016  -0.354366  -0.766898  -0.03843  2.290063  -0.02
O  O79  1  0.29528973  0.95908870  0.42703326  1  -0.831708  -0.048936  1.948257  -0.025  -0.767783  -0.067076  2.183367  -0.037  -0.791746  -0.061385  2.147283  -0.034  -0.519477  -0.74961  -0.072042  2.208942  -0.041
O  O80  1  0.70494547  0.04049178  0.57289500  1  -0.833723  -0.006584  1.947682  -0.004  -0.769495  -0.008017  2.182122  -0.004  -0.793614  -0.007311  2.146074  -0.004  -0.519691  -0.751123  -0.008494  2.207718  -0.005
O  O81  1  0.12673876  0.33805682  0.35054888  1  -0.837889  -0.035087  1.838793  -0.023  -0.774172  -0.044063  2.047018  -0.027  -0.799214  -0.039118  2.014502  -0.023  -0.563444  -0.755194  -0.048856  2.069809  -0.032
O  O82  1  0.87322828  0.66210472  0.64938102  1  -0.837767  0.035247  1.838191  0.022  -0.773699  0.043911  2.046918  0.027  -0.798791  0.03922  2.014393  0.023  -0.563463  -0.754684  0.048441  2.069315  0.031
O  O83  1  0.62429439  0.31115749  0.19187751  1  -0.730127  0.000117  2.027986  0.0  -0.655468  -0.000291  2.254622  -0.001  -0.676666  -3e-05  2.229855  -0.001  -0.37355  -0.640368  -0.000542  2.271643  -0.001
O  O84  1  0.37585009  0.68872397  0.80823411  1  -0.730226  -1.2e-05  2.028261  0.0  -0.655536  -0.000159  2.254511  0.0  -0.676805  -0.000147  2.229708  0.0  -0.373592  -0.640445  -0.000178  2.271541  0.0
O  O85  1  0.75393844  0.25001844  0.38133241  1  -0.902814  -0.039449  2.01627  -0.022  -0.804406  -0.047773  2.298912  -0.026  -0.836381  -0.043066  2.275457  -0.022  -0.360444  -0.780342  -0.052112  2.314552  -0.03
O  O86  1  0.24580610  0.74993297  0.61890989  1  -0.902999  0.039916  2.01614  0.022  -0.804464  0.047819  2.298601  0.026  -0.836574  0.043426  2.275194  0.022  -0.360376  -0.780346  0.05177  2.31424  0.029
O  O87  1  0.67566413  0.89731341  0.40686106  1  -0.879059  -0.038113  1.989284  -0.022  -0.793057  -0.043965  2.275951  -0.023  -0.824421  -0.039716  2.253868  -0.02  -0.368272  -0.76914  -0.048117  2.290426  -0.027
O  O88  1  0.32435139  0.10280325  0.59316440  1  -0.879451  -0.037708  1.990418  -0.021  -0.793029  -0.043297  2.276977  -0.022  -0.8244  -0.039265  2.254834  -0.019  -0.368191  -0.769128  -0.047081  2.291536  -0.026
O  O89  1  0.85720823  0.00363534  0.24279738  1  -0.732199  0.001468  2.036973  0.001  -0.661589  0.001549  2.258233  0.001  -0.682502  0.001424  2.234866  0.001  -0.382535  -0.6469  0.001656  2.274688  0.001
O  O90  1  0.14297345  0.99626443  0.75723243  1  -0.731857  -0.00195  2.037527  -0.002  -0.661528  -0.002637  2.258083  -0.003  -0.682456  -0.002118  2.23471  -0.002  -0.382494  -0.646844  -0.003188  2.274543  -0.003
O  O91  1  0.97195031  0.91129482  0.43594633  1  -0.932527  0.017548  2.022826  0.011  -0.835637  0.016183  2.323911  0.007  -0.869096  0.014735  2.298461  0.005  -0.366363  -0.809935  0.017528  2.340547  0.008
O  O92  1  0.02810208  0.08873486  0.56406512  1  -0.932202  -0.017104  2.022717  -0.011  -0.835523  -0.0168  2.324195  -0.009  -0.868904  -0.014697  2.298636  -0.006  -0.366291  -0.809941  -0.018842  2.340991  -0.011
O  O93  1  0.85453740  0.59962898  0.87868332  1  -0.761647  -0.000494  2.015598  0.0  -0.683328  -0.00044  2.240212  0.0  -0.704964  -0.000484  2.215448  0.0  -0.37455  -0.668092  -0.000352  2.257085  0.0
O  O94  1  0.14545694  0.40045365  0.12127645  1  -0.761369  0.000548  2.015531  0.0  -0.682974  0.000463  2.240067  0.0  -0.704602  0.00053  2.215288  0.0  -0.374244  -0.667735  0.000351  2.256967  0.0
O  O95  1  0.11468658  0.63281491  0.94221536  1  -0.839407  0.000442  1.96327  0.001  -0.750864  0.000811  2.192803  0.001  -0.777782  0.000553  2.175635  0.001  -0.353293  -0.732088  0.001052  2.204566  0.001
O  O96  1  0.88528307  0.36720574  0.05776292  1  -0.839568  -0.000525  1.962918  -0.001  -0.751064  -0.000969  2.192511  -0.001  -0.777864  -0.000668  2.175298  -0.001  -0.353288  -0.73227  -0.001276  2.20426  -0.002
O  O97  1  0.94114009  0.83568266  0.77167043  1  -0.894219  0.036471  2.056618  0.02  -0.800336  0.042505  2.337851  0.022  -0.831468  0.038945  2.314203  0.019  -0.366769  -0.777045  0.045679  2.353551  0.025
O  O98  1  0.05876860  0.16447318  0.22834688  1  -0.894344  -0.036392  2.056208  -0.02  -0.800442  -0.042723  2.337698  -0.022  -0.831435  -0.03895  2.313947  -0.019  -0.366787  -0.777226  -0.046154  2.353424  -0.025
