# generated using pymatgen
data_ZnH41C40N3O5F6
_symmetry_space_group_name_H-M   'P 1'
_cell_length_a   11.79435724
_cell_length_b   13.81076250
_cell_length_c   16.78807787
_cell_angle_alpha   95.50674433
_cell_angle_beta   110.56927356
_cell_angle_gamma   115.28990520
_symmetry_Int_Tables_number   1
_chemical_formula_structural   ZnH41C40N3O5F6
_chemical_formula_sum   'Zn2 H82 C80 N6 O10 F12'
_cell_volume   2214.93108098
_cell_formula_units_Z   2
loop_
 _symmetry_equiv_pos_site_id
 _symmetry_equiv_pos_as_xyz
  1  'x, y, z'
loop_
 _atom_site_type_symbol
 _atom_site_label
 _atom_site_symmetry_multiplicity
 _atom_site_fract_x
 _atom_site_fract_y
 _atom_site_fract_z
 _atom_site_occupancy
 _atom_site_pbe_bader_charge
 _atom_site_pbe_bader_spin_density
 _atom_site_pbe_cm5_charge
 _atom_site_pbe_ddec_charge
 _atom_site_pbe_ddec_spin_density
 _atom_site_pbe_ddec_sum_bond_order
 _atom_site_pbe_magmom
Zn  Zn0  1  0.89665394  0.50007997  0.50003646  1  1.329727  0  0.682703  0.792761  0  2.42858  0
Zn  Zn1  1  0.79891062  0.99997386  0.99999247  1  1.337588  0  0.68089  0.80081  0  2.39928  0
H  H2  1  0.05284760  0.00719247  0.61363616  1  0.630264  0  0.277364  0.280079  0  1.095742  0
H  H3  1  0.43200111  0.99272340  0.38630026  1  0.60351  0  0.277556  0.281047  0  1.093905  0
H  H4  1  0.09232866  0.57981334  0.82484816  1  0.020608  0  0.085406  0.086337  0  0.989063  0
H  H5  1  0.68765413  0.42007452  0.17514275  1  0.009373  0  0.085471  0.085875  0  0.987989  0
H  H6  1  0.16885233  0.51367351  0.89214157  1  0.044634  0  0.087169  0.092555  0  1.012857  0
H  H7  1  0.76307409  0.48628374  0.10789326  1  0.047544  0  0.087033  0.091571  0  1.013366  0
H  H8  1  0.38901046  0.63476612  0.89861483  1  0.037122  0  0.081071  0.082449  0  1.028621  0
H  H9  1  0.85575756  0.36529322  0.10145383  1  0.047308  0  0.081277  0.083206  0  1.028388  0
H  H10  1  0.31823075  0.70502972  0.83288194  1  0.021649  0  0.085673  0.091337  0  0.998435  0
H  H11  1  0.78044897  0.29499623  0.16718463  1  0.048362  0  0.085836  0.092088  0  0.998876  0
H  H12  1  0.40455167  0.58696123  0.75513767  1  0.057977  0  0.089556  0.078893  0  0.983438  0
H  H13  1  0.06264610  0.41321303  0.24495318  1  0.036143  0  0.089646  0.079206  0  0.983705  0
H  H14  1  0.28967265  0.35913622  0.67055808  1  0.002049  0  0.083415  0.118361  0  1.006797  0
H  H15  1  0.26009837  0.64101717  0.32944953  1  -0.000919  0  0.083499  0.118354  0  1.007315  0
H  H16  1  0.13475937  0.36177187  0.60753466  1  0.053149  0  0.081196  0.120991  0  1.041105  0
H  H17  1  0.16557170  0.63833182  0.39247121  1  0.057296  0  0.081018  0.120924  0  1.041297  0
H  H18  1  0.13067926  0.26396403  0.67024549  1  0.027821  0  0.081102  0.113107  0  1.037186  0
H  H19  1  0.19655161  0.73613546  0.32974486  1  -0.008666  0  0.081032  0.11289  0  1.037606  0
H  H20  1  0.39141898  0.40908507  0.83693925  1  0.039028  0  0.083023  0.116774  0  1.020865  0
H  H21  1  0.14533668  0.59101372  0.16298779  1  0.039095  0  0.083005  0.116867  0  1.020462  0
H  H22  1  0.22659698  0.31884785  0.83195937  1  0.025303  0  0.083375  0.116098  0  1.011061  0
H  H23  1  0.07567927  0.68118230  0.16799030  1  0.015436  0  0.083609  0.116504  0  1.010404  0
H  H24  1  0.32267508  0.46033561  0.89773726  1  0.041202  0  0.083433  0.118364  0  1.035911  0
H  H25  1  0.96447831  0.53967027  0.10226591  1  0.040905  0  0.083422  0.118355  0  1.035772  0
H  H26  1  0.99599604  0.30130230  0.79785023  1  0.028254  0  0.07976  0.114684  0  1.052003  0
H  H27  1  0.89668662  0.69860145  0.20215604  1  0.056654  0  0.079897  0.114727  0  1.051112  0
H  H28  1  0.92269242  0.27005494  0.67976709  1  0.018698  0  0.083142  0.115384  0  1.028471  0
H  H29  1  0.97274779  0.72985751  0.32023605  1  0.024153  0  0.083103  0.115147  0  1.028193  0
H  H30  1  0.88638070  0.35359299  0.74230757  1  0.0082  0  0.087652  0.123333  0  1.013868  0
H  H31  1  0.79032015  0.64620003  0.25769594  1  0.046358  0  0.087662  0.123676  0  1.014398  0
H  H32  1  0.87076737  0.02215259  0.28898309  1  0.052181  0  0.080851  0.085198  0  1.020313  0
H  H33  1  0.55950625  0.97773741  0.71100768  1  0.034897  0  0.080955  0.085311  0  1.019333  0
H  H34  1  0.77029682  0.98192416  0.34892996  1  0.034894  0  0.083065  0.083383  0  1.016397  0
H  H35  1  0.43934916  0.01797985  0.65102587  1  0.039446  0  0.082864  0.083427  0  1.016679  0
H  H36  1  0.84635818  0.83976065  0.25985689  1  0.035443  0  0.084045  0.087154  0  1.021105  0
H  H37  1  0.74676070  0.16015401  0.74014760  1  0.034716  0  0.083674  0.086604  0  1.020778  0
H  H38  1  0.74505977  0.79999287  0.31949900  1  -0.003524  0  0.080808  0.075557  0  1.015254  0
H  H39  1  0.62558940  0.19992061  0.68049721  1  0.003282  0  0.080792  0.075055  0  1.015153  0
H  H40  1  0.57325790  0.68206130  0.16216096  1  0.011287  0  0.089887  0.079536  0  0.99783  0
H  H41  1  0.72906611  0.31781927  0.83780973  1  0.036725  0  0.089931  0.080179  0  0.997352  0
H  H42  1  0.33797209  0.82413503  0.11408194  1  0.002044  0  0.085256  0.118117  0  1.006733  0
H  H43  1  0.39967081  0.17576643  0.88581706  1  0.001847  0  0.085091  0.118038  0  1.005809  0
H  H44  1  0.32696849  0.69216140  0.08703066  1  0.01451  0  0.086148  0.122343  0  0.998561  0
H  H45  1  0.54775914  0.30775054  0.91286240  1  0.027259  0  0.086265  0.122262  0  0.998966  0
H  H46  1  0.41520304  0.80002384  0.04602027  1  0.028305  0  0.087596  0.125628  0  1.014985  0
H  H47  1  0.56911750  0.19990941  0.95387993  1  0.026859  0  0.087817  0.126305  0  1.014633  0
H  H48  1  0.58278998  0.83053695  0.32940539  1  0.028571  0  0.080035  0.105994  0  1.051128  0
H  H49  1  0.42285955  0.16951700  0.67052736  1  0.017992  0  0.080157  0.106406  0  1.051277  0
H  H50  1  0.42474137  0.71079613  0.25208787  1  0.047086  0  0.084966  0.115056  0  1.00956  0
H  H51  1  0.46201836  0.28923474  0.74790290  1  0.023995  0  0.085437  0.115417  0  1.009626  0
H  H52  1  0.43340951  0.84261677  0.27304970  1  0.01999  0  0.087953  0.129629  0  1.00865  0
H  H53  1  0.31773324  0.15744195  0.72685869  1  0.033232  0  0.088379  0.130386  0  1.008192  0
H  H54  1  0.59033738  0.04518850  0.27867733  1  0.018913  0  0.082007  0.113504  0  1.030577  0
H  H55  1  0.26630798  0.95485759  0.72124493  1  0.036772  0  0.082131  0.113874  0  1.0301  0
H  H56  1  0.52066989  0.02701811  0.16193148  1  0.033377  0  0.087071  0.121313  0  0.999605  0
H  H57  1  0.33152752  0.97300313  0.83797941  1  0.011336  0  0.087286  0.121113  0  0.999382  0
H  H58  1  0.70003976  0.12055952  0.22999371  1  0.054805  0  0.083202  0.118583  0  1.032738  0
H  H59  1  0.34912718  0.87937271  0.76991853  1  0.03111  0  0.083325  0.118796  0  1.032757  0
H  H60  1  0.99185236  0.65440765  0.67639823  1  0.107603  0  0.119887  0.091902  0  1.007832  0
H  H61  1  0.66148565  0.34568611  0.32363905  1  0.136811  0  0.120207  0.092778  0  1.007178  0
H  H62  1  0.00440073  0.83297440  0.73757393  1  0.094624  0  0.11545  0.127611  0  0.981856  0
H  H63  1  0.43427420  0.16703201  0.26240825  1  0.097544  0  0.11559  0.12748  0  0.981697  0
H  H64  1  0.74604243  0.80314000  0.46923190  1  0.081647  0  0.106647  0.113515  0  1.025603  0
H  H65  1  0.47383415  0.19695247  0.53068317  1  0.085501  0  0.106572  0.112995  0  1.025922  0
H  H66  1  0.74775781  0.62747576  0.41968426  1  0.150078  0  0.121737  0.096609  0  0.997112  0
H  H67  1  0.70072993  0.37275680  0.58028637  1  0.157577  0  0.121603  0.096849  0  0.995814  0
H  H68  1  0.70341777  0.78592840  0.69330442  1  0.059528  0  0.103981  0.110694  0  1.018626  0
H  H69  1  0.22413732  0.21404776  0.30679555  1  0.061121  0  0.104081  0.111367  0  1.017437  0
H  H70  1  0.68796389  0.81337383  0.83726245  1  0.139943  0  0.119656  0.102651  0  1.005846  0
H  H71  1  0.03711962  0.18653029  0.16289183  1  0.147689  0  0.119912  0.103372  0  1.005814  0
H  H72  1  0.02488865  0.13373690  0.93815635  1  0.129209  0  0.114317  0.086976  0  1.012892  0
H  H73  1  0.95303949  0.86634083  0.06191951  1  0.102001  0  0.114216  0.086809  0  1.012943  0
H  H74  1  0.05432935  0.12147340  0.79688388  1  0.114948  0  0.111862  0.127636  0  1.010831  0
H  H75  1  0.13585959  0.87854995  0.20322756  1  0.118417  0  0.112012  0.127642  0  1.010686  0
H  H76  1  0.60052804  0.81257657  0.56692268  1  0.081056  0  0.102776  0.107485  0  1.036478  0
H  H77  1  0.22119767  0.18745981  0.43315054  1  0.07683  0  0.102603  0.107081  0  1.036324  0
H  H78  1  0.42848535  0.85178205  0.46292651  1  0.088908  0  0.115316  0.085794  0  1.012207  0
H  H79  1  0.11375915  0.14812353  0.53702878  1  0.081029  0  0.115352  0.086041  0  1.011436  0
H  H80  1  0.73745825  0.15256902  0.47031570  1  0.109882  0  0.118672  0.093739  0  0.984586  0
H  H81  1  0.11446945  0.84735689  0.52960511  1  0.123657  0  0.118692  0.093717  0  0.985228  0
H  H82  1  0.92456066  0.12407738  0.57453428  1  0.125288  0  0.109078  0.116294  0  1.038721  0
H  H83  1  0.22616121  0.87602882  0.42557053  1  0.086401  0  0.109303  0.11666  0  1.038459  0
C  C84  1  0.20666686  0.62290159  0.61314124  1  0.777574  0  0.09033  0.156123  0  4.162146  0
C  C85  1  0.97069819  0.37715424  0.38691019  1  0.758767  0  0.090155  0.155387  0  4.161773  0
C  C86  1  0.19298189  0.56166591  0.67358035  1  -0.01815  0  -0.069362  -0.227639  0  4.01879  0
C  C87  1  0.95790789  0.43845697  0.32650594  1  -0.000617  0  -0.068617  -0.226886  0  4.02036  0
C  C88  1  0.06234920  0.48768604  0.67224487  1  0.775252  0  0.136388  0.354184  0  3.953944  0
C  C89  1  0.90251155  0.51234395  0.32780241  1  0.797272  0  0.136058  0.354279  0  3.957418  0
C  C90  1  0.35409722  0.70198438  0.62347972  1  1.649874  0  0.299872  0.630688  0  3.96412  0
C  C91  1  0.02864561  0.29806424  0.37647418  1  1.658262  0  0.299892  0.631788  0  3.960516  0
C  C92  1  0.09271470  0.43950888  0.74969418  1  0.016828  0  -0.018946  0.050679  0  3.768672  0
C  C93  1  0.90353376  0.56048738  0.25034037  1  -0.008682  0  -0.018822  0.049745  0  3.770029  0
C  C94  1  0.15941161  0.54205286  0.83242845  1  -0.04688  0  -0.160519  -0.196093  0  3.85294  0
C  C95  1  0.78497018  0.45790258  0.16759764  1  -0.027402  0  -0.160351  -0.19296  0  3.849567  0
C  C96  1  0.30363477  0.62197556  0.83679352  1  -0.03024  0  -0.169801  -0.180451  0  3.887055  0
C  C97  1  0.84499194  0.37805580  0.16326895  1  -0.074206  0  -0.170362  -0.183286  0  3.889073  0
C  C98  1  0.30198939  0.55859833  0.75429606  1  0.016299  0  -0.08765  -0.05731  0  3.831623  0
C  C99  1  0.98924652  0.44152037  0.24577599  1  0.033697  0  -0.088244  -0.058006  0  3.831818  0
C  C100  1  0.22378977  0.43344074  0.75271889  1  0.031912  0  -0.010029  0.178264  0  3.718998  0
C  C101  1  0.03770294  0.56663726  0.24731280  1  0.052847  0  -0.009996  0.178311  0  3.720826  0
C  C102  1  0.19210729  0.35027884  0.66996124  1  -0.086157  0  -0.249544  -0.421536  0  3.913686  0
C  C103  1  0.17197306  0.64984291  0.33005231  1  -0.063494  0  -0.249207  -0.420987  0  3.914806  0
C  C104  1  0.29525872  0.40493134  0.83483834  1  -0.084675  0  -0.245317  -0.405273  0  3.906327  0
C  C105  1  0.05544300  0.59513590  0.16513222  1  -0.077709  0  -0.245573  -0.405861  0  3.904804  0
C  C106  1  0.96811838  0.33516245  0.74218451  1  -0.021729  0  -0.249637  -0.402636  0  3.960771  0
C  C107  1  0.89062591  0.66471528  0.25781759  1  -0.093373  0  -0.249816  -0.402797  0  3.962355  0
C  C108  1  0.67495630  0.77843835  0.03552953  1  0.70669  0  0.085602  0.136813  0  4.17938  0
C  C109  1  0.86095013  0.22147250  0.96447894  1  0.731872  0  0.086186  0.138461  0  4.176417  0
C  C110  1  0.65975264  0.82183157  0.10673648  1  0.01903  0  -0.065576  -0.212827  0  3.990805  0
C  C111  1  0.73111074  0.17804853  0.89327084  1  -0.011542  0  -0.066312  -0.214952  0  3.99193  0
C  C112  1  0.67859294  0.93340996  0.12785861  1  0.848269  0  0.142145  0.358646  0  3.923185  0
C  C113  1  0.61717042  0.06645889  0.87210665  1  0.839348  0  0.142788  0.358907  0  3.922161  0
C  C114  1  0.65958857  0.66078257  0.01555072  1  1.652692  0  0.298166  0.624476  0  3.983968  0
C  C115  1  0.98313260  0.33920592  0.98441846  1  1.659527  0  0.299116  0.625597  0  3.98028  0
C  C116  1  0.64407969  0.94629474  0.20673043  1  0.018489  0  -0.016665  0.04995  0  3.753409  0
C  C117  1  0.49093989  0.05361824  0.79320855  1  0.021127  0  -0.016938  0.05065  0  3.753604  0
C  C118  1  0.77299496  0.95694265  0.28572251  1  -0.077768  0  -0.165382  -0.194815  0  3.8543  0
C  C119  1  0.53020928  0.04293883  0.71423914  1  -0.055237  0  -0.16554  -0.195808  0  3.853377  0
C  C120  1  0.75670183  0.83857188  0.26648315  1  -0.016942  0  -0.171238  -0.181893  0  3.898953  0
C  C121  1  0.65164382  0.16132542  0.73351179  1  -0.028294  0  -0.170235  -0.179171  0  3.895135  0
C  C122  1  0.62222063  0.77311287  0.17718811  1  0.0312  0  -0.090149  -0.064191  0  3.845001  0
C  C123  1  0.67192259  0.22677754  0.82278411  1  0.011982  0  -0.090783  -0.065573  0  3.844132  0
C  C124  1  0.53005652  0.82284177  0.18822503  1  0.044624  0  -0.011569  0.171907  0  3.734811  0
C  C125  1  0.51894389  0.17708040  0.81168871  1  0.034595  0  -0.011264  0.172212  0  3.73397  0
C  C126  1  0.39562590  0.78292232  0.10383328  1  -0.052644  0  -0.244147  -0.413398  0  3.92077  0
C  C127  1  0.50882059  0.21699255  0.89606992  1  -0.050179  0  -0.244607  -0.414402  0  3.920495  0
C  C128  1  0.49194819  0.80111233  0.26541780  1  -0.09072  0  -0.244734  -0.40654  0  3.907118  0
C  C129  1  0.42544913  0.19889793  0.73451620  1  -0.085621  0  -0.24582  -0.408271  0  3.908527  0
C  C130  1  0.61178945  0.03989656  0.22024291  1  -0.080538  0  -0.245711  -0.395372  0  3.950168  0
C  C131  1  0.35144176  0.96008928  0.77967053  1  -0.052776  0  -0.24585  -0.395512  0  3.950976  0
C  C132  1  0.93822285  0.69046208  0.63331841  1  0.520015  0  0.049252  0.097707  0  3.944253  0
C  C133  1  0.61484437  0.30959142  0.36669590  1  0.497432  0  0.049239  0.096079  0  3.944376  0
C  C134  1  0.94433995  0.78927188  0.66669779  1  -0.045362  0  -0.078691  -0.160573  0  3.949799  0
C  C135  1  0.48876315  0.21073053  0.33329120  1  -0.126185  0  -0.078948  -0.159585  0  3.948668  0
C  C136  1  0.87393412  0.83218431  0.60831848  1  -0.050493  0  0.009668  0.066242  0  3.925547  0
C  C137  1  0.43369503  0.16784659  0.39164589  1  0.087109  0  0.009463  0.0663  0  3.923925  0
C  C138  1  0.80101307  0.77311828  0.51803466  1  -0.011495  0  -0.086139  -0.174909  0  3.967884  0
C  C139  1  0.51013922  0.22697742  0.48192139  1  -0.047256  0  -0.08632  -0.175279  0  3.969445  0
C  C140  1  0.80025943  0.67465567  0.48974344  1  0.468585  0  0.052342  0.10149  0  3.938107  0
C  C141  1  0.63609589  0.32551016  0.51023315  1  0.411511  0  0.052241  0.101174  0  3.939752  0
C  C142  1  0.89144092  0.94625347  0.64461989  1  0.553057  0  0.088581  0.211164  0  3.868788  0
C  C143  1  0.30071896  0.05379086  0.35543631  1  0.534461  0  0.088677  0.210671  0  3.86984  0
C  C144  1  0.87902249  0.95403614  0.73260219  1  -0.129744  0  0.010138  0.080301  0  3.905887  0
C  C145  1  0.19239558  0.04599498  0.26752862  1  -0.019201  0  0.01038  0.080033  0  3.906795  0
C  C146  1  0.77612567  0.86575767  0.74477454  1  0.009417  0  -0.089968  -0.186572  0  3.979313  0
C  C147  1  0.16549163  0.13419274  0.25534736  1  -0.002024  0  -0.090991  -0.188724  0  3.98088  0
C  C148  1  0.76691497  0.87935434  0.82496139  1  0.497483  0  0.04912  0.104937  0  3.929929  0
C  C149  1  0.06239424  0.12055695  0.17517701  1  0.441795  0  0.049121  0.104196  0  3.92963  0
C  C150  1  0.95555397  0.05853403  0.88167933  1  0.447988  0  0.046996  0.094072  0  3.958344  0
C  C151  1  0.01529935  0.94149445  0.11843550  1  0.525345  0  0.046296  0.092202  0  3.958089  0
C  C152  1  0.97126586  0.05197127  0.80329404  1  0.075201  0  -0.084237  -0.16077  0  3.931349  0
C  C153  1  0.11590567  0.94805595  0.19683097  1  -0.058233  0  -0.083813  -0.158983  0  3.93094  0
C  C154  1  0.77897812  0.96618583  0.57992818  1  -0.033919  0  0.009011  0.07235  0  3.896004  0
C  C155  1  0.23311505  0.03391388  0.42018679  1  -0.018476  0  0.009279  0.072705  0  3.89495  0
C  C156  1  0.63694017  0.88947727  0.54804115  1  -0.028645  0  -0.08752  -0.176109  0  3.974575  0
C  C157  1  0.19958447  0.11056012  0.45202869  1  -0.037449  0  -0.087092  -0.17475  0  3.973926  0
C  C158  1  0.53959505  0.91114641  0.48969531  1  0.491926  0  0.04858  0.097697  0  3.955531  0
C  C159  1  0.13881250  0.08881488  0.51030761  1  0.515699  0  0.048188  0.09641  0  3.957976  0
C  C160  1  0.71082568  0.07791311  0.49323417  1  0.499287  0  0.053193  0.098766  0  3.950913  0
C  C161  1  0.13972977  0.92207230  0.50677156  1  0.481376  0  0.052278  0.097769  0  3.951659  0
C  C162  1  0.81547342  0.06220172  0.55146489  1  -0.042846  0  -0.082394  -0.162809  0  3.939506  0
C  C163  1  0.20200688  0.93787519  0.44863050  1  -0.033014  0  -0.082244  -0.162842  0  3.941036  0
N  N164  1  0.86714298  0.63369975  0.54627430  1  -1.262429  0  -0.320495  -0.229403  0  3.536209  0
N  N165  1  0.68745149  0.36644335  0.45371978  1  -1.227363  0  -0.320343  -0.22815  0  3.538292  0
N  N166  1  0.85448549  0.97457344  0.89232032  1  -1.255587  0  -0.319421  -0.233641  0  3.518545  0
N  N167  1  0.98749674  0.02540957  0.10777816  1  -1.23336  0  -0.319431  -0.232108  0  3.516156  0
N  N168  1  0.57480870  0.00359572  0.46244054  1  -1.254456  0  -0.310552  -0.242609  0  3.435821  0
N  N169  1  0.10873919  0.99633177  0.53751603  1  -1.24433  0  -0.310173  -0.241528  0  3.435084  0
O  O170  1  0.10987317  0.62101974  0.54631062  1  -1.124443  0  -0.309392  -0.448675  0  2.36773  0
O  O171  1  0.94260069  0.37895597  0.45372281  1  -1.121043  0  -0.309513  -0.448457  0  2.365615  0
O  O172  1  0.94021907  0.46550149  0.62175391  1  -1.166257  0  -0.291394  -0.460043  0  2.366049  0
O  O173  1  0.85304800  0.53450952  0.37829510  1  -1.165248  0  -0.29127  -0.460138  0  2.366965  0
O  O174  1  0.70741056  0.82810345  0.97967087  1  -1.140022  0  -0.312465  -0.463665  0  2.429039  0
O  O175  1  0.89971880  0.17183383  0.02032026  1  -1.139151  0  -0.312455  -0.464394  0  2.428572  0
O  O176  1  0.72093424  0.01160657  0.09459790  1  -1.135965  0  -0.277936  -0.42006  0  2.29542  0
O  O177  1  0.61454994  0.98825727  0.90537588  1  -1.130063  0  -0.278236  -0.420017  0  2.293786  0
O  O178  1  0.02731339  0.02933287  0.66206201  1  -1.149601  0  -0.3864  -0.516684  0  2.311219  0
O  O179  1  0.33589345  0.97065729  0.33789741  1  -1.116453  0  -0.386487  -0.517286  0  2.311148  0
F  F180  1  0.40838075  0.64426379  0.59264211  1  -0.62291  0  -0.118197  -0.225225  0  1.244823  0
F  F181  1  0.17151499  0.35573177  0.40730589  1  -0.632156  0  -0.117917  -0.22523  0  1.241976  0
F  F182  1  0.44762879  0.76263134  0.70959352  1  -0.629616  0  -0.084125  -0.19709  0  1.359259  0
F  F183  1  0.97533028  0.23753673  0.29030911  1  -0.628332  0  -0.084111  -0.19744  0  1.359394  0
F  F184  1  0.35393536  0.77690998  0.57641965  1  -0.625334  0  -0.092344  -0.202049  0  1.363282  0
F  F185  1  0.00051862  0.22300506  0.42341644  1  -0.631026  0  -0.092745  -0.202815  0  1.362622  0
F  F186  1  0.78915897  0.66870660  0.04946488  1  -0.622773  0  -0.103826  -0.218393  0  1.312739  0
F  F187  1  0.07087218  0.33141518  0.95045999  1  -0.625922  0  -0.104254  -0.218985  0  1.312042  0
F  F188  1  0.60157604  0.61195218  0.92643631  1  -0.627554  0  -0.098043  -0.201773  0  1.346648  0
F  F189  1  0.06315906  0.38808082  0.07352017  1  -0.629588  0  -0.09832  -0.201897  0  1.34626  0
F  F190  1  0.58249451  0.58639505  0.04882565  1  -0.634171  0  -0.095747  -0.202726  0  1.317923  0
F  F191  1  0.94700029  0.41351651  0.95114016  1  -0.63111  0  -0.095989  -0.203121  0  1.316443  0
