# generated using pymatgen
data_Zn2H14C28N5ClO14
_symmetry_space_group_name_H-M   'P 1'
_cell_length_a   9.74994895
_cell_length_b   11.16061131
_cell_length_c   13.44757948
_cell_angle_alpha   87.76870514
_cell_angle_beta   84.74377313
_cell_angle_gamma   95.70211145
_symmetry_Int_Tables_number   1
_chemical_formula_structural   Zn2H14C28N5ClO14
_chemical_formula_sum   'Zn2 H14 C28 N5 Cl1 O14'
_cell_volume   1448.23548526
_cell_formula_units_Z   1
loop_
 _symmetry_equiv_pos_site_id
 _symmetry_equiv_pos_as_xyz
  1  'x, y, z'
loop_
 _atom_site_type_symbol
 _atom_site_label
 _atom_site_symmetry_multiplicity
 _atom_site_fract_x
 _atom_site_fract_y
 _atom_site_fract_z
 _atom_site_occupancy
 _atom_site_pbe_bader_charge
 _atom_site_pbe_bader_spin_density
 _atom_site_pbe_cm5_charge
 _atom_site_pbe_ddec_charge
 _atom_site_pbe_ddec_spin_density
 _atom_site_pbe_ddec_sum_bond_order
 _atom_site_pbe_magmom
Zn  Zn0  1  0.13412636  0.52377987  0.53501080  1  1.295718  0  0.678216  0.872269  0  2.396722  0
Zn  Zn1  1  0.86066404  0.50238233  0.48053215  1  1.299668  0  0.677017  0.837782  0  2.384612  0
H  H2  1  0.77514676  0.50244078  0.16364851  1  0.130739  0  0.120898  0.137972  0  0.987539  0
H  H3  1  0.31414376  0.50684725  0.24072108  1  0.088785  0  0.107385  0.10907  0  1.045227  0
H  H4  1  0.96123987  0.68234546  0.17800422  1  0.093496  0  0.106024  0.110903  0  0.999589  0
H  H5  1  0.28070139  0.77274865  0.88579272  1  0.07268  0  0.112751  0.116236  0  0.974477  0
H  H6  1  0.95429172  0.47458161  0.03498299  1  0.072334  0  0.110992  0.115965  0  0.990188  0
H  H7  1  0.04651593  0.48293270  0.85432628  1  0.108594  0  0.117302  0.127651  0  0.975652  0
H  H8  1  0.50466605  0.71391736  0.82787636  1  0.101824  0  0.108979  0.109987  0  1.032127  0
H  H9  1  0.07873002  0.75927626  0.01141730  1  0.064837  0  0.106804  0.108169  0  0.988755  0
H  H10  1  0.79632217  0.87817489  0.54417319  1  0.142661  0  0.115053  0.126859  0  0.992903  0
H  H11  1  0.11332909  0.92762452  0.49537961  1  0.095047  0  0.112028  0.128944  0  0.984352  0
H  H12  1  0.09798584  0.12170424  0.48672684  1  0.087417  0  0.126068  0.151904  0  0.962277  0
H  H13  1  0.40058614  0.68250583  0.46699867  1  0.164084  0  0.141024  0.112335  0  0.938675  0
H  H14  1  0.37501738  0.45017692  0.57884165  1  0.46787  0  0.29718  0.279256  0  0.973231  0
H  H15  1  0.65168681  0.67133956  0.47386395  1  0.192739  0  0.146712  0.135009  0  0.956627  0
C  C16  1  0.99218145  0.28227062  0.51519562  1  1.641156  0  0.215187  0.644421  0  4.194445  0
C  C17  1  0.91284037  0.52104314  0.69603190  1  1.622195  0  0.215113  0.595236  0  4.189004  0
C  C18  1  0.00618733  0.74609932  0.50288421  1  1.571572  0  0.208972  0.63077  0  4.185162  0
C  C19  1  0.06643761  0.54094527  0.31727076  1  1.556676  0  0.211738  0.590638  0  4.168507  0
C  C20  1  0.85787883  0.53481339  0.80279883  1  -0.004587  0  0.001467  -0.048874  0  3.922501  0
C  C21  1  0.13459813  0.58968898  0.21728361  1  -0.030057  0  -0.016714  -0.02413  0  3.969589  0
C  C22  1  0.89204307  0.50227638  0.97660696  1  0.075762  0  -0.076785  -0.114385  0  3.974608  0
C  C23  1  0.94284772  0.50594327  0.87771731  1  -0.070167  0  -0.074321  -0.080806  0  3.978336  0
C  C24  1  0.72577458  0.56695953  0.83045677  1  0.220057  0  0.08819  0.015682  0  3.856872  0
C  C25  1  0.67156743  0.57438521  0.93171748  1  0.044993  0  0.008668  -0.013041  0  3.89276  0
C  C26  1  0.75777744  0.53446556  0.00473934  1  0.034737  0  0.001208  0.09781  0  4.014868  0
C  C27  1  0.53841818  0.61495488  0.96576954  1  -0.037712  0  0.003924  0.051875  0  3.928819  0
C  C28  1  0.48395680  0.59281899  0.06770170  1  0.026126  0  0.008185  -0.005493  0  3.916539  0
C  C29  1  0.57666442  0.55388559  0.13563779  1  0.164746  0  0.080873  0.034574  0  3.962649  0
C  C30  1  0.70788596  0.52741040  0.10738546  1  -0.008131  0  -0.07427  -0.174685  0  3.954288  0
C  C31  1  0.46060467  0.68253253  0.90252723  1  -0.029763  0  -0.093003  -0.130289  0  3.996191  0
C  C32  1  0.33411979  0.71738848  0.93522806  1  -0.023746  0  -0.078776  -0.110059  0  3.981  0
C  C33  1  0.26833212  0.67994736  0.03170287  1  -0.014855  0  -0.002159  0.081448  0  4.011853  0
C  C34  1  0.34181182  0.61290981  0.09822152  1  0.032084  0  -0.003262  0.037293  0  3.948701  0
C  C35  1  0.13196954  0.70588104  0.06244181  1  -0.08001  0  -0.085128  -0.131356  0  3.992392  0
C  C36  1  0.06602272  0.66254639  0.15381553  1  0.031735  0  -0.083411  -0.096133  0  3.998325  0
C  C37  1  0.26955929  0.56622934  0.18947631  1  -0.043613  0  -0.084772  -0.138171  0  3.939109  0
C  C38  1  0.89530552  0.93366157  0.52973920  1  -0.048733  0  -0.072036  -0.083945  0  3.983518  0
C  C39  1  0.01028786  0.87867508  0.50759207  1  -0.042869  0  -0.085792  -0.202567  0  3.875831  0
C  C40  1  0.89225746  0.06269603  0.53741517  1  0.14183  0  0.084306  0.102143  0  3.940554  0
C  C41  1  0.99717183  0.14954021  0.51268374  1  0.087828  0  -0.060744  -0.225942  0  3.784374  0
C  C42  1  0.43243826  0.60049226  0.50144544  1  0.74618  0  0.11608  0.198195  0  3.880657  0
C  C43  1  0.58150987  0.58838111  0.48897006  1  0.597473  0  0.094546  0.067793  0  3.876776  0
N  N44  1  0.33868342  0.52453836  0.54739287  1  -1.21038  0  -0.449322  -0.401693  0  3.286082  0
N  N45  1  0.64609828  0.49321146  0.48894484  1  -0.883266  0  -0.265306  -0.128951  0  3.399716  0
N  N46  1  0.75389508  0.09788616  0.57387405  1  0.415856  0  0.058912  0.517076  0  4.194856  0
N  N47  1  0.63708127  0.58677501  0.74861436  1  0.407428  0  0.056578  0.521921  0  4.230298  0
N  N48  1  0.54301607  0.55293023  0.24477231  1  0.393555  0  0.058618  0.525131  0  4.206687  0
Cl  Cl49  1  0.56031987  0.35278116  0.51198870  1  0.1469  0  0.173807  0.113119  0  1.569619  0
O  O50  1  0.09195793  0.33920067  0.55376621  1  -1.150328  0  -0.314276  -0.535813  0  2.252117  0
O  O51  1  0.89363259  0.32602781  0.47554455  1  -1.148436  0  -0.312858  -0.538993  0  2.328567  0
O  O52  1  0.04236963  0.54855539  0.67546731  1  -1.143743  0  -0.312381  -0.53434  0  2.281804  0
O  O53  1  0.82705626  0.48081502  0.63732010  1  -1.155035  0  -0.30928  -0.542433  0  2.362557  0
O  O54  1  0.12327460  0.70344498  0.50005588  1  -1.151893  0  -0.319604  -0.551248  0  2.266713  0
O  O55  1  0.88866435  0.68456612  0.50288002  1  -1.16859  0  -0.315204  -0.555294  0  2.340792  0
O  O56  1  0.14462259  0.50237742  0.37941563  1  -1.178851  0  -0.320589  -0.560493  0  2.311954  0
O  O57  1  0.93548884  0.54399105  0.33393216  1  -1.161388  0  -0.321965  -0.541142  0  2.261671  0
O  O58  1  0.65468956  0.05454718  0.53056351  1  -0.443241  0  -0.144781  -0.344164  0  1.859158  0
O  O59  1  0.74675823  0.16472658  0.64472905  1  -0.431151  0  -0.12399  -0.313724  0  1.895374  0
O  O60  1  0.53901880  0.50963829  0.74130527  1  -0.436109  0  -0.117315  -0.314235  0  1.914798  0
O  O61  1  0.66544484  0.68027378  0.69468352  1  -0.448733  0  -0.123003  -0.325333  0  1.923016  0
O  O62  1  0.52771051  0.65117734  0.28235529  1  -0.447643  0  -0.113099  -0.31774  0  1.90241  0
O  O63  1  0.53692768  0.45486052  0.29200361  1  -0.444352  0  -0.116662  -0.319969  0  1.940455  0
