# generated using pymatgen
data_CdH11C8I2N
_symmetry_space_group_name_H-M   'P 1'
_cell_length_a   7.64129972
_cell_length_b   8.04903812
_cell_length_c   19.24318840
_cell_angle_alpha   90.00012453
_cell_angle_beta   89.99974335
_cell_angle_gamma   89.66758263
_symmetry_Int_Tables_number   1
_chemical_formula_structural   CdH11C8I2N
_chemical_formula_sum   'Cd4 H44 C32 I8 N4'
_cell_volume   1183.53455293
_cell_formula_units_Z   4
loop_
 _symmetry_equiv_pos_site_id
 _symmetry_equiv_pos_as_xyz
  1  'x, y, z'
loop_
 _atom_site_type_symbol
 _atom_site_label
 _atom_site_symmetry_multiplicity
 _atom_site_fract_x
 _atom_site_fract_y
 _atom_site_fract_z
 _atom_site_occupancy
 _atom_site_hle17_bader_spin_density
 _atom_site_hle17_ddec_charge
 _atom_site_hle17_ddec_spin_density
 _atom_site_hle17_ddec_sum_bond_order
 _atom_site_hle17_magmom
 _atom_site_hse06_10hf_bader_spin_density
 _atom_site_hse06_10hf_ddec_charge
 _atom_site_hse06_10hf_ddec_spin_density
 _atom_site_hse06_10hf_ddec_sum_bond_order
 _atom_site_hse06_10hf_magmom
 _atom_site_hse06_bader_spin_density
 _atom_site_hse06_ddec_charge
 _atom_site_hse06_ddec_spin_density
 _atom_site_hse06_ddec_sum_bond_order
 _atom_site_hse06_magmom
 _atom_site_pbe_bader_spin_density
 _atom_site_pbe_cm5_charge
 _atom_site_pbe_ddec_charge
 _atom_site_pbe_ddec_spin_density
 _atom_site_pbe_ddec_sum_bond_order
 _atom_site_pbe_magmom
Cd  Cd0  1  0.75798322  0.94671075  0.53289687  1  0  0.731952  0  2.095198  0  0  0.591308  0  2.525799  0  0  0.638415  0  2.494714  0  0  0.458462  0.55926  0  2.545778  0
Cd  Cd1  1  0.74201638  0.05328250  0.03290139  1  0  0.731971  0  2.095239  0  0  0.591277  0  2.525857  0  0  0.638384  0  2.494776  0  0  0.45846  0.559222  0  2.545846  0
Cd  Cd2  1  0.24200883  0.05330066  0.46710535  1  0  0.731938  0  2.095237  0  0  0.591271  0  2.52583  0  0  0.638377  0  2.494746  0  0  0.458432  0.559226  0  2.545795  0
Cd  Cd3  1  0.25798482  0.94668414  0.96710083  1  0  0.732001  0  2.095115  0  0  0.591301  0  2.525697  0  0  0.638407  0  2.49462  0  0  0.458434  0.559252  0  2.545674  0
H  H4  1  0.02200381  0.00783998  0.66042536  1  0  0.118026  0  0.959289  0  0  0.134281  0  1.029733  0  0  0.135931  0  1.029452  0  0  0.084477  0.133052  0  1.029965  0
H  H5  1  0.47799853  0.99216918  0.16042924  1  0  0.118036  0  0.959203  0  0  0.134286  0  1.029657  0  0  0.135941  0  1.029368  0  0  0.084487  0.133057  0  1.02989  0
H  H6  1  0.97799740  0.99217138  0.33957686  1  0  0.117989  0  0.959297  0  0  0.134254  0  1.029726  0  0  0.135905  0  1.029444  0  0  0.084498  0.133027  0  1.02995  0
H  H7  1  0.52198436  0.00782986  0.83957298  1  0  0.118116  0  0.959176  0  0  0.134357  0  1.029636  0  0  0.136004  0  1.029356  0  0  0.084537  0.133128  0  1.029867  0
H  H8  1  0.94341403  0.05489250  0.74547907  1  0  0.123824  0  0.958456  0  0  0.144266  0  1.017184  0  0  0.146731  0  1.015921  0  0  0.083877  0.142455  0  1.018142  0
H  H9  1  0.55658711  0.94512178  0.24548210  1  0  0.123782  0  0.958487  0  0  0.144215  0  1.01723  0  0  0.146676  0  1.015973  0  0  0.083881  0.142407  0  1.018189  0
H  H10  1  0.05658456  0.94512011  0.25452315  1  0  0.123778  0  0.958425  0  0  0.144204  0  1.017184  0  0  0.146669  0  1.015919  0  0  0.08388  0.142391  0  1.018152  0
H  H11  1  0.44339709  0.05488843  0.75452012  1  0  0.123836  0  0.958375  0  0  0.144253  0  1.017144  0  0  0.146715  0  1.015884  0  0  0.083903  0.142443  0  1.0181  0
H  H12  1  0.82074070  0.11497429  0.67061739  1  0  0.111847  0  0.962821  0  0  0.130084  0  1.028747  0  0  0.131864  0  1.027871  0  0  0.080875  0.128746  0  1.029445  0
H  H13  1  0.67926260  0.88503584  0.17062171  1  0  0.111773  0  0.962797  0  0  0.12997  0  1.028799  0  0  0.13175  0  1.027924  0  0  0.080822  0.128636  0  1.029495  0
H  H14  1  0.17925789  0.88503584  0.32938327  1  0  0.111706  0  0.962886  0  0  0.129911  0  1.028875  0  0  0.131689  0  1.028003  0  0  0.080802  0.128573  0  1.029574  0
H  H15  1  0.32071767  0.11495576  0.82938207  1  0  0.111914  0  0.962784  0  0  0.130162  0  1.0287  0  0  0.131942  0  1.027826  0  0  0.080907  0.128821  0  1.0294  0
H  H16  1  0.83231136  0.82356354  0.80556102  1  0  0.108847  0  0.977181  0  0  0.117292  0  1.044002  0  0  0.120723  0  1.043345  0  0  0.091624  0.11483  0  1.044603  0
H  H17  1  0.66769696  0.17644482  0.30556371  1  0  0.108946  0  0.97712  0  0  0.117367  0  1.043947  0  0  0.120795  0  1.043299  0  0  0.091642  0.114906  0  1.044548  0
H  H18  1  0.16769639  0.17644530  0.19444172  1  0  0.108967  0  0.977163  0  0  0.117414  0  1.043952  0  0  0.120837  0  1.043323  0  0  0.09168  0.114952  0  1.04456  0
H  H19  1  0.33229509  0.82355914  0.69443435  1  0  0.109009  0  0.977197  0  0  0.117447  0  1.04397  0  0  0.120872  0  1.043334  0  0  0.091667  0.114986  0  1.044571  0
H  H20  1  0.53813548  0.46615769  0.82452057  1  0  0.114587  0  0.946396  0  0  0.13504  0  1.00728  0  0  0.136613  0  1.007492  0  0  0.088538  0.13394  0  1.007104  0
H  H21  1  0.96187394  0.53384331  0.32452563  1  0  0.114565  0  0.946392  0  0  0.135055  0  1.007246  0  0  0.136629  0  1.007457  0  0  0.088543  0.133954  0  1.007068  0
H  H22  1  0.46187228  0.53384742  0.17547801  1  0  0.114582  0  0.946317  0  0  0.135048  0  1.007192  0  0  0.136622  0  1.007403  0  0  0.088538  0.133948  0  1.007014  0
H  H23  1  0.03812858  0.46614941  0.67547191  1  0  0.114665  0  0.946291  0  0  0.135166  0  1.007131  0  0  0.136741  0  1.00734  0  0  0.088588  0.134066  0  1.006952  0
H  H24  1  0.68101881  0.60232687  0.86980457  1  0  0.115267  0  0.962946  0  0  0.132543  0  1.030039  0  0  0.134976  0  1.028721  0  0  0.079635  0.130716  0  1.031098  0
H  H25  1  0.81899140  0.39766816  0.36980614  1  0  0.115331  0  0.962807  0  0  0.132573  0  1.029963  0  0  0.135008  0  1.028643  0  0  0.079663  0.130743  0  1.031025  0
H  H26  1  0.31898764  0.39766955  0.13019816  1  0  0.115291  0  0.962919  0  0  0.132553  0  1.030033  0  0  0.134986  0  1.028714  0  0  0.079645  0.130728  0  1.031091  0
H  H27  1  0.18101242  0.60232082  0.63018776  1  0  0.115371  0  0.962925  0  0  0.132619  0  1.03006  0  0  0.135054  0  1.02874  0  0  0.079706  0.130791  0  1.031126  0
H  H28  1  0.76313012  0.41852343  0.83029745  1  0  0.111754  0  0.963577  0  0  0.130286  0  1.031622  0  0  0.13208  0  1.030821  0  0  0.082338  0.129015  0  1.032163  0
H  H29  1  0.73688315  0.58147509  0.33030400  1  0  0.111758  0  0.963554  0  0  0.130287  0  1.031616  0  0  0.132084  0  1.030812  0  0  0.082336  0.129012  0  1.032167  0
H  H30  1  0.23687501  0.58147548  0.16970269  1  0  0.111788  0  0.963572  0  0  0.13031  0  1.031622  0  0  0.132106  0  1.03082  0  0  0.082357  0.129043  0  1.032163  0
H  H31  1  0.26312067  0.41851513  0.66969302  1  0  0.111819  0  0.963566  0  0  0.130394  0  1.031554  0  0  0.132192  0  1.030749  0  0  0.08237  0.129123  0  1.032102  0
H  H32  1  0.57834401  0.43261964  0.69082542  1  0  0.109689  0  0.954747  0  0  0.120844  0  1.014837  0  0  0.124162  0  1.014048  0  0  0.098987  0.11844  0  1.015609  0
H  H33  1  0.92165775  0.56739060  0.19082643  1  0  0.109655  0  0.954754  0  0  0.120824  0  1.014853  0  0  0.124143  0  1.014062  0  0  0.098971  0.118425  0  1.015617  0
H  H34  1  0.42166636  0.56738545  0.30917836  1  0  0.109594  0  0.954804  0  0  0.120771  0  1.014915  0  0  0.124092  0  1.014124  0  0  0.098964  0.11837  0  1.015686  0
H  H35  1  0.07834870  0.43260209  0.80916644  1  0  0.109644  0  0.954834  0  0  0.120792  0  1.014925  0  0  0.12411  0  1.014139  0  0  0.098948  0.118388  0  1.01569  0
H  H36  1  0.48591780  0.67315900  0.54866777  1  0  0.111172  0  0.967196  0  0  0.127843  0  1.038458  0  0  0.12914  0  1.03857  0  0  0.080376  0.126869  0  1.03842  0
H  H37  1  0.01408972  0.32685200  0.04866982  1  0  0.111201  0  0.96723  0  0  0.127887  0  1.038473  0  0  0.12918  0  1.038591  0  0  0.080393  0.126909  0  1.038438  0
H  H38  1  0.51408602  0.32685483  0.45133705  1  0  0.111187  0  0.967299  0  0  0.127904  0  1.03851  0  0  0.129188  0  1.03863  0  0  0.080402  0.126924  0  1.038481  0
H  H39  1  0.98591411  0.67314070  0.95132928  1  0  0.111187  0  0.967191  0  0  0.127884  0  1.038437  0  0  0.129181  0  1.038552  0  0  0.080419  0.126905  0  1.038405  0
H  H40  1  0.53531731  0.46317644  0.57081989  1  0  0.121347  0  0.974873  0  0  0.14034  0  1.037738  0  0  0.142532  0  1.037149  0  0  0.081639  0.138722  0  1.038232  0
H  H41  1  0.96468449  0.53683439  0.07082131  1  0  0.121278  0  0.974906  0  0  0.140277  0  1.037774  0  0  0.142468  0  1.037189  0  0  0.081586  0.138659  0  1.038262  0
H  H42  1  0.46467866  0.53683370  0.42918389  1  0  0.121306  0  0.974892  0  0  0.140309  0  1.037766  0  0  0.142501  0  1.037176  0  0  0.081611  0.13869  0  1.03826  0
H  H43  1  0.03531148  0.46315463  0.92917727  1  0  0.121215  0  0.97494  0  0  0.14021  0  1.037829  0  0  0.142401  0  1.037246  0  0  0.081592  0.138591  0  1.038316  0
H  H44  1  0.69120509  0.58443836  0.52507478  1  0  0.116616  0  0.966097  0  0  0.135321  0  1.032038  0  0  0.137149  0  1.031258  0  0  0.078018  0.133884  0  1.032796  0
H  H45  1  0.80880246  0.41556971  0.02507586  1  0  0.116645  0  0.966085  0  0  0.135352  0  1.03201  0  0  0.137177  0  1.031236  0  0  0.078045  0.133925  0  1.032756  0
H  H46  1  0.30879219  0.41556556  0.47492796  1  0  0.116609  0  0.966017  0  0  0.135304  0  1.03197  0  0  0.137131  0  1.031191  0  0  0.078  0.133883  0  1.032711  0
H  H47  1  0.19120398  0.58442298  0.97491804  1  0  0.116643  0  0.966008  0  0  0.135345  0  1.031962  0  0  0.137173  0  1.031184  0  0  0.078057  0.133912  0  1.032709  0
C  C48  1  0.80986136  0.85431110  0.69511522  1  0  0.33283  0  3.71635  0  0  0.337772  0  3.960396  0  0  0.349458  0  3.980067  0  0  0.116946  0.330042  0  3.946872  0
C  C49  1  0.69014296  0.14569791  0.19511836  1  0  0.332756  0  3.71641  0  0  0.337682  0  3.960438  0  0  0.349369  0  3.980111  0  0  0.116921  0.329946  0  3.946925  0
C  C50  1  0.19014115  0.14569528  0.30488700  1  0  0.33288  0  3.716393  0  0  0.337733  0  3.960546  0  0  0.349421  0  3.980215  0  0  0.116996  0.330003  0  3.947021  0
C  C51  1  0.30984777  0.85430108  0.80487918  1  0  0.33287  0  3.716354  0  0  0.33769  0  3.960528  0  0  0.349384  0  3.980197  0  0  0.116914  0.329957  0  3.947006  0
C  C52  1  0.90400886  0.01670384  0.69311459  1  0  -0.381693  0  3.710614  0  0  -0.456987  0  3.938038  0  0  -0.460892  0  3.944488  0  0  -0.249455  -0.453993  0  3.933526  0
C  C53  1  0.59599287  0.98330766  0.19311862  1  0  -0.381517  0  3.710494  0  0  -0.456756  0  3.937917  0  0  -0.460663  0  3.94437  0  0  -0.249403  -0.453762  0  3.933407  0
C  C54  1  0.09599235  0.98330751  0.30688659  1  0  -0.381354  0  3.710584  0  0  -0.456585  0  3.938026  0  0  -0.460498  0  3.94449  0  0  -0.249359  -0.453591  0  3.933514  0
C  C55  1  0.40399002  0.01669262  0.80688308  1  0  -0.381851  0  3.71062  0  0  -0.457092  0  3.938043  0  0  -0.460997  0  3.944497  0  0  -0.249564  -0.454096  0  3.933532  0
C  C56  1  0.78542845  0.76826643  0.75730656  1  0  -0.236508  0  3.657493  0  0  -0.25855  0  3.896224  0  0  -0.269882  0  3.91815  0  0  -0.094311  -0.251216  0  3.881482  0
C  C57  1  0.71457780  0.23174416  0.25730921  1  0  -0.236558  0  3.657438  0  0  -0.258688  0  3.896133  0  0  -0.270023  0  3.918053  0  0  -0.094285  -0.251351  0  3.881402  0
C  C58  1  0.21458061  0.23173868  0.24269670  1  0  -0.236741  0  3.657622  0  0  -0.258849  0  3.896312  0  0  -0.270188  0  3.918235  0  0  -0.094442  -0.251517  0  3.881582  0
C  C59  1  0.28541556  0.76825482  0.74268833  1  0  -0.236599  0  3.6575  0  0  -0.258712  0  3.896227  0  0  -0.27005  0  3.918145  0  0  -0.094271  -0.251382  0  3.881498  0
C  C60  1  0.70079529  0.61466369  0.75797798  1  0  0.222749  0  3.751377  0  0  0.243496  0  3.989902  0  0  0.251546  0  4.011006  0  0  0.012753  0.238416  0  3.975198  0
C  C61  1  0.79921225  0.38534317  0.25797957  1  0  0.222437  0  3.751448  0  0  0.243509  0  3.989573  0  0  0.251563  0  4.010674  0  0  0.012701  0.238428  0  3.974871  0
C  C62  1  0.29921377  0.38534265  0.24202372  1  0  0.222554  0  3.751494  0  0  0.24364  0  3.989616  0  0  0.251692  0  4.010719  0  0  0.012822  0.238556  0  3.974921  0
C  C63  1  0.20078895  0.61465204  0.74201641  1  0  0.222686  0  3.751289  0  0  0.243727  0  3.989423  0  0  0.251782  0  4.010523  0  0  0.01281  0.238643  0  3.974723  0
C  C64  1  0.66908709  0.52171559  0.82410422  1  0  -0.345446  0  3.703025  0  0  -0.421074  0  3.932507  0  0  -0.424787  0  3.939653  0  0  -0.244626  -0.41827  0  3.927378  0
C  C65  1  0.83092495  0.47828663  0.32410843  1  0  -0.345367  0  3.702865  0  0  -0.421088  0  3.932251  0  0  -0.424801  0  3.93938  0  0  -0.244633  -0.418274  0  3.927127  0
C  C66  1  0.33092197  0.47828578  0.17589696  1  0  -0.34547  0  3.703023  0  0  -0.421177  0  3.932421  0  0  -0.42489  0  3.939563  0  0  -0.244679  -0.418374  0  3.927288  0
C  C67  1  0.16908019  0.52170856  0.67588859  1  0  -0.345685  0  3.702924  0  0  -0.421472  0  3.932329  0  0  -0.42519  0  3.93946  0  0  -0.244812  -0.418662  0  3.927207  0
C  C68  1  0.64465706  0.55212032  0.69395327  1  0  -0.24433  0  3.669262  0  0  -0.266534  0  3.910856  0  0  -0.277362  0  3.931413  0  0  -0.094533  -0.259561  0  3.897089  0
C  C69  1  0.85534728  0.44788621  0.19395533  1  0  -0.244195  0  3.669172  0  0  -0.266516  0  3.910748  0  0  -0.277348  0  3.931312  0  0  -0.094547  -0.259551  0  3.896981  0
C  C70  1  0.35535331  0.44788353  0.30604791  1  0  -0.243939  0  3.669082  0  0  -0.266313  0  3.910711  0  0  -0.277142  0  3.931273  0  0  -0.094463  -0.259344  0  3.896944  0
C  C71  1  0.14465131  0.55210529  0.80604013  1  0  -0.244317  0  3.66937  0  0  -0.266592  0  3.910851  0  0  -0.277429  0  3.931414  0  0  -0.094538  -0.259618  0  3.897078  0
C  C72  1  0.66520063  0.64475815  0.63336822  1  0  0.331539  0  3.73833  0  0  0.333387  0  3.986835  0  0  0.345139  0  4.005939  0  0  0.114584  0.325577  0  3.97377  0
C  C73  1  0.83480177  0.35525426  0.13337024  1  0  0.331584  0  3.737838  0  0  0.333309  0  3.986511  0  0  0.345057  0  4.005627  0  0  0.114598  0.325501  0  3.973444  0
C  C74  1  0.33480712  0.35525192  0.36663504  1  0  0.331485  0  3.737966  0  0  0.333232  0  3.986693  0  0  0.344979  0  4.005802  0  0  0.114508  0.325422  0  3.973624  0
C  C75  1  0.16519289  0.64473726  0.86662523  1  0  0.331478  0  3.738168  0  0  0.333291  0  3.986607  0  0  0.345052  0  4.005716  0  0  0.114536  0.325479  0  3.973538  0
C  C76  1  0.59059132  0.58784999  0.56592257  1  0  -0.386382  0  3.71384  0  0  -0.461627  0  3.94076  0  0  -0.465818  0  3.948043  0  0  -0.256071  -0.458387  0  3.935712  0
C  C77  1  0.90941184  0.41215833  0.06592347  1  0  -0.386358  0  3.713876  0  0  -0.4616  0  3.940852  0  0  -0.465773  0  3.948119  0  0  -0.256077  -0.458371  0  3.935788  0
C  C78  1  0.40940988  0.41215516  0.43407964  1  0  -0.386416  0  3.713891  0  0  -0.46163  0  3.940812  0  0  -0.465813  0  3.948133  0  0  -0.256091  -0.458404  0  3.935751  0
C  C79  1  0.09058806  0.58783565  0.93407147  1  0  -0.386315  0  3.713984  0  0  -0.461563  0  3.940835  0  0  -0.46574  0  3.948087  0  0  -0.256147  -0.458327  0  3.935778  0
I  I80  1  0.57710209  0.89412458  0.40435698  1  0  -0.453778  0  1.21823  0  0  -0.395232  0  1.541711  0  0  -0.416364  0  1.521507  0  0  -0.179842  -0.38048  0  1.55505  0
I  I81  1  0.92289988  0.10587069  0.90436079  1  0  -0.453778  0  1.218255  0  0  -0.395209  0  1.541731  0  0  -0.416352  0  1.521532  0  0  -0.179838  -0.380455  0  1.555073  0
I  I82  1  0.42289912  0.10588181  0.59564264  1  0  -0.453747  0  1.218222  0  0  -0.39522  0  1.541719  0  0  -0.416348  0  1.521514  0  0  -0.179835  -0.380466  0  1.555059  0
I  I83  1  0.07710133  0.89411831  0.09564455  1  0  -0.453736  0  1.218162  0  0  -0.395197  0  1.541656  0  0  -0.416331  0  1.521459  0  0  -0.17983  -0.380446  0  1.555  0
I  I84  1  0.92786309  0.25484669  0.51322296  1  0  -0.408351  0  1.240929  0  0  -0.347066  0  1.573051  0  0  -0.369331  0  1.554467  0  0  -0.173249  -0.331743  0  1.585311  0
I  I85  1  0.57213150  0.74514772  0.01322215  1  0  -0.408358  0  1.240876  0  0  -0.347065  0  1.572989  0  0  -0.369338  0  1.554409  0  0  -0.17327  -0.33174  0  1.585248  0
I  I86  1  0.07212765  0.74516721  0.48677406  1  0  -0.408371  0  1.240974  0  0  -0.347086  0  1.573077  0  0  -0.369321  0  1.55445  0  0  -0.17326  -0.331762  0  1.585335  0
I  I87  1  0.42787101  0.25481891  0.98677591  1  0  -0.408383  0  1.240941  0  0  -0.347101  0  1.573053  0  0  -0.369321  0  1.554392  0  0  -0.173273  -0.331774  0  1.585309  0
N  N88  1  0.74756864  0.79340428  0.63437636  1  0  -0.425554  0  3.198954  0  0  -0.347055  0  3.441001  0  0  -0.372052  0  3.461418  0  0  -0.341012  -0.330335  0  3.426877  0
N  N89  1  0.75243375  0.20660442  0.13437839  1  0  -0.425615  0  3.198791  0  0  -0.346964  0  3.440738  0  0  -0.371962  0  3.461161  0  0  -0.341014  -0.330239  0  3.426611  0
N  N90  1  0.25243780  0.20660456  0.36562638  1  0  -0.425597  0  3.198681  0  0  -0.346979  0  3.440719  0  0  -0.371971  0  3.461134  0  0  -0.341  -0.330255  0  3.426583  0
N  N91  1  0.24755699  0.79338961  0.86561759  1  0  -0.425567  0  3.198692  0  0  -0.346894  0  3.440605  0  0  -0.371909  0  3.461034  0  0  -0.340969  -0.330169  0  3.426475  0
