# generated using pymatgen
data_AgH9C7N3O2
_symmetry_space_group_name_H-M   'P 1'
_cell_length_a   7.23965303
_cell_length_b   6.82643642
_cell_length_c   10.07021008
_cell_angle_alpha   84.98436573
_cell_angle_beta   104.92222905
_cell_angle_gamma   112.20920957
_symmetry_Int_Tables_number   1
_chemical_formula_structural   AgH9C7N3O2
_chemical_formula_sum   'Ag2 H18 C14 N6 O4'
_cell_volume   445.19142642
_cell_formula_units_Z   2
loop_
 _symmetry_equiv_pos_site_id
 _symmetry_equiv_pos_as_xyz
  1  'x, y, z'
loop_
 _atom_site_type_symbol
 _atom_site_label
 _atom_site_symmetry_multiplicity
 _atom_site_fract_x
 _atom_site_fract_y
 _atom_site_fract_z
 _atom_site_occupancy
 _atom_site_hle17_bader_spin_density
 _atom_site_hle17_ddec_charge
 _atom_site_hle17_ddec_spin_density
 _atom_site_hle17_ddec_sum_bond_order
 _atom_site_hle17_magmom
 _atom_site_hse06_10hf_bader_spin_density
 _atom_site_hse06_10hf_ddec_charge
 _atom_site_hse06_10hf_ddec_spin_density
 _atom_site_hse06_10hf_ddec_sum_bond_order
 _atom_site_hse06_10hf_magmom
 _atom_site_hse06_bader_spin_density
 _atom_site_hse06_ddec_charge
 _atom_site_hse06_ddec_spin_density
 _atom_site_hse06_ddec_sum_bond_order
 _atom_site_hse06_magmom
 _atom_site_pbe_bader_spin_density
 _atom_site_pbe_cm5_charge
 _atom_site_pbe_ddec_charge
 _atom_site_pbe_ddec_spin_density
 _atom_site_pbe_ddec_sum_bond_order
 _atom_site_pbe_magmom
Ag  Ag0  1  0.86200286  0.78232428  0.98419944  1  0  0.520328  0  1.452772  0  0  0.386014  0  1.900256  0  0  0.418309  0  1.848563  0  0  0.448215  0.364322  0  1.936167  0
Ag  Ag1  1  0.13799045  0.21765998  0.01579895  1  0  0.520395  0  1.452684  0  0  0.386025  0  1.900207  0  0  0.418335  0  1.848491  0  0  0.448196  0.364329  0  1.936125  0
H  H2  1  0.74717910  0.70936013  0.23944347  1  0  0.351975  0  0.928497  0  0  0.330098  0  0.999179  0  0  0.339125  0  0.990808  0  0  0.293773  0.323565  0  1.005333  0
H  H3  1  0.25282109  0.29063072  0.76056322  1  0  0.352072  0  0.928286  0  0  0.33017  0  0.999046  0  0  0.339202  0  0.990657  0  0  0.293776  0.323632  0  1.005188  0
H  H4  1  0.52767946  0.61194687  0.30738892  1  0  0.334455  0  0.870782  0  0  0.326359  0  0.918301  0  0  0.332226  0  0.91445  0  0  0.320013  0.322137  0  0.921185  0
H  H5  1  0.47231742  0.38804990  0.69261114  1  0  0.334448  0  0.87085  0  0  0.326359  0  0.918354  0  0  0.332226  0  0.914503  0  0  0.320025  0.322135  0  0.92124  0
H  H6  1  0.47970737  0.80369385  0.78450200  1  0  0.095245  0  0.967443  0  0  0.104098  0  1.030066  0  0  0.10643  0  1.028519  0  0  0.117829  0.102546  0  1.030831  0
H  H7  1  0.52029371  0.19629545  0.21549388  1  0  0.095189  0  0.967471  0  0  0.104055  0  1.030087  0  0  0.106386  0  1.028542  0  0  0.117808  0.102505  0  1.030856  0
H  H8  1  0.21093846  0.66804314  0.19290854  1  0  0.115148  0  0.935726  0  0  0.124261  0  0.99515  0  0  0.127365  0  0.993463  0  0  0.122612  0.121995  0  0.996393  0
H  H9  1  0.78906508  0.33195955  0.80709379  1  0  0.115166  0  0.935879  0  0  0.124277  0  0.995285  0  0  0.127384  0  0.993593  0  0  0.122624  0.122009  0  0.996529  0
H  H10  1  0.12080562  0.79405677  0.77543617  1  0  0.099749  0  0.955729  0  0  0.108398  0  1.017915  0  0  0.111119  0  1.017354  0  0  0.116006  0.106201  0  1.018866  0
H  H11  1  0.87919392  0.20593229  0.22456142  1  0  0.09979  0  0.955722  0  0  0.108487  0  1.017854  0  0  0.1112  0  1.017302  0  0  0.116052  0.106292  0  1.018803  0
H  H12  1  0.51902601  0.23155652  0.50035652  1  0  0.060986  0  0.927115  0  0  0.081392  0  0.985024  0  0  0.083333  0  0.98337  0  0  0.085846  0.079811  0  0.986431  0
H  H13  1  0.48095910  0.76844667  0.49964527  1  0  0.061018  0  0.927079  0  0  0.08139  0  0.985023  0  0  0.083346  0  0.983349  0  0  0.08581  0.079781  0  0.986456  0
H  H14  1  0.49674054  0.05913790  0.64245280  1  0  0.05144  0  0.969839  0  0  0.069884  0  1.0368  0  0  0.06972  0  1.038713  0  0  0.084314  0.070075  0  1.03513  0
H  H15  1  0.50324807  0.94087391  0.35754465  1  0  0.051379  0  0.969836  0  0  0.069874  0  1.036761  0  0  0.069698  0  1.0387  0  0  0.084328  0.070066  0  1.035084  0
H  H16  1  0.14995556  0.81832861  0.50694279  1  0  0.089955  0  0.92471  0  0  0.108174  0  0.979083  0  0  0.110497  0  0.977529  0  0  0.090132  0.106443  0  0.980384  0
H  H17  1  0.85003229  0.18168859  0.49306150  1  0  0.089968  0  0.924628  0  0  0.108181  0  0.978973  0  0  0.110505  0  0.977417  0  0  0.090171  0.106452  0  0.980276  0
H  H18  1  0.16233261  0.07836785  0.53020281  1  0  0.094457  0  0.958177  0  0  0.111966  0  1.017653  0  0  0.113294  0  1.018079  0  0  0.095672  0.110816  0  1.01787  0
H  H19  1  0.83765991  0.92164292  0.46979041  1  0  0.094344  0  0.958014  0  0  0.111826  0  1.017524  0  0  0.11315  0  1.017956  0  0  0.095613  0.110644  0  1.01778  0
C  C20  1  0.41786395  0.77453697  0.87535819  1  0  0.09422  0  3.716643  0  0  0.061925  0  3.972811  0  0  0.069588  0  3.989754  0  0  0.038436  0.056311  0  3.962201  0
C  C21  1  0.58214610  0.22545330  0.12464041  1  0  0.094237  0  3.716693  0  0  0.061917  0  3.972832  0  0  0.069584  0  3.989786  0  0  0.038433  0.056299  0  3.962229  0
C  C22  1  0.27031847  0.69504849  0.10107353  1  0  -0.048487  0  3.648168  0  0  -0.080865  0  3.912858  0  0  -0.081512  0  3.926371  0  0  0.036763  -0.080842  0  3.903905  0
C  C23  1  0.72968345  0.30495008  0.89892450  1  0  -0.048583  0  3.648361  0  0  -0.080983  0  3.913076  0  0  -0.081626  0  3.926577  0  0  0.036699  -0.080956  0  3.904121  0
C  C24  1  0.47099364  0.69926375  0.10763145  1  0  0.427166  0  3.858334  0  0  0.398883  0  4.123999  0  0  0.416346  0  4.138556  0  0  0.227882  0.387156  0  4.113904  0
C  C25  1  0.52900828  0.30073482  0.89236658  1  0  0.427262  0  3.858365  0  0  0.398981  0  4.124001  0  0  0.416449  0  4.138558  0  0  0.227899  0.387252  0  4.113904  0
C  C26  1  0.22249934  0.76820699  0.86962751  1  0  0.004272  0  3.711848  0  0  -0.031828  0  3.981917  0  0  -0.033899  0  4.001  0  0  0.011823  -0.030941  0  3.970051  0
C  C27  1  0.77750552  0.23178096  0.13036611  1  0  0.004264  0  3.712125  0  0  -0.03188  0  3.982184  0  0  -0.033938  0  4.001261  0  0  0.011795  -0.030993  0  3.97032  0
C  C28  1  0.14881432  0.00904090  0.32398257  1  0  0.685767  0  3.88567  0  0  0.641552  0  4.187783  0  0  0.67384  0  4.182817  0  0  0.190458  0.619709  0  4.189804  0
C  C29  1  0.85119055  0.99095783  0.67601402  1  0  0.685713  0  3.885902  0  0  0.641443  0  4.188041  0  0  0.673728  0  4.183076  0  0  0.190416  0.619598  0  4.190055  0
C  C30  1  0.45362528  0.06430675  0.52950604  1  0  -0.088297  0  3.718788  0  0  -0.129063  0  3.979785  0  0  -0.12973  0  3.994715  0  0  -0.17217  -0.128727  0  3.969953  0
C  C31  1  0.54636929  0.93570574  0.47049655  1  0  -0.088341  0  3.71878  0  0  -0.129113  0  3.979707  0  0  -0.129774  0  3.99461  0  0  -0.172201  -0.128752  0  3.969867  0
C  C32  1  0.22019504  0.98517940  0.47964617  1  0  -0.270047  0  3.69399  0  0  -0.308842  0  3.946355  0  0  -0.314551  0  3.955881  0  0  -0.176175  -0.304714  0  3.940131  0
C  C33  1  0.77980044  0.01483175  0.52035460  1  0  -0.26994  0  3.693704  0  0  -0.308666  0  3.946032  0  0  -0.314372  0  3.955553  0  0  -0.176146  -0.30452  0  3.939816  0
N  N34  1  0.58936229  0.65985728  0.22517084  1  0  -0.663689  0  3.125259  0  0  -0.625566  0  3.355899  0  0  -0.649115  0  3.356265  0  0  -0.567846  -0.609268  0  3.35578  0
N  N35  1  0.41064096  0.34014107  0.77482844  1  0  -0.663781  0  3.125204  0  0  -0.625669  0  3.355828  0  0  -0.649225  0  3.356207  0  0  -0.567881  -0.609361  0  3.355713  0
N  N36  1  0.54456467  0.74557318  0.99281617  1  0  -0.37101  0  3.221801  0  0  -0.290591  0  3.494935  0  0  -0.311251  0  3.50928  0  0  -0.340699  -0.277049  0  3.485609  0
N  N37  1  0.45543943  0.25442015  0.00718428  1  0  -0.371143  0  3.221799  0  0  -0.290634  0  3.494828  0  0  -0.311316  0  3.509192  0  0  -0.340684  -0.277091  0  3.485503  0
N  N38  1  0.15237434  0.73369055  0.98514891  1  0  -0.231974  0  3.390336  0  0  -0.155727  0  3.668515  0  0  -0.166398  0  3.684561  0  0  -0.328302  -0.148379  0  3.658076  0
N  N39  1  0.84762695  0.26630645  0.01484900  1  0  -0.23195  0  3.390371  0  0  -0.155705  0  3.668559  0  0  -0.166378  0  3.684607  0  0  -0.32828  -0.148357  0  3.658117  0
O  O40  1  0.01069657  0.84802702  0.25527097  1  0  -0.696585  0  2.000617  0  0  -0.634764  0  2.251746  0  0  -0.661762  0  2.239585  0  0  -0.347171  -0.615214  0  2.259036  0
O  O41  1  0.98930403  0.15197903  0.74473078  1  0  -0.696647  0  2.000539  0  0  -0.634782  0  2.251708  0  0  -0.661794  0  2.239559  0  0  -0.347191  -0.615227  0  2.258992  0
O  O42  1  0.23353666  0.18855041  0.27421216  1  0  -0.655025  0  1.94733  0  0  -0.595715  0  2.195222  0  0  -0.622929  0  2.184623  0  0  -0.347373  -0.575908  0  2.201178  0
O  O43  1  0.76647752  0.81145732  0.72578721  1  0  -0.654912  0  1.947584  0  0  -0.595598  0  2.195473  0  0  -0.622815  0  2.184885  0  0  -0.347297  -0.575782  0  2.201398  0
