# generated using pymatgen
data_Zn3H36C53N4O19
_symmetry_space_group_name_H-M   'P 1'
_cell_length_a   15.29448532
_cell_length_b   14.62501543
_cell_length_c   16.37988260
_cell_angle_alpha   67.19031700
_cell_angle_beta   78.61061157
_cell_angle_gamma   60.58888763
_symmetry_Int_Tables_number   1
_chemical_formula_structural   Zn3H36C53N4O19
_chemical_formula_sum   'Zn6 H72 C106 N8 O38'
_cell_volume   2941.96754955
_cell_formula_units_Z   2
loop_
 _symmetry_equiv_pos_site_id
 _symmetry_equiv_pos_as_xyz
  1  'x, y, z'
loop_
 _atom_site_type_symbol
 _atom_site_label
 _atom_site_symmetry_multiplicity
 _atom_site_fract_x
 _atom_site_fract_y
 _atom_site_fract_z
 _atom_site_occupancy
 _atom_site_pbe_bader_charge
 _atom_site_pbe_bader_spin_density
 _atom_site_pbe_cm5_charge
 _atom_site_pbe_ddec_charge
 _atom_site_pbe_ddec_spin_density
 _atom_site_pbe_ddec_sum_bond_order
 _atom_site_pbe_magmom
Zn  Zn0  1  0.00250192  0.50510950  0.66746557  1  1.259236  0  0.688724  0.837872  0  2.326881  0
Zn  Zn1  1  0.22714771  0.12005269  0.92631464  1  1.322497  0  0.678276  0.966762  0  2.164277  0
Zn  Zn2  1  0.99750080  0.49489123  0.33252226  1  1.259203  0  0.68874  0.837892  0  2.326838  0
Zn  Zn3  1  0.58123218  0.14596114  0.30782484  1  1.282457  0  0.699008  0.859908  0  2.335039  0
Zn  Zn4  1  0.77283453  0.87996640  0.07367564  1  1.322775  0  0.67827  0.966695  0  2.16458  0
Zn  Zn5  1  0.41877700  0.85402333  0.69218535  1  1.282564  0  0.698989  0.859917  0  2.334865  0
H  H6  1  0.40548404  0.36458049  0.87811601  1  0.070241  0  0.104517  0.104642  0  0.992996  0
H  H7  1  0.14789131  0.75373597  0.73973787  1  0.069346  0  0.106243  0.110362  0  1.016183  0
H  H8  1  0.17754326  0.09711250  0.43719440  1  0.116559  0  0.117314  0.129413  0  0.982971  0
H  H9  1  0.91111730  0.42762147  0.50455382  1  0.10263  0  0.118507  0.098656  0  1.010769  0
H  H10  1  0.75831742  0.15162005  0.52663667  1  0.077591  0  0.10252  0.111606  0  1.017161  0
H  H11  1  0.40231194  0.58829007  0.11290501  1  0.073767  0  0.111744  0.118309  0  0.990841  0
H  H12  1  0.39058850  0.40234537  0.38541849  1  0.127014  0  0.105172  0.118648  0  1.022631  0
H  H13  1  0.08888861  0.57237940  0.49543770  1  0.102723  0  0.118542  0.098738  0  1.010684  0
H  H14  1  0.70071030  0.70691615  0.75216131  1  0.5845  0  0.322251  0.29968  0  0.957331  0
H  H15  1  0.73618271  0.09606830  0.01028864  1  0.666761  0  0.290942  0.393983  0  0.943642  0
H  H16  1  0.08131007  0.96539452  0.39510764  1  0.050211  0  0.101402  0.1008  0  1.002095  0
H  H17  1  0.91366097  0.68660361  0.88680773  1  0.098483  0  0.106216  0.114459  0  1.002049  0
H  H18  1  0.04170404  0.24134235  0.40846844  1  0.141636  0  0.103993  0.115252  0  1.045438  0
H  H19  1  0.65223435  0.81306886  0.84304127  1  0.107496  0  0.139986  0.115872  0  0.952028  0
H  H20  1  0.41276217  0.45975035  0.71823543  1  0.085698  0  0.103168  0.107557  0  1.02456  0
H  H21  1  0.51024825  0.36838935  0.61959908  1  0.059464  0  0.099459  0.097213  0  1.011722  0
H  H22  1  0.58738156  0.01303896  0.01939908  1  0.615034  0  0.324825  0.405234  0  0.873738  0
H  H23  1  0.55290946  0.36683363  0.31239211  1  0.101616  0  0.101724  0.107883  0  1.068376  0
H  H24  1  0.34150547  0.98098009  0.51285086  1  0.113277  0  0.120191  0.095103  0  1.002213  0
H  H25  1  0.29928473  0.29308975  0.24783514  1  0.584478  0  0.322266  0.2997  0  0.957299  0
H  H26  1  0.10775067  0.56615792  0.33808189  1  0.634927  0  0.306031  0.390933  0  0.920431  0
H  H27  1  0.81950064  0.02898123  0.95060231  1  0.619976  0  0.339007  0.421842  0  0.849139  0
H  H28  1  0.11487430  0.64577850  0.66925540  1  0.140699  0  0.104497  0.120692  0  1.053933  0
H  H29  1  0.41218308  0.06194585  0.87921321  1  0.659667  0  0.290821  0.394428  0  0.944404  0
H  H30  1  0.88975536  0.70777693  0.42034956  1  0.107574  0  0.109811  0.120842  0  1.028298  0
H  H31  1  0.59768334  0.41170355  0.88710734  1  0.073659  0  0.111761  0.118283  0  0.990861  0
H  H32  1  0.67236884  0.33746300  0.54364043  1  0.07127  0  0.102759  0.111762  0  1.014011  0
H  H33  1  0.52095740  0.93196424  0.42688230  1  0.111998  0  0.107633  0.120857  0  0.999089  0
H  H34  1  0.08632707  0.31342557  0.11317680  1  0.098794  0  0.106171  0.114222  0  1.001931  0
H  H35  1  0.78932870  0.63526707  0.25430002  1  0.173255  0  0.119628  0.107282  0  1.017724  0
H  H36  1  0.47903797  0.06801888  0.57311603  1  0.1091  0  0.107653  0.120923  0  0.999087  0
H  H37  1  0.03878072  0.99882017  0.69109966  1  0.076095  0  0.111583  0.118385  0  0.990324  0
H  H38  1  0.85211715  0.24625402  0.26025706  1  0.069188  0  0.106295  0.110425  0  1.016133  0
H  H39  1  0.26381177  0.90394683  0.98970526  1  0.667033  0  0.290867  0.393893  0  0.943731  0
H  H40  1  0.89224681  0.43385697  0.66190060  1  0.634774  0  0.306047  0.390892  0  0.920608  0
H  H41  1  0.20944320  0.88782657  0.75645687  1  0.111354  0  0.124615  0.099721  0  0.971364  0
H  H42  1  0.78053706  0.51155798  0.80104304  1  0.173793  0  0.13828  0.120705  0  0.979886  0
H  H43  1  0.85907171  0.33966102  0.10032924  1  0.10877  0  0.107748  0.109217  0  0.993505  0
H  H44  1  0.25767523  0.53166681  0.42662485  1  0.101551  0  0.112276  0.121611  0  0.994846  0
H  H45  1  0.41261013  0.98698615  0.98058933  1  0.615306  0  0.324854  0.405245  0  0.87378  0
H  H46  1  0.33322590  0.28050680  0.99191434  1  0.111365  0  0.116443  0.130977  0  0.998271  0
H  H47  1  0.21945142  0.48844777  0.19895151  1  0.173946  0  0.138273  0.120642  0  0.979922  0
H  H48  1  0.32763614  0.66253314  0.45636513  1  0.071352  0  0.102738  0.111696  0  1.01407  0
H  H49  1  0.58780055  0.93807485  0.12077322  1  0.659764  0  0.290861  0.394501  0  0.944329  0
H  H50  1  0.48975452  0.63160914  0.38040053  1  0.059425  0  0.099463  0.097232  0  1.01169  0
H  H51  1  0.79645924  0.40365868  0.96465573  1  0.092061  0  0.121205  0.134711  0  0.976156  0
H  H52  1  0.60942553  0.59764228  0.61458061  1  0.12586  0  0.105171  0.118605  0  1.022553  0
H  H53  1  0.96121979  0.00119170  0.30892858  1  0.075781  0  0.111608  0.1184  0  0.99018  0
H  H54  1  0.58724008  0.54023539  0.28176204  1  0.085907  0  0.103076  0.107403  0  1.024734  0
H  H55  1  0.66679273  0.71949192  0.00808496  1  0.111349  0  0.116404  0.130962  0  0.998199  0
H  H56  1  0.88514969  0.35419827  0.33074220  1  0.140521  0  0.104566  0.120765  0  1.053884  0
H  H57  1  0.11024600  0.29222985  0.57964430  1  0.107524  0  0.109815  0.120839  0  1.028295  0
H  H58  1  0.61534440  0.69136815  0.31438548  1  0.061405  0  0.110017  0.12102  0  0.999003  0
H  H59  1  0.43777688  0.85649855  0.86575586  1  0.654402  0  0.303747  0.374007  0  0.966052  0
H  H60  1  0.95830877  0.75863971  0.59154443  1  0.141495  0  0.104035  0.115327  0  1.045253  0
H  H61  1  0.14092679  0.66033052  0.89966559  1  0.109003  0  0.107686  0.109176  0  0.993502  0
H  H62  1  0.34777669  0.18692892  0.15695903  1  0.107527  0  0.139975  0.115849  0  0.951961  0
H  H63  1  0.99650600  0.67857951  0.31160290  1  0.670901  0  0.293203  0.401873  0  0.933032  0
H  H64  1  0.18048649  0.97103113  0.04938647  1  0.620686  0  0.33904  0.421834  0  0.849114  0
H  H65  1  0.00348818  0.32142874  0.68838616  1  0.670917  0  0.293258  0.401869  0  0.93305  0
H  H66  1  0.82246079  0.90286628  0.56282782  1  0.116555  0  0.117247  0.129229  0  0.983183  0
H  H67  1  0.79055359  0.11218176  0.24356714  1  0.111813  0  0.124606  0.099688  0  0.971225  0
H  H68  1  0.20353429  0.59634460  0.03533824  1  0.09196  0  0.12121  0.134736  0  0.976024  0
H  H69  1  0.24168112  0.84838794  0.47337312  1  0.077504  0  0.102545  0.11159  0  1.017189  0
H  H70  1  0.38465618  0.30862939  0.68561116  1  0.061472  0  0.110043  0.121055  0  0.998969  0
H  H71  1  0.65849938  0.01899364  0.48717179  1  0.113132  0  0.120222  0.095105  0  1.002233  0
H  H72  1  0.59452072  0.63540704  0.12188407  1  0.069989  0  0.104488  0.104707  0  0.992986  0
H  H73  1  0.56222672  0.14349433  0.13425535  1  0.654683  0  0.303745  0.373973  0  0.966034  0
H  H74  1  0.21066894  0.36473285  0.74569261  1  0.173385  0  0.11963  0.107275  0  1.017699  0
H  H75  1  0.74233159  0.46832562  0.57336704  1  0.101667  0  0.112328  0.121649  0  0.994896  0
H  H76  1  0.44710503  0.63315748  0.68760996  1  0.10217  0  0.101714  0.107926  0  1.068319  0
H  H77  1  0.91868215  0.03461699  0.60491113  1  0.05034  0  0.10141  0.100866  0  1.002105  0
C  C78  1  0.67832481  0.62943498  0.35884791  1  0.003747  0  -0.079029  -0.167662  0  3.930275  0
C  C79  1  0.34616028  0.18757407  0.49551821  1  -0.035619  0  -0.002122  -0.028478  0  3.920651  0
C  C80  1  0.32167486  0.37056329  0.64114497  1  0.00364  0  -0.079148  -0.16782  0  3.930323  0
C  C81  1  0.80856092  0.75695530  0.42082884  1  0.044629  0  -0.077465  -0.107614  0  3.944239  0
C  C82  1  0.40165445  0.17818584  0.41001210  1  1.58312  0  0.215624  0.594833  0  4.198791  0
C  C83  1  0.43679776  0.38949972  0.50858877  1  -0.005315  0  -0.017143  0.036755  0  4.009169  0
C  C84  1  0.81827917  0.65253885  0.58196243  1  1.586647  0  0.209543  0.580512  0  4.209702  0
C  C85  1  0.10915973  0.71519381  0.60915075  1  -0.034599  0  -0.09879  -0.176988  0  4.004619  0
C  C86  1  0.20187485  0.61560878  0.86089015  1  -0.123397  0  -0.075735  -0.088191  0  3.947114  0
C  C87  1  0.34767953  0.11090454  0.65707575  1  -0.045264  0  -0.009512  -0.053047  0  3.961814  0
C  C88  1  0.48067587  0.63333794  0.44759780  1  -0.075195  0  -0.08671  -0.102504  0  3.991881  0
C  C89  1  0.49596728  0.43469169  0.08787161  1  0.015733  0  -0.005576  -0.03132  0  3.951296  0
C  C90  1  0.75798569  0.82889163  0.34096503  1  -0.024431  0  -0.017116  -0.069391  0  3.961296  0
C  C91  1  0.09169275  0.05931088  0.55728078  1  -0.034522  0  0.021589  0.129313  0  3.966893  0
C  C92  1  0.72919066  0.55267498  0.00162610  1  -0.037862  0  0.031802  0.135325  0  3.942344  0
C  C93  1  0.19141121  0.73697366  0.57694814  1  0.317747  0  0.096103  0.183406  0  4.017262  0
C  C94  1  0.50525630  0.63399512  0.81688527  1  1.593634  0  0.201754  0.561022  0  4.241241  0
C  C95  1  0.77523203  0.60098990  0.32489986  1  0.411546  0  0.046433  0.094143  0  3.920662  0
C  C96  1  0.99950617  0.52942367  0.81551588  1  1.567977  0  0.191525  0.553145  0  4.249253  0
C  C97  1  0.80859738  0.26302172  0.42305891  1  0.316776  0  0.096192  0.183623  0  4.017202  0
C  C98  1  0.40760778  0.03639847  0.74097420  1  1.598791  0  0.226992  0.627419  0  4.15992  0
C  C99  1  0.55580825  0.44928031  0.93738555  1  0.041029  0  -0.074911  -0.117917  0  3.970803  0
C  C100  1  0.22476696  0.39900838  0.67509373  1  0.411437  0  0.046473  0.094212  0  3.92067  0
C  C101  1  0.18009043  0.05259071  0.50819472  1  -0.01829  0  -0.075907  -0.165104  0  3.930923  0
C  C102  1  0.49475355  0.36599705  0.18312759  1  1.593365  0  0.201751  0.560911  0  4.241241  0
C  C103  1  0.59238983  0.96359655  0.25902505  1  1.5987  0  0.227122  0.627545  0  4.159483  0
C  C104  1  0.24209638  0.25536309  0.49781340  1  -0.030363  0  -0.006991  -0.041135  0  3.935583  0
C  C105  1  0.65169246  0.54983623  0.15158295  1  0.00674  0  -0.081055  -0.092577  0  3.961739  0
C  C106  1  0.65383527  0.81241493  0.50447862  1  -0.045184  0  -0.002094  -0.028773  0  3.920861  0
C  C107  1  0.15650986  0.51586481  0.53532481  1  0.41741  0  0.043747  0.096162  0  3.945118  0
C  C108  1  0.19825019  0.93543752  0.68578783  1  0.502172  0  0.048736  0.097948  0  3.951387  0
C  C109  1  0.66295707  0.58332363  0.45003452  1  0.06467  0  0.018953  0.121598  0  3.973392  0
C  C110  1  0.79458968  0.33104085  0.22974307  1  0.035567  0  -0.086444  -0.153715  0  3.972534  0
C  C111  1  0.54917893  0.60973233  0.57909381  1  -0.061196  0  -0.082899  -0.094744  0  3.947063  0
C  C112  1  0.27287947  0.50452117  0.90237342  1  0.067965  0  -0.012798  0.038216  0  3.988963  0
C  C113  1  0.61122651  0.34943473  0.50964514  1  0.013861  0  -0.097636  -0.177289  0  4.007793  0
C  C114  1  0.89641497  0.00294853  0.35154629  1  -0.079009  0  -0.080836  -0.174034  0  3.936957  0
C  C115  1  0.59834890  0.82179735  0.58998425  1  1.583015  0  0.215572  0.594899  0  4.198418  0
C  C116  1  0.39798470  0.11823196  0.57551283  1  -0.017149  0  -0.083111  -0.13104  0  3.947828  0
C  C117  1  0.24200785  0.17110836  0.65903254  1  -0.024587  0  -0.017158  -0.069468  0  3.96121  0
C  C118  1  0.10358254  0.99705647  0.64847939  1  -0.080422  0  -0.080801  -0.17394  0  3.936934  0
C  C119  1  0.45675765  0.63049282  0.62099086  1  -0.00274  0  -0.099263  -0.175019  0  4.000147  0
C  C120  1  0.94555125  0.59527250  0.02616458  1  0.028008  0  -0.004659  -0.027534  0  3.930666  0
C  C121  1  0.55151012  0.38340722  0.02483413  1  -0.095105  0  -0.005081  -0.047317  0  3.947665  0
C  C122  1  0.34831253  0.45015550  0.84841561  1  0.006968  0  -0.081004  -0.092278  0  3.961617  0
C  C123  1  0.35298076  0.50365538  0.75793376  1  -0.088707  0  -0.090756  -0.166012  0  3.985943  0
C  C124  1  0.20541765  0.66895172  0.77025419  1  0.035776  0  -0.086382  -0.153541  0  3.972541  0
C  C125  1  0.60232108  0.25910387  0.04981495  1  1.591497  0  0.24486  0.628007  0  4.087255  0
C  C126  1  0.30867419  0.33019488  0.03472088  1  0.050683  0  -0.074178  -0.173005  0  3.935569  0
C  C127  1  0.00047967  0.47060622  0.18446450  1  1.567588  0  0.191605  0.553087  0  4.249735  0
C  C128  1  0.24234204  0.44904093  0.14900337  1  0.464767  0  0.076115  0.124087  0  3.859265  0
C  C129  1  0.75790325  0.74463356  0.50218249  1  -0.030657  0  -0.006971  -0.040943  0  3.935262  0
C  C130  1  0.90830703  0.94068566  0.44274383  1  -0.033516  0  0.021721  0.129559  0  3.967023  0
C  C131  1  0.84349547  0.48413433  0.46466558  1  0.417698  0  0.043814  0.096286  0  3.945262  0
C  C132  1  0.23430648  0.50592673  0.05870618  1  0.062569  0  -0.068606  -0.171101  0  3.907185  0
C  C133  1  0.17984143  0.82782491  0.49843575  1  0.009026  0  -0.10094  -0.182151  0  4.016087  0
C  C134  1  0.87812684  0.69743740  0.05063330  1  1.533534  0  0.200308  0.581364  0  4.198576  0
C  C135  1  0.71909261  0.38588977  0.28325114  1  0.310274  0  0.104826  0.193441  0  3.982574  0
C  C136  1  0.27210947  0.98828822  0.54960242  1  0.48697  0  0.046773  0.094573  0  3.957075  0
C  C137  1  0.00601060  0.87196615  0.48638377  1  0.040087  0  -0.019897  0.030661  0  4.019115  0
C  C138  1  0.99399079  0.12803457  0.51363787  1  0.042176  0  -0.01982  0.030646  0  4.019262  0
C  C139  1  0.05442239  0.40475636  0.97381576  1  0.029437  0  -0.004513  -0.027461  0  3.930791  0
C  C140  1  0.50404509  0.56529896  0.91214686  1  0.016214  0  -0.005583  -0.031323  0  3.951155  0
C  C141  1  0.69133800  0.66980031  0.96527648  1  0.051013  0  -0.074042  -0.173016  0  3.935577  0
C  C142  1  0.04830921  0.39490601  0.06269446  1  -0.008218  0  -0.079419  -0.126217  0  3.967595  0
C  C143  1  0.27081512  0.44732600  0.99836968  1  -0.037799  0  0.031826  0.135202  0  3.942355  0
C  C144  1  0.37554315  0.64964468  0.57815432  1  0.304622  0  0.095004  0.182286  0  4.011002  0
C  C145  1  0.79813155  0.38438290  0.13910575  1  -0.123331  0  -0.07573  -0.088137  0  3.947001  0
C  C146  1  0.00422605  0.51152999  0.91079899  1  -0.042521  0  -0.00727  -0.031962  0  3.954734  0
C  C147  1  0.12184313  0.30258897  0.94935098  1  1.533717  0  0.200415  0.581545  0  4.198234  0
C  C148  1  0.44849864  0.61658419  0.97518285  1  -0.095414  0  -0.005111  -0.047283  0  3.947561  0
C  C149  1  0.98148970  0.21824186  0.43466593  1  -0.097693  0  -0.085168  -0.098294  0  3.956142  0
C  C150  1  0.81594482  0.83875609  0.25486060  1  1.546807  0  0.213348  0.591117  0  4.205535  0
C  C151  1  0.33704690  0.41667223  0.54996092  1  0.064625  0  0.018975  0.121659  0  3.973202  0
C  C152  1  0.72789141  0.01169480  0.45042188  1  0.486232  0  0.046784  0.094629  0  3.956877  0
C  C153  1  0.80174752  0.06456402  0.31423476  1  0.50151  0  0.048665  0.097835  0  3.951194  0
C  C154  1  0.89085244  0.28479482  0.39085442  1  -0.033484  0  -0.098895  -0.177037  0  4.004438  0
C  C155  1  0.74918739  0.50765077  0.50250075  1  0.001345  0  -0.081229  -0.169491  0  3.94785  0
C  C156  1  0.62446865  0.35034973  0.42184582  1  0.304034  0  0.095014  0.182289  0  4.011207  0
C  C157  1  0.19144060  0.24304641  0.57916495  1  0.044436  0  -0.077466  -0.107603  0  3.944324  0
C  C158  1  0.45083134  0.39025949  0.42090506  1  -0.061847  0  -0.083029  -0.094996  0  3.947387  0
C  C159  1  0.99575108  0.48850152  0.08918350  1  -0.041385  0  -0.007191  -0.03185  0  3.955051  0
C  C160  1  0.95166788  0.60512882  0.93728564  1  -0.007909  0  -0.079336  -0.126433  0  3.967616  0
C  C161  1  0.38877856  0.65056133  0.49035738  1  0.01385  0  -0.097626  -0.177209  0  4.008039  0
C  C162  1  0.65231820  0.88908709  0.34292285  1  -0.045404  0  -0.009636  -0.053339  0  3.962243  0
C  C163  1  0.68465783  0.72284654  0.87467068  1  0.46607  0  0.072113  0.11034  0  3.87114  0
C  C164  1  0.44419714  0.55071604  0.06262842  1  0.040281  0  -0.074835  -0.11789  0  3.970882  0
C  C165  1  0.60201358  0.88175537  0.42448291  1  -0.010622  0  -0.083008  -0.130685  0  3.947861  0
C  C166  1  0.76569062  0.49407749  0.94128930  1  0.062142  0  -0.06857  -0.17108  0  3.907515  0
C  C167  1  0.56320716  0.61049536  0.49140862  1  -0.005228  0  -0.017242  0.03665  0  4.009374  0
C  C168  1  0.82015936  0.17218234  0.50157698  1  0.009213  0  -0.100963  -0.182298  0  4.016354  0
C  C169  1  0.28091635  0.61410202  0.71674735  1  0.309916  0  0.104751  0.19335  0  3.982871  0
C  C170  1  0.39767834  0.74089901  0.95019283  1  1.591319  0  0.244919  0.628068  0  4.087222  0
C  C171  1  0.18404971  0.16124474  0.74513590  1  1.546862  0  0.213191  0.590912  0  4.205998  0
C  C172  1  0.08900148  0.89322346  0.45388721  1  -0.089971  0  -0.089981  -0.11227  0  4.002859  0
C  C173  1  0.81990962  0.94739738  0.49182978  1  -0.017746  0  -0.075893  -0.164986  0  3.930944  0
C  C174  1  0.18172318  0.34745614  0.41803298  1  1.585772  0  0.209627  0.580587  0  4.209536  0
C  C175  1  0.25081770  0.49234253  0.49749296  1  0.001472  0  -0.081209  -0.169496  0  3.947731  0
C  C176  1  0.64702534  0.49633380  0.24206368  1  -0.088741  0  -0.090759  -0.165813  0  3.985971  0
C  C177  1  0.54325314  0.36950077  0.37901096  1  -0.00162  0  -0.09923  -0.174844  0  4.000126  0
C  C178  1  0.31535055  0.27715616  0.12532467  1  0.46591  0  0.072139  0.110291  0  3.871042  0
C  C179  1  0.75765546  0.55095912  0.85099412  1  0.464585  0  0.076089  0.124068  0  3.85913  0
C  C180  1  0.51932691  0.36665889  0.55240300  1  -0.075168  0  -0.086747  -0.102533  0  3.991675  0
C  C181  1  0.91099718  0.10678223  0.54613191  1  -0.090723  0  -0.090072  -0.112403  0  4.003249  0
C  C182  1  0.72712682  0.49547225  0.09762433  1  0.068549  0  -0.012796  0.038256  0  3.988608  0
C  C183  1  0.01851789  0.78174940  0.56534579  1  -0.097369  0  -0.085282  -0.098449  0  3.956023  0
N  N184  1  0.28276165  0.66797857  0.62371803  1  -1.217796  0  -0.238209  -0.130096  0  3.63411  0
N  N185  1  0.71724680  0.33201583  0.37628389  1  -1.217767  0  -0.238219  -0.13018  0  3.634228  0
N  N186  1  0.28183298  0.93111360  0.63750092  1  -1.274198  0  -0.342075  -0.260577  0  3.593088  0
N  N187  1  0.71816878  0.06887364  0.36252236  1  -1.274182  0  -0.342095  -0.260546  0  3.592935  0
N  N188  1  0.71635239  0.66346990  0.81964784  1  -1.323152  0  -0.337497  -0.136019  0  3.651305  0
N  N189  1  0.28364624  0.33653527  0.18035072  1  -1.323379  0  -0.337474  -0.135904  0  3.651289  0
N  N190  1  0.85675092  0.53058645  0.37716902  1  -1.292911  0  -0.343883  -0.2564  0  3.612969  0
N  N191  1  0.14325241  0.46941269  0.62282233  1  -1.292823  0  -0.343765  -0.25628  0  3.612913  0
O  O192  1  0.21551942  0.41082668  0.36304301  1  -1.182663  0  -0.315846  -0.558292  0  2.156126  0
O  O193  1  0.42174801  0.72627666  0.79250508  1  -1.169949  0  -0.337911  -0.573212  0  2.368614  0
O  O194  1  0.61889542  0.93637085  0.05995135  1  -1.230136  0  -0.560747  -0.737816  0  2.048028  0
O  O195  1  0.88707018  0.78748785  0.00731161  1  -1.151409  0  -0.342284  -0.576349  0  2.16005  0
O  O196  1  0.00354472  0.54845103  0.20155237  1  -1.143064  0  -0.335059  -0.559941  0  2.292024  0
O  O197  1  0.00430765  0.38249451  0.24299273  1  -1.177796  0  -0.317654  -0.540972  0  2.15687  0
O  O198  1  0.49569952  0.15101973  0.41171932  1  -1.160149  0  -0.326327  -0.564377  0  2.395227  0
O  O199  1  0.38108913  0.06365239  0.94003464  1  -1.230358  0  -0.560727  -0.737711  0  2.048051  0
O  O200  1  0.42025668  0.39902726  0.23076660  1  -1.15592  0  -0.303872  -0.51798  0  2.153037  0
O  O201  1  0.53857403  0.21559812  0.07934435  1  -1.180807  0  -0.34572  -0.531619  0  2.337449  0
O  O202  1  0.99644737  0.45157650  0.79843145  1  -1.143619  0  -0.334869  -0.55977  0  2.29213  0
O  O203  1  0.99568240  0.61753467  0.75699086  1  -1.177397  0  -0.317756  -0.541144  0  2.156696  0
O  O204  1  0.57265624  0.06808752  0.23222247  1  -1.178689  0  -0.316195  -0.571364  0  2.407545  0
O  O205  1  0.75821862  0.03508360  0.98440306  1  -1.247835  0  -0.567095  -0.765289  0  2.071966  0
O  O206  1  0.90750801  0.64138062  0.58262354  1  -1.166655  0  -0.325323  -0.549488  0  2.364195  0
O  O207  1  0.09013792  0.20969301  0.74795878  1  -1.148001  0  -0.318197  -0.544336  0  2.173744  0
O  O208  1  0.11288905  0.21254235  0.99266336  1  -1.151381  0  -0.342303  -0.576466  0  2.15999  0
O  O209  1  0.09248639  0.35862361  0.41737361  1  -1.166641  0  -0.32541  -0.549553  0  2.364117  0
O  O210  1  0.42734783  0.93190935  0.76777932  1  -1.178831  0  -0.316167  -0.571335  0  2.407734  0
O  O211  1  0.80916083  0.69762386  0.10808100  1  -1.156257  0  -0.311497  -0.547937  0  2.159571  0
O  O212  1  0.43997546  0.07418097  0.77797823  1  -1.171244  0  -0.318798  -0.541902  0  2.137678  0
O  O213  1  0.57827104  0.27371404  0.20751104  1  -1.170236  0  -0.337894  -0.573186  0  2.368449  0
O  O214  1  0.78448351  0.58916563  0.63694653  1  -1.183452  0  -0.315844  -0.558346  0  2.156323  0
O  O215  1  0.56001437  0.92582478  0.22201548  1  -1.17131  0  -0.318898  -0.541937  0  2.137292  0
O  O216  1  0.03649157  0.60137394  0.35483063  1  -1.273375  0  -0.566968  -0.744449  0  2.147628  0
O  O217  1  0.64197206  0.81106439  0.65275200  1  -1.184323  0  -0.323568  -0.563224  0  2.159114  0
O  O218  1  0.24026365  0.09781194  0.81453708  1  -1.178606  0  -0.332098  -0.589386  0  2.42547  0
O  O219  1  0.35802886  0.18892462  0.34724209  1  -1.184634  0  -0.323564  -0.563214  0  2.159173  0
O  O220  1  0.19081780  0.30239434  0.89190959  1  -1.156276  0  -0.311604  -0.548025  0  2.159302  0
O  O221  1  0.69333127  0.20571068  0.03684439  1  -1.160597  0  -0.286832  -0.501613  0  2.136261  0
O  O222  1  0.90985549  0.79031696  0.25203223  1  -1.147841  0  -0.318273  -0.544416  0  2.17348  0
O  O223  1  0.57974920  0.60095388  0.76924716  1  -1.156401  0  -0.30387  -0.518049  0  2.153112  0
O  O224  1  0.30667194  0.79428526  0.96315421  1  -1.160694  0  -0.286871  -0.501656  0  2.136459  0
O  O225  1  0.50430082  0.84895932  0.58828266  1  -1.160273  0  -0.326302  -0.564399  0  2.394929  0
O  O226  1  0.24177019  0.96493233  0.01559213  1  -1.248791  0  -0.567018  -0.765167  0  2.072062  0
O  O227  1  0.96350665  0.39863429  0.64515592  1  -1.273178  0  -0.567053  -0.744417  0  2.147859  0
O  O228  1  0.75972696  0.90218714  0.18545947  1  -1.178926  0  -0.332153  -0.589488  0  2.425431  0
O  O229  1  0.46142837  0.78440067  0.92066743  1  -1.180134  0  -0.345735  -0.531711  0  2.33757  0
