# generated using pymatgen
data_Gd4Ni3H42C30(NO7)6
_symmetry_space_group_name_H-M   'P 1'
_cell_length_a   7.13775190
_cell_length_b   12.64082169
_cell_length_c   14.61587801
_cell_angle_alpha   74.77403013
_cell_angle_beta   89.87916506
_cell_angle_gamma   87.82651704
_symmetry_Int_Tables_number   1
_chemical_formula_structural   Gd4Ni3H42C30(NO7)6
_chemical_formula_sum   'Gd4 Ni3 H42 C30 N6 O42'
_cell_volume   1271.49868885
_cell_formula_units_Z   1
loop_
 _symmetry_equiv_pos_site_id
 _symmetry_equiv_pos_as_xyz
  1  'x, y, z'
loop_
 _atom_site_type_symbol
 _atom_site_label
 _atom_site_symmetry_multiplicity
 _atom_site_fract_x
 _atom_site_fract_y
 _atom_site_fract_z
 _atom_site_occupancy
 _atom_site_hle17_ddec_charge
 _atom_site_hle17_ddec_spin_density
 _atom_site_hle17_ddec_sum_bond_order
 _atom_site_hle17_magmom
 _atom_site_hse06_10hf_ddec_charge
 _atom_site_hse06_10hf_ddec_spin_density
 _atom_site_hse06_10hf_ddec_sum_bond_order
 _atom_site_hse06_10hf_magmom
 _atom_site_hse06_ddec_charge
 _atom_site_hse06_ddec_spin_density
 _atom_site_hse06_ddec_sum_bond_order
 _atom_site_hse06_magmom
 _atom_site_pbe_cm5_charge
 _atom_site_pbe_ddec_charge
 _atom_site_pbe_ddec_spin_density
 _atom_site_pbe_ddec_sum_bond_order
 _atom_site_pbe_magmom
Gd  Gd0  1  0.25375796  0.12649308  0.32586769  1  2.164542  -0.002716  1.73499  -0.004  2.077073  -0.002903  2.075875  -0.004  2.129085  -0.001999  2.026928  -0.003  1.429768  2.036084  -0.003871  2.116398  -0.006
Gd  Gd1  1  0.74623965  0.87350546  0.67413323  1  2.164637  0.002799  1.734838  0.004  2.077149  0.002948  2.07578  0.004  2.129215  0.002037  2.026742  0.003  1.429782  2.036093  0.003918  2.116412  0.006
Gd  Gd2  1  0.68054200  0.54032098  0.25528700  1  2.183941  -0.00529  1.776286  -0.008  2.090621  -0.005501  2.135495  -0.008  2.148374  -0.003748  2.077343  -0.006  1.462921  2.045557  -0.007375  2.182703  -0.011
Gd  Gd3  1  0.31946102  0.45968004  0.74471335  1  2.18397  0.000371  1.776233  0.001  2.090683  0.000276  2.135409  0.001  2.148408  0.000206  2.077308  0.0  1.462924  2.045508  0.00034  2.182754  0.001
Ni  Ni4  1  0.00000292  0.49999956  0.99999910  1  0.824813  -1.777955  2.011292  -1.492  0.827075  -1.829249  2.397895  -1.612  0.915801  -1.886422  2.331031  -1.698  0.641633  0.761115  -1.777326  2.447695  -1.539
Ni  Ni5  1  0.96558325  0.82674189  0.30016127  1  0.822757  -1.771754  2.044594  -1.486  0.826821  -1.82143  2.431426  -1.604  0.913892  -1.879735  2.364852  -1.69  0.651587  0.762422  -1.76843  2.480824  -1.53
Ni  Ni6  1  0.03441160  0.17325583  0.69983642  1  0.822861  1.838656  2.04443  1.486  0.826846  1.866543  2.431385  1.604  0.913967  1.930755  2.364697  1.69  0.65159  0.762393  1.807338  2.480834  1.53
H  H7  1  0.53665277  0.95020736  0.17227189  1  0.120779  -0.000472  0.896633  -0.001  0.138892  -0.000316  0.945731  0.0  0.141464  -0.000213  0.944219  0.0  0.128057  0.136936  -0.000412  0.947099  0.0
H  H8  1  0.46334731  0.04979530  0.82772536  1  0.120789  0.000479  0.896656  0.001  0.138909  0.000306  0.94575  0.0  0.141479  0.000209  0.944237  0.0  0.128071  0.136958  0.000391  0.94711  0.0
H  H9  1  0.67610960  0.06273779  0.16964530  1  0.114434  -0.000671  0.904612  -0.001  0.131064  -0.000545  0.959658  -0.001  0.133559  -0.000387  0.957554  0.0  0.123984  0.129154  -0.000701  0.961416  -0.001
H  H10  1  0.32388934  0.93726158  0.83035543  1  0.114448  0.000661  0.904573  0.001  0.131082  0.000493  0.95962  0.001  0.133576  0.000351  0.957516  0.0  0.123985  0.129171  0.000628  0.961377  0.001
H  H11  1  0.79077095  0.85371174  0.14355840  1  0.280798  0.000509  0.92085  0.002  0.271561  -0.000223  0.975187  0.001  0.279346  -1.7e-05  0.970175  0.001  0.300652  0.26593  -0.000438  0.978956  0.001
H  H12  1  0.20922900  0.14629256  0.85643848  1  0.280802  -0.000617  0.920809  -0.002  0.271524  3.1e-05  0.975206  -0.001  0.279307  -8.8e-05  0.970199  -0.001  0.300624  0.265889  0.00014  0.978981  -0.001
H  H13  1  0.91981737  0.05242422  0.07020282  1  0.083616  -0.001228  0.938652  -0.002  0.098271  -0.000806  1.001234  -0.001  0.099968  -0.00056  0.999781  -0.001  0.108455  0.096979  -0.001017  1.00251  -0.001
H  H14  1  0.08018831  0.94757845  0.92979510  1  0.083594  0.00124  0.938609  0.002  0.098287  0.000778  1.001163  0.001  0.09998  0.000544  0.999708  0.001  0.108452  0.096995  0.000975  1.002437  0.001
H  H15  1  0.06522970  0.93120391  0.08840398  1  0.103646  8.5e-05  0.930564  0.0  0.118422  8.8e-05  0.991215  0.0  0.120846  8.2e-05  0.989003  0.0  0.119317  0.116517  8.8e-05  0.993143  0.0
H  H16  1  0.93477038  0.06879874  0.91159464  1  0.103637  -0.000164  0.930521  0.0  0.118424  -0.000204  0.991168  0.0  0.120845  -0.00016  0.988952  0.0  0.119324  0.11652  -0.00024  0.993098  0.0
H  H17  1  0.30619685  0.68623992  0.08367735  1  0.118536  -0.000774  0.925008  -0.001  0.130843  -0.000592  0.987017  -0.001  0.134511  -0.000413  0.983686  0.0  0.123231  0.128126  -0.000766  0.989533  -0.001
H  H18  1  0.69380336  0.31376110  0.91632027  1  0.118535  -0.000626  0.924949  -0.001  0.13084  -0.000391  0.986995  -0.001  0.134511  -0.000284  0.983661  0.0  0.12324  0.128119  -0.000483  0.989514  -0.001
H  H19  1  0.42546343  0.65162351  0.98898465  1  0.1193  -0.000339  0.904769  -0.001  0.136096  -0.000242  0.957754  0.0  0.138564  -0.000162  0.956307  0.0  0.125844  0.134238  -0.000316  0.959021  0.0
H  H20  1  0.57453951  0.34837834  0.01101277  1  0.119284  -0.000348  0.904825  -0.001  0.136104  -0.000248  0.957798  0.0  0.138572  -0.000165  0.956351  0.0  0.125854  0.134242  -0.000326  0.959069  0.0
H  H21  1  0.15957688  0.68006299  0.90837412  1  0.270285  0.000484  0.908138  0.002  0.260905  -0.000197  0.965986  0.001  0.267341  -2.4e-05  0.962244  0.001  0.306037  0.256173  -0.000365  0.968953  0.0
H  H22  1  0.84042321  0.31993967  0.09162313  1  0.270328  0.000485  0.908104  0.002  0.260935  -0.000202  0.965983  0.001  0.26737  -2.7e-05  0.962243  0.001  0.306075  0.256212  -0.000372  0.968937  0.0
H  H23  1  0.90165838  0.76624942  0.94384974  1  0.136992  4.7e-05  0.935882  0.0  0.150037  7.1e-05  0.993297  0.0  0.153232  5.6e-05  0.991646  0.0  0.127125  0.147695  8.5e-05  0.994591  0.0
H  H24  1  0.09834183  0.23375160  0.05614788  1  0.136972  6.9e-05  0.935876  0.0  0.150001  7.2e-05  0.993295  0.0  0.153191  6.4e-05  0.991641  0.0  0.127112  0.147657  7.5e-05  0.994592  0.0
H  H25  1  0.05479412  0.78772897  0.03229826  1  0.086735  -0.001207  0.93924  -0.002  0.101049  -0.000779  1.002641  -0.001  0.103108  -0.000542  1.000353  -0.001  0.109362  0.09942  -0.00099  1.004612  -0.001
H  H26  1  0.94520462  0.21227287  0.96769918  1  0.086703  -0.001271  0.939364  -0.002  0.101055  -0.000873  1.00266  -0.001  0.103113  -0.000617  1.000372  -0.001  0.109362  0.099425  -0.001098  1.004636  -0.001
H  H27  1  0.27057200  0.59497630  0.42094868  1  0.110711  -0.000553  0.940357  -0.001  0.123755  -0.000371  1.00425  -0.001  0.127003  -0.000273  1.001338  0.0  0.119157  0.121373  -0.000458  1.006517  -0.001
H  H28  1  0.72942848  0.40502142  0.57905447  1  0.110708  0.000576  0.94029  0.001  0.123743  0.000378  1.004189  0.001  0.126986  0.000279  1.001288  0.0  0.119173  0.121368  0.000465  1.006458  0.001
H  H29  1  0.39869820  0.71077165  0.42322836  1  0.113483  -0.000378  0.908137  -0.001  0.130243  -0.00028  0.96161  0.0  0.132697  -0.000192  0.960085  0.0  0.122048  0.128361  -0.000361  0.963048  0.0
H  H30  1  0.60130226  0.28922608  0.57677137  1  0.113479  0.000395  0.908104  0.001  0.1302  0.000287  0.961615  0.0  0.132674  0.000197  0.960065  0.0  0.122044  0.128326  0.00037  0.963057  0.0
H  H31  1  0.14033600  0.78741618  0.46261099  1  0.272642  0.000413  0.910531  0.002  0.263209  -0.000262  0.967688  0.0  0.270041  -7.8e-05  0.96326  0.001  0.304704  0.258184  -0.000434  0.971171  0.0
H  H32  1  0.85966592  0.21258074  0.53738960  1  0.27267  -0.000352  0.910487  -0.002  0.26319  0.000289  0.967682  0.0  0.270022  0.000103  0.963251  -0.001  0.304679  0.258167  0.000461  0.971166  0.0
H  H33  1  0.87778590  0.70357954  0.51489425  1  0.126466  0.000118  0.937057  0.0  0.139775  0.000127  0.994453  0.0  0.142061  0.000101  0.994004  0.0  0.128126  0.138113  0.000147  0.994914  0.0
H  H34  1  0.12221865  0.29641984  0.48511057  1  0.12652  -0.000125  0.937011  0.0  0.139781  -0.000129  0.994491  0.0  0.142064  -0.000103  0.994045  0.0  0.128141  0.138119  -0.000149  0.994954  0.0
H  H35  1  0.02874963  0.58810842  0.52060043  1  0.113266  -0.001232  0.950799  -0.002  0.125817  -0.000754  1.011021  -0.001  0.128134  -0.00053  1.010192  -0.001  0.116983  0.124076  -0.000947  1.011893  -0.001
H  H36  1  0.97124786  0.41189175  0.47940218  1  0.113268  0.001266  0.950725  0.002  0.125836  0.00077  1.010943  0.001  0.128153  0.000542  1.010114  0.001  0.116984  0.124096  0.000965  1.011811  0.001
H  H37  1  0.55499389  0.11479876  0.47634454  1  0.447112  7e-06  0.837005  0.0  0.418712  1.4e-05  0.895963  0.0  0.429805  1e-05  0.879507  0.0  0.307533  0.41074  1.9e-05  0.907798  0.0
H  H38  1  0.44500359  0.88520142  0.52365601  1  0.447047  -7e-06  0.837092  0.0  0.418648  -1.4e-05  0.896051  0.0  0.429742  -1e-05  0.879595  0.0  0.30749  0.410675  -1.8e-05  0.907887  0.0
H  H39  1  0.36333776  0.13890082  0.52058583  1  0.428855  0.000346  0.870437  0.0  0.396533  0.000304  0.937986  0.0  0.408071  0.0002  0.921119  0.0  0.297786  0.38832  0.00041  0.949944  0.0
H  H40  1  0.63665985  0.86109772  0.47941714  1  0.428871  -0.000338  0.870425  0.0  0.396523  -0.000299  0.938023  0.0  0.408065  -0.000197  0.921156  0.0  0.297771  0.388312  -0.000402  0.949981  0.0
H  H41  1  0.56244411  0.28063745  0.22177176  1  0.443872  -8e-06  0.851047  0.0  0.414335  -1.5e-05  0.911197  0.0  0.426025  -1e-05  0.894103  0.0  0.301396  0.406035  -2.1e-05  0.92331  0.0
H  H42  1  0.43755623  0.71936192  0.77822828  1  0.443839  -2e-06  0.851096  0.0  0.414301  -4e-06  0.911246  0.0  0.425992  -3e-06  0.894152  0.0  0.301388  0.405999  -5e-06  0.92336  0.0
H  H43  1  0.36937541  0.30849992  0.16876262  1  0.429501  -0.000391  0.855033  0.0  0.39865  -0.000355  0.926766  0.0  0.409928  -0.000236  0.910135  0.0  0.303217  0.390536  -0.000478  0.938708  0.0
H  H44  1  0.63062505  0.69149782  0.83123643  1  0.429487  -0.000387  0.855081  0.0  0.398639  -0.000347  0.926788  0.0  0.409919  -0.000231  0.910155  0.0  0.303219  0.390522  -0.000465  0.938735  0.0
H  H45  1  0.38020623  0.38302212  0.35631448  1  0.45438  -1e-06  0.841757  0.0  0.422143  1e-06  0.905483  0.0  0.433939  0.0  0.888384  0.0  0.304401  0.413773  2e-06  0.917598  0.0
H  H46  1  0.61979679  0.61697890  0.64368587  1  0.454402  0.0  0.841717  0.0  0.422157  -2e-06  0.905454  0.0  0.433953  -1e-06  0.888356  0.0  0.304406  0.413784  -3e-06  0.917572  0.0
H  H47  1  0.47186601  0.44043142  0.42938528  1  0.441899  4.2e-05  0.824277  0.0  0.417193  5.3e-05  0.888543  0.0  0.425897  3.1e-05  0.875683  0.0  0.319014  0.410922  7.9e-05  0.89783  0.0
H  H48  1  0.52813987  0.55956879  0.57061457  1  0.441883  -4e-05  0.824344  0.0  0.417173  -5.2e-05  0.888583  0.0  0.425879  -3e-05  0.875721  0.0  0.319003  0.410902  -7.9e-05  0.897871  0.0
C  C49  1  0.66655008  0.97389328  0.20068283  1  -0.131718  0.000943  3.606575  0.004  -0.187485  -0.000597  3.864952  0.002  -0.187876  -0.000175  3.87149  0.002  -0.05826  -0.187278  -0.00104  3.860627  0.002
C  C50  1  0.33344867  0.02610855  0.79931666  1  -0.131697  -0.00079  3.606506  -0.004  -0.187491  0.000651  3.864894  -0.002  -0.187876  0.000236  3.871409  -0.002  -0.058248  -0.187284  0.00108  3.860569  -0.002
C  C51  1  0.63912415  0.95608349  0.30705143  1  0.734912  0.000666  3.778064  0.001  0.689283  -0.001186  4.080212  -0.001  0.724944  -0.000752  4.071418  -0.001  0.240426  0.664391  -0.001512  4.08563  -0.002
C  C52  1  0.36087052  0.04391669  0.69294844  1  0.734845  -0.000521  3.778266  -0.001  0.689229  0.001261  4.080386  0.001  0.72491  0.000821  4.071561  0.001  0.240403  0.664329  0.001595  4.085818  0.002
C  C53  1  0.97673900  0.98051228  0.12428941  1  -0.117735  0.001944  3.652975  0.005  -0.176425  5.3e-05  3.916219  0.002  -0.176188  0.000362  3.923842  0.002  -0.066363  -0.176684  -0.000292  3.911236  0.002
C  C54  1  0.02325968  0.01949038  0.87570921  1  -0.117722  -0.001859  3.652845  -0.005  -0.176457  -0.00012  3.91611  -0.002  -0.176208  -0.000384  3.923724  -0.002  -0.066388  -0.176721  0.000169  3.911126  -0.002
C  C55  1  0.10416128  0.02073529  0.19036872  1  0.665435  0.000252  3.864516  0.001  0.621712  -0.001504  4.174325  -0.002  0.655676  -0.000923  4.167176  -0.001  0.199375  0.59815  -0.00212  4.178286  -0.002
C  C56  1  0.89584154  0.97926820  0.80962766  1  0.665378  -0.000128  3.864537  -0.001  0.621663  0.001577  4.17435  0.002  0.655622  0.000988  4.167211  0.001  0.199426  0.598104  0.002197  4.178303  0.002
C  C57  1  0.30334589  0.63230306  0.03558075  1  -0.144164  0.000772  3.600798  0.003  -0.198848  -0.000543  3.857081  0.002  -0.199938  -0.000124  3.863341  0.002  -0.062902  -0.198107  -0.000986  3.852883  0.001
C  C58  1  0.69665699  0.36769960  0.96441718  1  -0.144116  0.000837  3.600752  0.003  -0.19885  -0.000483  3.857195  0.002  -0.199938  -8.9e-05  3.863446  0.002  -0.062889  -0.198099  -0.000898  3.853  0.001
C  C59  1  0.33568377  0.51514348  0.09587507  1  0.723379  0.001478  3.796022  0.002  0.679791  -0.000713  4.098503  0.0  0.715409  -0.000383  4.090628  0.0  0.234013  0.654966  -0.00093  4.103127  -0.001
C  C60  1  0.66432064  0.48485754  0.90412390  1  0.723326  0.001493  3.796178  0.003  0.67966  -0.000677  4.098812  0.0  0.715277  -0.00036  4.090936  0.0  0.233964  0.654824  -0.000878  4.103444  0.0
C  C61  1  0.98857181  0.72416158  0.00569269  1  -0.139016  0.001558  3.631143  0.004  -0.194435  -2.8e-05  3.890617  0.002  -0.195379  0.000267  3.897632  0.002  -0.068674  -0.193804  -0.000358  3.885929  0.002
C  C62  1  0.01142693  0.27584026  0.99430475  1  -0.139138  0.001457  3.63128  0.004  -0.194425  -0.000168  3.890607  0.002  -0.195363  0.000173  3.897616  0.002  -0.068676  -0.193793  -0.000543  3.885924  0.002
C  C63  1  0.86162753  0.66296920  0.08292071  1  0.680502  0.001085  3.834214  0.002  0.635677  -0.000878  4.143903  -0.001  0.670069  -0.000496  4.137078  0.0  0.209813  0.611841  -0.001239  4.147533  -0.001
C  C64  1  0.13837707  0.33702937  0.91707882  1  0.680656  0.001031  3.834103  0.002  0.635703  -0.000929  4.143944  -0.001  0.670098  -0.000537  4.137109  0.0  0.209832  0.611858  -0.001297  4.147568  -0.001
C  C65  1  0.27350037  0.68446621  0.39282163  1  -0.141087  0.000539  3.598016  0.003  -0.19533  -0.000641  3.85196  0.001  -0.196115  -0.000187  3.858174  0.002  -0.066028  -0.194869  -0.001111  3.847944  0.001
C  C66  1  0.72649729  0.31553151  0.60717948  1  -0.141002  -0.000465  3.597805  -0.003  -0.195213  0.000672  3.851733  -0.001  -0.196011  0.000234  3.857931  -0.002  -0.06604  -0.19478  0.001116  3.847755  -0.001
C  C67  1  0.30023380  0.71007508  0.28581812  1  0.728599  0.002007  3.802656  0.004  0.6877  -0.000721  4.106234  0.0  0.723674  -0.000381  4.097581  0.0  0.229478  0.662593  -0.000957  4.111292  0.0
C  C68  1  0.69976125  0.28992017  0.71418287  1  0.728742  -0.001811  3.802718  -0.003  0.687798  0.000766  4.106317  0.0  0.723783  0.000433  4.097652  0.0  0.229555  0.662686  0.000987  4.111398  0.0
C  C69  1  0.96376069  0.66155746  0.47190081  1  -0.148128  0.001591  3.619558  0.004  -0.200208  0.0  3.87086  0.002  -0.201685  0.000325  3.878039  0.002  -0.074075  -0.199349  -0.000354  3.866343  0.002
C  C70  1  0.03623820  0.33844272  0.52810248  1  -0.148097  -0.001422  3.619431  -0.004  -0.200227  5.8e-05  3.870773  -0.002  -0.201709  -0.000267  3.877953  -0.002  -0.074064  -0.199359  0.000406  3.866238  -0.002
C  C71  1  0.83494880  0.62677759  0.40446017  1  0.684352  0.00114  3.844895  0.002  0.636852  -0.000937  4.156795  -0.001  0.671662  -0.000521  4.148812  0.0  0.205566  0.61266  -0.001341  4.161352  -0.001
C  C72  1  0.16504734  0.37322176  0.59554331  1  0.684296  -0.001029  3.844812  -0.002  0.636863  0.000989  4.156643  0.001  0.671684  0.000572  4.148653  0.0  0.205604  0.612669  0.001391  4.161189  0.001
C  C73  1  0.04910026  0.37121585  0.30131617  1  0.583419  4.1e-05  3.889737  0.0  0.535369  5.4e-05  4.194661  0.0  0.56596  4.5e-05  4.184485  0.0  0.227635  0.514507  7.5e-05  4.20086  0.0
C  C74  1  0.95090294  0.62878271  0.69868405  1  0.583517  -1.4e-05  3.889688  0.0  0.535408  -3.1e-05  4.194598  0.0  0.565997  -5e-06  4.184424  0.0  0.227659  0.514552  -6.6e-05  4.200781  0.0
C  C75  1  0.91507712  0.30884462  0.25394745  1  0.572618  0.000185  3.908081  0.0  0.524158  0.00013  4.217101  0.0  0.554987  0.00011  4.205624  0.0  0.222342  0.503141  0.000151  4.224242  0.0
C  C76  1  0.08491763  0.69115473  0.74605467  1  0.572351  0.000144  3.908432  0.0  0.524107  0.000128  4.217103  0.0  0.554934  0.000107  4.20563  0.0  0.222373  0.503084  0.000155  4.224238  0.0
C  C77  1  0.06700267  0.94889888  0.51149143  1  0.569168  0.000147  3.904475  0.0  0.522786  0.000116  4.212969  0.0  0.553035  9.5e-05  4.202657  0.0  0.220788  0.502202  0.000139  4.21916  0.0
C  C78  1  0.93299908  0.05110049  0.48851067  1  0.569109  -0.000156  3.904561  0.0  0.522678  -0.000114  4.213119  0.0  0.552939  -9.1e-05  4.20279  0.0  0.220728  0.502098  -0.000135  4.219309  0.0
N  N79  1  0.83010388  0.91231731  0.17655237  1  -0.343207  -0.058094  3.28577  -0.086  -0.304062  -0.037599  3.560306  -0.055  -0.330317  -0.030094  3.573053  -0.046  -0.485662  -0.285268  -0.043345  3.551356  -0.062
N  N80  1  0.16989474  0.08768616  0.82344607  1  -0.343215  0.060246  3.285617  0.086  -0.30402  0.038413  3.560176  0.055  -0.330286  0.030911  3.572905  0.046  -0.485652  -0.285205  0.044044  3.551217  0.062
N  N81  1  0.12894755  0.65018315  0.97851208  1  -0.328575  -0.056632  3.255601  -0.085  -0.290438  -0.036392  3.531111  -0.054  -0.315938  -0.029013  3.544695  -0.045  -0.478997  -0.272167  -0.042081  3.52163  -0.061
N  N82  1  0.87105119  0.34981869  0.02148467  1  -0.328485  -0.056641  3.255541  -0.085  -0.290395  -0.036406  3.531079  -0.054  -0.315895  -0.029023  3.544665  -0.045  -0.478982  -0.272116  -0.042098  3.521598  -0.061
N  N83  1  0.10331982  0.73771528  0.42115963  1  -0.330358  -0.057446  3.260654  -0.086  -0.293034  -0.036421  3.535642  -0.054  -0.318503  -0.029268  3.548269  -0.045  -0.485177  -0.274805  -0.041779  3.526913  -0.06
N  N84  1  0.89667791  0.26228162  0.57884166  1  -0.330536  0.059783  3.260568  0.086  -0.293062  0.037404  3.535451  0.054  -0.318544  0.030176  3.548076  0.045  -0.485159  -0.274814  0.042749  3.526729  0.06
O  O85  1  0.51385171  0.01403623  0.33382596  1  -0.716108  -0.003482  2.069361  -0.005  -0.672787  -0.0025  2.32239  -0.004  -0.699369  -0.001505  2.310879  -0.002  -0.41354  -0.653531  -0.003613  2.330027  -0.005
O  O86  1  0.48614723  0.98596314  0.66617477  1  -0.716116  0.003631  2.069429  0.005  -0.672803  0.002569  2.322459  0.004  -0.699402  0.001553  2.310934  0.002  -0.413526  -0.653529  0.003692  2.330107  0.005
O  O87  1  0.73963582  0.88284865  0.36512802  1  -0.599803  -0.039958  2.060077  -0.064  -0.552047  -0.029232  2.306404  -0.047  -0.588258  -0.023523  2.29633  -0.039  -0.292014  -0.526086  -0.03414  2.313173  -0.053
O  O88  1  0.26036439  0.11715236  0.63487097  1  -0.599787  0.041643  2.060198  0.064  -0.552  0.030035  2.306462  0.047  -0.588228  0.024261  2.296373  0.039  -0.291988  -0.526029  0.034949  2.313241  0.053
O  O89  1  0.22497308  0.09027162  0.15895373  1  -0.629141  -0.005701  1.965335  -0.008  -0.591563  -0.004226  2.193688  -0.006  -0.615459  -0.00277  2.18495  -0.004  -0.334012  -0.57435  -0.005858  2.199138  -0.008
O  O90  1  0.77501987  0.90973265  0.84104317  1  -0.629194  0.005905  1.965262  0.008  -0.59161  0.00431  2.19361  0.006  -0.61552  0.002839  2.184891  0.004  -0.334054  -0.574382  0.005947  2.19905  0.008
O  O91  1  0.08100582  0.98144577  0.28068579  1  -0.691599  -0.03585  2.127611  -0.056  -0.662914  -0.027202  2.402372  -0.042  -0.699843  -0.021652  2.396078  -0.034  -0.364082  -0.635686  -0.032117  2.406122  -0.049
O  O92  1  0.91900450  0.01855118  0.71931272  1  -0.691514  0.037379  2.127648  0.056  -0.662847  0.027958  2.402445  0.042  -0.699789  0.022343  2.396145  0.034  -0.364088  -0.6356  0.032884  2.406198  0.049
O  O93  1  0.22820101  0.43992847  0.08699125  1  -0.593963  -0.046424  2.025625  -0.074  -0.55468  -0.032112  2.277708  -0.052  -0.591704  -0.025355  2.268435  -0.042  -0.296684  -0.52785  -0.037967  2.283686  -0.06
O  O94  1  0.77180219  0.56007009  0.91301034  1  -0.593918  -0.046406  2.025833  -0.074  -0.554627  -0.0321  2.277997  -0.052  -0.591649  -0.02535  2.268727  -0.042  -0.296675  -0.527798  -0.037947  2.283977  -0.06
O  O95  1  0.47438423  0.49629850  0.15198217  1  -0.715177  -0.003766  2.084441  -0.006  -0.672622  -0.002458  2.342619  -0.004  -0.699919  -0.001382  2.331629  -0.002  -0.409767  -0.652693  -0.003698  2.349748  -0.005
O  O96  1  0.52561974  0.50370827  0.84801414  1  -0.715221  -0.003762  2.084494  -0.006  -0.67259  -0.002418  2.342626  -0.003  -0.699911  -0.001359  2.331696  -0.002  -0.409769  -0.652639  -0.003632  2.349744  -0.005
O  O97  1  0.74805896  0.71371530  0.12401655  1  -0.633707  -0.004681  1.972851  -0.007  -0.592798  -0.003289  2.200957  -0.005  -0.616751  -0.002022  2.191129  -0.003  -0.332515  -0.575646  -0.004703  2.207338  -0.007
O  O98  1  0.25195852  0.28628001  0.87599053  1  -0.633718  -0.005509  1.972769  -0.008  -0.592797  -0.003918  2.200974  -0.005  -0.616747  -0.002589  2.191143  -0.004  -0.332536  -0.57564  -0.005366  2.207362  -0.007
O  O99  1  0.87348883  0.55724019  0.10677960  1  -0.678632  -0.039382  2.140854  -0.062  -0.649535  -0.029021  2.417335  -0.046  -0.687503  -0.023002  2.411114  -0.037  -0.34947  -0.621654  -0.034275  2.421026  -0.053
O  O100  1  0.12650435  0.44276082  0.89321256  1  -0.678721  -0.039413  2.140763  -0.062  -0.649594  -0.029046  2.417289  -0.046  -0.687559  -0.023026  2.411065  -0.037  -0.349512  -0.621699  -0.034293  2.420978  -0.053
O  O101  1  0.43960113  0.66411904  0.25644673  1  -0.74089  -0.004227  2.093614  -0.006  -0.702789  -0.002792  2.353093  -0.004  -0.730051  -0.001559  2.340594  -0.002  -0.419569  -0.682716  -0.004218  2.361211  -0.006
O  O102  1  0.56039354  0.33588113  0.74355178  1  -0.740983  0.00412  2.093664  0.006  -0.702876  0.002617  2.353169  0.004  -0.730131  0.001477  2.340659  0.002  -0.419607  -0.68278  0.003893  2.361298  0.005
O  O103  1  0.18539859  0.77644984  0.23085075  1  -0.583602  -0.054886  2.012737  -0.087  -0.559477  -0.036451  2.275511  -0.059  -0.59642  -0.028392  2.265838  -0.047  -0.310205  -0.532334  -0.043518  2.281373  -0.069
O  O104  1  0.81459098  0.22354375  0.76915062  1  -0.583693  0.057028  2.012824  0.087  -0.559511  0.037307  2.275595  0.059  -0.596469  0.029191  2.265907  0.047  -0.310214  -0.532355  0.044345  2.281465  0.068
O  O105  1  0.84276169  0.67756599  0.31580486  1  -0.677914  -0.040347  2.165419  -0.064  -0.645897  -0.030248  2.442161  -0.048  -0.683496  -0.02401  2.435222  -0.039  -0.359947  -0.618243  -0.035707  2.44632  -0.055
O  O106  1  0.15723190  0.32243007  0.68419936  1  -0.677938  0.042097  2.165224  0.064  -0.645973  0.031126  2.44203  0.048  -0.683586  0.024811  2.435078  0.039  -0.359964  -0.618288  0.036599  2.446184  0.055
O  O107  1  0.72464209  0.54929244  0.43303699  1  -0.668668  -0.004899  1.953945  -0.007  -0.623451  -0.003511  2.193002  -0.005  -0.648613  -0.002234  2.182971  -0.003  -0.336436  -0.605375  -0.004936  2.199454  -0.007
O  O108  1  0.27535687  0.45070691  0.56697058  1  -0.668593  0.005018  1.953981  0.007  -0.623417  0.003523  2.193034  0.005  -0.648561  0.002262  2.18296  0.003  -0.336461  -0.605326  0.004915  2.19948  0.007
O  O109  1  0.99599869  0.46477205  0.30865320  1  -0.636034  2e-06  2.023723  0.0  -0.598141  6e-06  2.260986  0.0  -0.621431  2.2e-05  2.253006  0.0  -0.35022  -0.581623  -1.8e-05  2.266304  0.0
O  O110  1  0.00400286  0.53522980  0.69134492  1  -0.636041  4.3e-05  2.023716  0.0  -0.598143  5.9e-05  2.260997  0.0  -0.621427  4.1e-05  2.253016  0.0  -0.350223  -0.581618  7.7e-05  2.266309  0.0
O  O111  1  0.20376350  0.32021016  0.33086438  1  -0.666886  -3.5e-05  2.151817  0.0  -0.610529  -4.7e-05  2.383982  0.0  -0.637029  -2.3e-05  2.375381  0.0  -0.340944  -0.591722  -8.3e-05  2.389586  0.0
O  O112  1  0.79623824  0.67978922  0.66913566  1  -0.666884  -9.2e-05  2.151736  0.0  -0.610545  -7.9e-05  2.383962  0.0  -0.637052  -5.3e-05  2.375356  0.0  -0.34096  -0.591732  -0.000113  2.38956  0.0
O  O113  1  0.75028514  0.35116634  0.23736621  1  -0.649884  0.000154  2.106092  0.0  -0.596756  0.000143  2.338936  0.0  -0.621919  0.000136  2.328622  0.0  -0.334337  -0.57893  0.00014  2.345805  0.0
O  O114  1  0.24970943  0.64883546  0.76264014  1  -0.649726  0.000216  2.10622  0.0  -0.596689  0.000192  2.338967  0.0  -0.621844  0.000156  2.328653  0.0  -0.334395  -0.578855  0.000227  2.345837  0.0
O  O115  1  0.97844181  0.22359702  0.23310715  1  -0.641152  -0.000134  2.032176  0.0  -0.604012  -0.000136  2.273294  0.0  -0.62751  -6.5e-05  2.264905  0.0  -0.353565  -0.58734  -0.000221  2.278852  0.0
O  O116  1  0.02154860  0.77640396  0.76689323  1  -0.64111  0.000152  2.032347  0.0  -0.604031  0.000135  2.273336  0.0  -0.627534  9.9e-05  2.264946  0.0  -0.353566  -0.587356  0.000172  2.278902  0.0
O  O117  1  0.22105096  0.95629684  0.46754489  1  -0.64642  0.000267  2.077017  0.0  -0.599704  0.000236  2.3116  0.0  -0.623117  0.000207  2.301563  0.0  -0.323034  -0.583043  0.00026  2.31828  0.0
O  O118  1  0.77895091  0.04370090  0.53245689  1  -0.646421  -0.000259  2.077048  0.0  -0.59967  -0.000234  2.311626  0.0  -0.623089  -0.000208  2.301579  0.0  -0.32301  -0.582998  -0.000259  2.318301  0.0
O  O119  1  0.01086629  0.86452230  0.57153841  1  -0.662018  -7e-06  2.060215  0.0  -0.620305  -3.1e-05  2.301375  0.0  -0.644941  -1.1e-05  2.293433  0.0  -0.365725  -0.602684  -5.5e-05  2.306475  0.0
O  O120  1  0.98913826  0.13547708  0.42846436  1  -0.66198  -2e-06  2.060234  0.0  -0.620249  1.9e-05  2.301387  0.0  -0.644882  -1e-06  2.293444  0.0  -0.365694  -0.602638  4e-05  2.306484  0.0
O  O121  1  0.43209560  0.15404329  0.45930588  1  -0.886194  0.00051  1.838277  0.001  -0.849316  0.000371  2.019872  0.001  -0.867776  0.000239  1.985668  0.0  -0.634823  -0.835629  0.000505  2.044121  0.001
O  O122  1  0.56789792  0.84595360  0.54069474  1  -0.886149  -0.000491  1.838269  -0.001  -0.849251  -0.000364  2.019868  -0.001  -0.867723  -0.000234  1.985642  0.0  -0.634763  -0.835562  -0.000498  2.044129  -0.001
O  O123  1  0.44614020  0.24615941  0.20734643  1  -0.893476  -0.000357  1.847883  -0.001  -0.856895  -0.000421  2.03707  -0.001  -0.875888  -0.00027  2.002441  0.0  -0.636627  -0.842756  -0.000587  2.061453  -0.001
O  O124  1  0.55385734  0.75383995  0.79265567  1  -0.893452  -0.000208  1.847945  0.0  -0.856874  -0.000162  2.037119  0.0  -0.875873  -0.000113  2.002484  0.0  -0.636625  -0.842725  -0.0002  2.061508  -0.001
O  O125  1  0.49341376  0.42187667  0.36954856  1  -0.908119  -2e-05  1.864439  0.0  -0.872404  -2.5e-05  2.066118  0.0  -0.891283  -7e-06  2.033267  0.0  -0.647313  -0.858461  -5.8e-05  2.089386  0.0
O  O126  1  0.50658645  0.57812435  0.63045111  1  -0.908158  -1e-06  1.864476  0.0  -0.872436  -1.4e-05  2.066137  0.0  -0.891309  -1.5e-05  2.033279  0.0  -0.647322  -0.858484  -8e-06  2.089413  0.0
