# generated using pymatgen
data_NiH32C34S2(NO)6
_symmetry_space_group_name_H-M   'P 1'
_cell_length_a   6.96214654
_cell_length_b   9.45930117
_cell_length_c   12.78132397
_cell_angle_alpha   73.97963334
_cell_angle_beta   86.07698601
_cell_angle_gamma   83.46471830
_symmetry_Int_Tables_number   1
_chemical_formula_structural   NiH32C34S2(NO)6
_chemical_formula_sum   'Ni1 H32 C34 S2 N6 O6'
_cell_volume   803.18904576
_cell_formula_units_Z   1
loop_
 _symmetry_equiv_pos_site_id
 _symmetry_equiv_pos_as_xyz
  1  'x, y, z'
loop_
 _atom_site_type_symbol
 _atom_site_label
 _atom_site_symmetry_multiplicity
 _atom_site_fract_x
 _atom_site_fract_y
 _atom_site_fract_z
 _atom_site_occupancy
 _atom_site_hle17_ddec_charge
 _atom_site_hle17_ddec_spin_density
 _atom_site_hle17_ddec_sum_bond_order
 _atom_site_hle17_magmom
 _atom_site_hse06_10hf_ddec_charge
 _atom_site_hse06_10hf_ddec_spin_density
 _atom_site_hse06_10hf_ddec_sum_bond_order
 _atom_site_hse06_10hf_magmom
 _atom_site_hse06_ddec_charge
 _atom_site_hse06_ddec_spin_density
 _atom_site_hse06_ddec_sum_bond_order
 _atom_site_hse06_magmom
 _atom_site_pbe_cm5_charge
 _atom_site_pbe_ddec_charge
 _atom_site_pbe_ddec_spin_density
 _atom_site_pbe_ddec_sum_bond_order
 _atom_site_pbe_magmom
Ni  Ni0  1  0.49999901  0.49999957  0.99999936  1  0.82359  0.039542  1.989884  0.035  0.838501  -0.002978  2.373995  -0.004  0.936273  -0.006273  2.295273  -0.008  0.620809  0.770283  -0.008825  2.431215  -0.007
H  H1  1  0.87384700  0.41605819  0.93760722  1  0.406419  -0.000249  0.883449  -0.001  0.376596  0.000402  0.962337  0.0  0.387395  0.00021  0.946976  0.0  0.285952  0.368862  -0.000566  0.97331  0.0
H  H2  1  0.12615024  0.58393942  0.06239240  1  0.406389  -0.000249  0.883418  -0.001  0.376536  0.000402  0.962428  0.0  0.387334  0.00021  0.947067  0.0  0.285925  0.368798  -0.000566  0.973406  0.0
H  H3  1  0.84602121  0.42037966  0.06069443  1  0.39632  -0.000478  0.918995  -0.001  0.365106  6.9e-05  0.990978  0.0  0.376521  -7.2e-05  0.974652  0.0  0.280677  0.356988  -0.000202  1.002402  0.0
H  H4  1  0.15397456  0.57961795  0.93930602  1  0.396285  -0.000478  0.918995  -0.001  0.365086  6.9e-05  0.990995  0.0  0.376501  -7.2e-05  0.974669  0.0  0.280663  0.356971  -0.000202  1.002416  0.0
H  H5  1  0.56164537  0.88113332  0.05307336  1  0.100449  -6.2e-05  0.965381  0.0  0.112547  -6e-05  1.0255  0.0  0.115458  -1.2e-05  1.022908  0.0  0.109301  0.11036  0.000122  1.027366  0.0
H  H6  1  0.43835052  0.11886318  0.94692887  1  0.100427  -6e-05  0.96535  0.0  0.112528  -6e-05  1.025465  0.0  0.115438  -1.3e-05  1.022873  0.0  0.10931  0.110339  0.000122  1.027332  0.0
H  H7  1  0.64727903  0.13726408  0.05455143  1  0.122139  -0.000107  0.966903  0.0  0.129674  -6.6e-05  1.029293  0.0  0.133007  -6.2e-05  1.02822  0.0  0.107929  0.126714  6.2e-05  1.031182  0.0
H  H8  1  0.35271834  0.86273242  0.94544841  1  0.122124  -0.000112  0.966903  0.0  0.129634  -6.6e-05  1.02932  0.0  0.132964  -6.1e-05  1.028259  0.0  0.107905  0.126674  6.2e-05  1.03121  0.0
H  H9  1  0.92639340  0.14688199  0.16049215  1  0.065899  0.00011  0.960853  0.0  0.075035  8.5e-05  1.027907  0.0  0.077822  5.1e-05  1.024807  0.0  0.109051  0.073687  -0.000156  1.028887  0.0
H  H10  1  0.07360396  0.85311451  0.83950848  1  0.065882  0.000106  0.960841  0.0  0.074988  8.5e-05  1.027931  0.0  0.077791  5.1e-05  1.024813  0.0  0.109049  0.073642  -0.000155  1.028912  0.0
H  H11  1  0.37174646  0.78491493  0.27170765  1  0.106423  -6.2e-05  0.929647  0.0  0.121589  -5.2e-05  0.98969  0.0  0.122655  -3.2e-05  0.989426  0.0  0.099867  0.120755  8e-05  0.990005  0.0
H  H12  1  0.62825537  0.21508157  0.72828579  1  0.106489  -5.1e-05  0.92955  0.0  0.121607  -5.2e-05  0.989631  0.0  0.12267  -3.2e-05  0.989366  0.0  0.099876  0.120774  8e-05  0.989945  0.0
H  H13  1  0.18664341  0.80162886  0.37190125  1  0.092096  -1.8e-05  0.962839  0.0  0.104284  1e-06  1.031458  0.0  0.105818  1e-06  1.030246  0.0  0.096434  0.103252  5e-06  1.032152  0.0
H  H14  1  0.81336769  0.19836213  0.62809772  1  0.092055  -1.6e-05  0.962972  0.0  0.104236  1e-06  1.031572  0.0  0.105775  2e-06  1.030352  0.0  0.096416  0.103206  5e-06  1.032266  0.0
H  H15  1  0.15684045  0.57548167  0.54314159  1  0.08719  -4e-06  0.979223  0.0  0.09607  -8e-06  1.048844  0.0  0.098806  -4e-06  1.048029  0.0  0.094611  0.09406  1.6e-05  1.049661  0.0
H  H16  1  0.84317558  0.42451596  0.45685353  1  0.0872  -4e-06  0.979295  0.0  0.096039  -8e-06  1.048983  0.0  0.09878  -4e-06  1.048154  0.0  0.094652  0.094029  1.6e-05  1.049798  0.0
H  H17  1  0.65100764  0.61065423  0.31930746  1  0.083564  -1.4e-05  1.00328  0.0  0.090782  -3.3e-05  1.073651  0.0  0.092694  -2.2e-05  1.073661  0.0  0.091758  0.089238  5.2e-05  1.073984  0.0
H  H18  1  0.34900726  0.38934119  0.68068736  1  0.08354  -1.5e-05  1.003341  0.0  0.090835  -3.3e-05  1.073605  0.0  0.092749  -2.2e-05  1.073614  0.0  0.091822  0.089291  5.2e-05  1.073938  0.0
H  H19  1  0.18336705  0.27238073  0.06586012  1  0.102511  0.000286  0.977552  0.0  0.110819  0.000425  1.039328  0.0  0.112536  0.00031  1.038668  0.0  0.118892  0.109261  -0.000541  1.040291  0.0
H  H20  1  0.81663465  0.72761578  0.93413959  1  0.102528  0.000282  0.977521  0.0  0.110805  0.000425  1.03934  0.0  0.112521  0.00031  1.038681  0.0  0.118876  0.109248  -0.000541  1.040304  0.0
H  H21  1  0.19031574  0.05777425  0.26255148  1  0.115238  -0.0  1.00375  0.0  0.116286  9.2e-05  1.078085  0.0  0.120221  7.4e-05  1.07515  0.0  0.119357  0.113522  -9.8e-05  1.080062  0.0
H  H22  1  0.80967924  0.94222889  0.73745100  1  0.115239  -4e-06  1.003734  0.0  0.116267  9.2e-05  1.078088  0.0  0.1202  7.4e-05  1.075156  0.0  0.119372  0.113508  -9.8e-05  1.08006  0.0
H  H23  1  0.62792343  0.34159021  0.24986731  1  0.109505  6.3e-05  0.93147  0.0  0.115138  2e-05  0.997853  0.0  0.11806  3.3e-05  0.994116  0.0  0.138952  0.112894  2e-06  1.000545  0.0
H  H24  1  0.37207464  0.65841182  0.75013217  1  0.109507  6.3e-05  0.93147  0.0  0.11514  2e-05  0.997843  0.0  0.118062  3.3e-05  0.994105  0.0  0.138953  0.112897  2e-06  1.000534  0.0
H  H25  1  0.02958747  0.16431243  0.44156832  1  0.10925  1.2e-05  0.931935  0.0  0.133589  9e-06  0.98801  0.0  0.134321  6e-06  0.988335  0.0  0.092511  0.133089  -9e-06  0.987708  0.0
H  H26  1  0.97040441  0.83570175  0.55844140  1  0.109282  1.2e-05  0.931976  0.0  0.133623  9e-06  0.988042  0.0  0.134359  6e-06  0.988364  0.0  0.092553  0.133124  -9e-06  0.987742  0.0
H  H27  1  0.17670249  0.31232480  0.40265853  1  0.114281  2e-06  0.962205  0.0  0.128256  -6e-06  1.034386  0.0  0.129895  -4e-06  1.034243  0.0  0.091075  0.127034  9e-06  1.034571  0.0
H  H28  1  0.82329578  0.68768497  0.59734953  1  0.114366  -3e-06  0.962185  0.0  0.128338  -6e-06  1.034342  0.0  0.12998  -4e-06  1.034198  0.0  0.091098  0.127116  9e-06  1.03453  0.0
H  H29  1  0.10831962  0.24036353  0.54219105  1  0.110905  4e-06  0.962163  0.0  0.130296  2e-06  1.027949  0.0  0.131292  1e-06  1.02846  0.0  0.091109  0.129407  0.0  1.027881  0.0
H  H30  1  0.89168600  0.75964514  0.45781701  1  0.111007  3e-06  0.962175  0.0  0.130357  2e-06  1.027971  0.0  0.131365  1e-06  1.028467  0.0  0.091158  0.12947  0.0  1.0279  0.0
H  H31  1  0.27336997  0.01525425  0.65535979  1  0.112018  -1.2e-05  0.975502  0.0  0.120151  -1.1e-05  1.040939  0.0  0.122354  -6e-06  1.041093  0.0  0.104804  0.118381  3.2e-05  1.041265  0.0
H  H32  1  0.72661925  0.98474887  0.34464287  1  0.111958  -1.2e-05  0.975679  0.0  0.120152  -1.1e-05  1.041043  0.0  0.122355  -6e-06  1.041195  0.0  0.104826  0.118382  3.2e-05  1.041368  0.0
C  C33  1  0.75758005  0.62470548  0.13107420  1  0.624079  -0.000766  3.941171  0.001  0.577785  -0.004054  4.239143  -0.002  0.615102  -0.002771  4.231107  -0.002  0.198482  0.551851  0.005637  4.243865  0.003
C  C34  1  0.24241878  0.37529103  0.86892482  1  0.624188  -0.00078  3.941055  0.001  0.577936  -0.004054  4.239012  -0.002  0.615255  -0.002772  4.230976  -0.002  0.198623  0.552003  0.005638  4.24373  0.003
C  C35  1  0.80276828  0.76890537  0.14598689  1  -0.170209  -0.007224  3.744032  -0.006  -0.150499  -0.003432  3.982113  -0.003  -0.163481  -0.002312  4.00227  -0.002  -0.026755  -0.142271  0.004724  3.969195  0.004
C  C36  1  0.19722910  0.23109113  0.85401295  1  -0.170335  -0.007219  3.744174  -0.006  -0.150722  -0.003432  3.982373  -0.003  -0.163708  -0.002312  4.002529  -0.002  -0.026856  -0.14249  0.004724  3.969449  0.004
C  C37  1  0.68566066  0.89606228  0.09488331  1  -0.010721  -0.000552  3.723449  0.0  -0.037356  -0.001047  3.969861  -0.001  -0.030951  -0.000699  3.986088  -0.001  -0.068615  -0.041036  0.001305  3.958688  0.001
C  C38  1  0.31433641  0.10393643  0.90511687  1  -0.010589  -0.000564  3.723454  0.0  -0.03719  -0.001046  3.969866  -0.001  -0.030782  -0.000699  3.986091  -0.001  -0.068564  -0.04087  0.001305  3.95869  0.001
C  C39  1  0.72939045  0.03500859  0.09677916  1  -0.135162  0.000625  3.741359  0.001  -0.152261  0.000387  3.998881  0.0  -0.159445  0.00034  4.018926  0.0  -0.097988  -0.147629  -0.000474  3.985853  0.0
C  C40  1  0.27060822  0.96498902  0.90322041  1  -0.135143  0.000629  3.741296  0.001  -0.152221  0.000386  3.998813  0.0  -0.159408  0.00034  4.018859  0.0  -0.097956  -0.147587  -0.000474  3.985787  0.0
C  C41  1  0.88808347  0.04033066  0.15539181  1  0.134992  -0.001053  3.745341  -0.001  0.107879  -0.000891  4.004581  -0.001  0.116509  -0.000578  4.018882  0.0  0.041387  0.102116  0.001595  3.994184  0.001
C  C42  1  0.11191533  0.95966584  0.84460877  1  0.134973  -0.001035  3.745388  -0.001  0.107891  -0.000891  4.004609  -0.001  0.116511  -0.000578  4.018906  0.0  0.041353  0.102127  0.001595  3.994215  0.001
C  C43  1  0.96245196  0.78645492  0.20336956  1  0.184084  -0.001616  3.755798  -0.001  0.178847  -0.001327  4.023841  -0.001  0.191489  -0.000923  4.040033  -0.001  0.122653  0.170009  0.002194  4.013328  0.002
C  C44  1  0.03754671  0.21354269  0.79663002  1  0.184067  -0.001626  3.755873  -0.001  0.178874  -0.001327  4.023885  -0.001  0.191517  -0.000923  4.040076  -0.001  0.122656  0.170035  0.002194  4.013371  0.002
C  C45  1  0.27664030  0.72293206  0.33588781  1  -0.190308  6.4e-05  3.686673  0.0  -0.234432  -8e-06  3.945654  0.0  -0.232547  -2e-06  3.953949  0.0  -0.147218  -0.235528  2.4e-05  3.939818  0.0
C  C46  1  0.72336882  0.27706335  0.66410798  1  -0.190242  4.1e-05  3.686716  0.0  -0.234368  -8e-06  3.945783  0.0  -0.232474  -1e-06  3.954053  0.0  -0.147138  -0.235467  2.4e-05  3.939949  0.0
C  C47  1  0.39065329  0.60758085  0.42046889  1  0.093377  -1.3e-05  3.769061  0.0  0.11581  3e-06  4.003235  0.0  0.115337  2e-06  4.02765  0.0  -0.020309  0.116064  5e-06  3.986668  0.0
C  C48  1  0.60935903  0.39241236  0.57952568  1  0.093457  -1.8e-05  3.768944  0.0  0.115962  3e-06  4.00302  0.0  0.115487  1e-06  4.027427  0.0  -0.020207  0.116212  5e-06  3.986459  0.0
C  C49  1  0.30766176  0.54388492  0.52338154  1  -0.1245  -2.4e-05  3.761162  0.0  -0.143473  0.0  4.007154  0.0  -0.146172  2e-06  4.029022  0.0  -0.098515  -0.141717  4e-06  3.992515  0.0
C  C50  1  0.69235176  0.45611050  0.47661020  1  -0.124578  -1.8e-05  3.761151  0.0  -0.143551  0.0  4.007117  0.0  -0.146248  2e-06  4.028986  0.0  -0.098605  -0.141795  4e-06  3.992485  0.0
C  C51  1  0.58405384  0.56162204  0.39853477  1  -0.114195  6.6e-05  3.74872  0.0  -0.133124  2.3e-05  3.995698  0.0  -0.135706  2.1e-05  4.018094  0.0  -0.098112  -0.131131  -7e-06  3.980748  0.0
C  C52  1  0.41596108  0.43837337  0.60145848  1  -0.114377  7.9e-05  3.748825  0.0  -0.13339  2.3e-05  3.995806  0.0  -0.135975  2.1e-05  4.018203  0.0  -0.098315  -0.131393  -7e-06  3.980856  0.0
C  C53  1  0.27692880  0.25604451  0.13307901  1  0.005583  -0.000302  3.731761  0.0  -0.025271  0.000464  4.003672  0.0  -0.02172  0.000209  4.025041  0.0  0.00018  -0.028269  -0.000651  3.990444  -0.001
C  C54  1  0.72306938  0.74395642  0.86692226  1  0.005549  -0.000294  3.731676  0.0  -0.025257  0.000464  4.003581  0.0  -0.021711  0.00021  4.024949  0.0  0.000202  -0.028248  -0.000651  3.990355  -0.001
C  C55  1  0.27474235  0.15131235  0.23139505  1  -0.06067  0.000999  3.665329  0.001  -0.098355  0.000652  3.922937  0.001  -0.097547  0.000554  3.940549  0.0  0.00166  -0.098817  -0.000689  3.911221  -0.001
C  C56  1  0.72525124  0.84869078  0.76860512  1  -0.060667  0.001009  3.665325  0.001  -0.098338  0.000652  3.922936  0.001  -0.097529  0.000553  3.940548  0.0  0.001639  -0.098799  -0.000689  3.911217  -0.001
C  C57  1  0.50840421  0.29566831  0.22515227  1  0.17337  -0.00186  3.591465  -0.002  0.11511  -7.2e-05  3.86742  0.0  0.132322  -0.000317  3.878277  0.0  0.149073  0.103393  -6.5e-05  3.86027  0.0
C  C58  1  0.49159082  0.70433482  0.77484786  1  0.173302  -0.00186  3.591486  -0.002  0.115069  -7.1e-05  3.867439  0.0  0.132276  -0.000316  3.878294  0.0  0.149062  0.103357  -6.5e-05  3.860288  0.0
C  C59  1  0.46355212  0.09116485  0.39744998  1  0.121296  0.00018  3.756397  0.0  0.108657  0.000218  4.00373  0.0  0.111827  0.000154  4.027048  0.0  0.092082  0.106328  -0.000363  3.988099  0.0
C  C60  1  0.53644133  0.90883938  0.60254998  1  0.121206  0.000183  3.756308  0.0  0.108528  0.000216  4.003648  0.0  0.111699  0.000154  4.026962  0.0  0.091987  0.106183  -0.000363  3.988047  0.0
C  C61  1  0.32946696  0.10221594  0.48279984  1  0.097009  0.000186  3.740978  0.0  0.115726  0.000143  3.982909  0.0  0.115463  8.7e-05  4.006602  0.0  -0.002566  0.115627  -0.000149  3.967206  0.0
C  C62  1  0.67052760  0.89779050  0.51720119  1  0.097052  0.000173  3.740958  0.0  0.115834  0.000144  3.982811  0.0  0.115571  8.7e-05  4.0065  0.0  -0.002531  0.115736  -0.000149  3.967116  0.0
C  C63  1  0.15184082  0.21060731  0.46630327  1  -0.328871  -2.7e-05  3.720854  0.0  -0.410034  1e-06  3.959971  0.0  -0.411651  0.0  3.968932  0.0  -0.239922  -0.408606  3e-06  3.954029  0.0
C  C64  1  0.84815764  0.78940136  0.53370345  1  -0.32909  -1.7e-05  3.721024  0.0  -0.41022  1e-06  3.960109  0.0  -0.411865  0.0  3.969084  0.0  -0.240008  -0.408793  3e-06  3.954172  0.0
C  C65  1  0.37037987  0.00832637  0.58597126  1  -0.181022  -4.6e-05  3.711094  0.0  -0.207027  2.4e-05  3.958824  0.0  -0.210434  1.5e-05  3.97943  0.0  -0.087311  -0.204726  -0.00012  3.945704  0.0
C  C66  1  0.62961340  0.99167897  0.41403004  1  -0.181022  -3.8e-05  3.71128  0.0  -0.207107  2.2e-05  3.958987  0.0  -0.210512  1.4e-05  3.979589  0.0  -0.087415  -0.20481  -0.00012  3.945859  0.0
S  S67  1  0.11584061  0.63266539  0.27267806  1  0.036229  -0.001335  2.360463  -0.001  0.038912  -0.000712  2.695953  -0.001  0.033105  -0.000412  2.696011  0.0  0.041402  0.042335  0.001257  2.696531  0.001
S  S68  1  0.88416000  0.36732890  0.72731900  1  0.03624  -0.00133  2.360529  -0.001  0.038923  -0.000712  2.696014  -0.001  0.033109  -0.000411  2.696069  0.0  0.041389  0.042347  0.001257  2.696588  0.001
N  N69  1  0.42296510  0.34455644  0.12979555  1  -0.319275  0.00861  3.3356  0.008  -0.2862  0.014656  3.647237  0.013  -0.319604  0.012174  3.668517  0.011  -0.354124  -0.263987  -0.01611  3.633849  -0.015
N  N70  1  0.57703328  0.65544338  0.87020359  1  -0.319177  0.008608  3.335535  0.008  -0.286146  0.014655  3.64719  0.013  -0.319542  0.012173  3.668468  0.011  -0.354113  -0.263944  -0.01611  3.633807  -0.015
N  N71  1  0.42162357  0.17742725  0.28903145  1  -0.096062  0.000341  3.624603  0.0  -0.003585  0.000573  3.831121  0.001  -0.017982  0.000412  3.856409  0.0  -0.229262  0.005923  -0.000691  3.814181  -0.001
N  N72  1  0.57836970  0.82257809  0.71096985  1  -0.09609  0.000338  3.624554  0.0  -0.003613  0.000573  3.831084  0.001  -0.018008  0.000412  3.856365  0.0  -0.229274  0.005898  -0.000691  3.81415  -0.001
N  N73  1  0.99948572  0.92055011  0.20902665  1  -0.368241  -0.000701  3.137176  -0.001  -0.322962  -0.000205  3.398373  0.0  -0.337664  -1e-06  3.412968  0.0  -0.326325  -0.312792  0.000537  3.388327  0.0
N  N74  1  0.00051587  0.07944750  0.79097127  1  -0.368232  -0.0007  3.137342  -0.001  -0.322937  -0.000205  3.398479  0.0  -0.337643  -1e-06  3.413083  0.0  -0.326299  -0.312769  0.000537  3.388437  0.0
O  O75  1  0.58783470  0.62155151  0.10085830  1  -0.588243  -0.073129  2.066661  -0.076  -0.561418  -0.047014  2.3399  -0.05  -0.600614  -0.037056  2.332723  -0.04  -0.304642  -0.532098  0.056685  2.343506  0.059
O  O76  1  0.41216353  0.37844941  0.89914062  1  -0.588299  -0.073116  2.066722  -0.076  -0.561475  -0.047012  2.339935  -0.05  -0.600671  -0.037053  2.332756  -0.04  -0.304684  -0.532156  0.056683  2.343541  0.059
O  O77  1  0.79579384  0.37858638  0.00493365  1  -0.785946  0.060489  1.910383  0.065  -0.760635  0.044526  2.125779  0.046  -0.789615  0.035229  2.09387  0.037  -0.570608  -0.738765  -0.052211  2.148218  -0.053
O  O78  1  0.20420336  0.62141122  0.99506754  1  -0.785872  0.060488  1.910289  0.065  -0.760546  0.044526  2.125726  0.046  -0.789526  0.035228  2.093823  0.037  -0.570561  -0.738684  -0.05221  2.148194  -0.053
O  O79  1  0.89270341  0.51839066  0.14507578  1  -0.64249  -0.002162  2.001694  -0.002  -0.577423  -0.002288  2.220083  -0.003  -0.602873  -0.001463  2.21032  -0.002  -0.317249  -0.558774  0.003164  2.225648  0.003
O  O80  1  0.10729542  0.48160584  0.85492323  1  -0.642498  -0.00216  2.001545  -0.002  -0.577498  -0.002289  2.219982  -0.003  -0.60294  -0.001464  2.210201  -0.002  -0.317325  -0.558853  0.003165  2.225547  0.003
