# generated using pymatgen
data_CdH10C16S(NO2)2
_symmetry_space_group_name_H-M   'P 1'
_cell_length_a   11.72354854
_cell_length_b   15.81038066
_cell_length_c   19.39254185
_cell_angle_alpha   89.94181816
_cell_angle_beta   90.00003986
_cell_angle_gamma   90.00005342
_symmetry_Int_Tables_number   1
_chemical_formula_structural   CdH10C16S(NO2)2
_chemical_formula_sum   'Cd8 H80 C128 S8 N16 O32'
_cell_volume   3594.47879410
_cell_formula_units_Z   8
loop_
 _symmetry_equiv_pos_site_id
 _symmetry_equiv_pos_as_xyz
  1  'x, y, z'
loop_
 _atom_site_type_symbol
 _atom_site_label
 _atom_site_symmetry_multiplicity
 _atom_site_fract_x
 _atom_site_fract_y
 _atom_site_fract_z
 _atom_site_occupancy
 _atom_site_pbe_bader_charge
 _atom_site_pbe_bader_spin_density
 _atom_site_pbe_cm5_charge
 _atom_site_pbe_ddec_charge
 _atom_site_pbe_ddec_spin_density
 _atom_site_pbe_ddec_sum_bond_order
 _atom_site_pbe_magmom
Cd  Cd0  1  0.34331885  0.64706158  0.05967756  1  1.292699  0  0.775462  0.884117  0  2.220386  0
Cd  Cd1  1  0.34331352  0.85293722  0.94032063  1  1.292817  0  0.775463  0.884143  0  2.220358  0
Cd  Cd2  1  0.65668590  0.35293476  0.94032084  1  1.2928  0  0.775441  0.884115  0  2.220367  0
Cd  Cd3  1  0.65668441  0.14706164  0.05967829  1  1.292813  0  0.775479  0.884141  0  2.220327  0
Cd  Cd4  1  0.32577117  0.14301202  0.44169950  1  1.290808  0  0.777657  0.889048  0  2.217934  0
Cd  Cd5  1  0.32577137  0.35698984  0.55830103  1  1.290791  0  0.777684  0.888985  0  2.218071  0
Cd  Cd6  1  0.67422761  0.85698937  0.55830044  1  1.290828  0  0.777663  0.88901  0  2.218024  0
Cd  Cd7  1  0.67422656  0.64301156  0.44170046  1  1.290798  0  0.777675  0.889023  0  2.217965  0
H  H8  1  0.34123319  0.26938308  0.28168323  1  0.09662  0  0.106187  0.133213  0  1.012287  0
H  H9  1  0.34122745  0.23061753  0.71831937  1  0.096176  0  0.106188  0.133201  0  1.012339  0
H  H10  1  0.65877070  0.73061705  0.71831980  1  0.096176  0  0.106197  0.133222  0  1.012306  0
H  H11  1  0.65877218  0.76938260  0.28168264  1  0.096167  0  0.106182  0.133198  0  1.012343  0
H  H12  1  0.34858249  0.35861959  0.16372903  1  0.083806  0  0.100644  0.110532  0  1.034371  0
H  H13  1  0.34857934  0.14137976  0.83627358  1  0.083803  0  0.100663  0.11052  0  1.034323  0
H  H14  1  0.65142226  0.64137991  0.83627401  1  0.083788  0  0.10066  0.110522  0  1.034321  0
H  H15  1  0.65141859  0.85861847  0.16372843  1  0.083809  0  0.100621  0.110513  0  1.034298  0
H  H16  1  0.36187069  0.85885261  0.33320892  1  0.083484  0  0.102197  0.112725  0  1.028691  0
H  H17  1  0.36187075  0.64114557  0.66679031  1  0.083696  0  0.102208  0.112768  0  1.028676  0
H  H18  1  0.63812723  0.14114942  0.66678948  1  0.083408  0  0.102254  0.112792  0  1.02869  0
H  H19  1  0.63812803  0.35885329  0.33321067  1  0.083672  0  0.102245  0.112743  0  1.028655  0
H  H20  1  0.36187910  0.77127959  0.21479472  1  0.131381  0  0.106646  0.133582  0  1.010773  0
H  H21  1  0.36187855  0.72871922  0.78520450  1  0.13139  0  0.106652  0.133607  0  1.010745  0
H  H22  1  0.63811883  0.22872054  0.78520471  1  0.131369  0  0.106622  0.133578  0  1.010778  0
H  H23  1  0.63811938  0.27128154  0.21479596  1  0.131399  0  0.106651  0.133624  0  1.010733  0
H  H24  1  0.52682548  0.22335443  0.34933672  1  0.112456  0  0.120667  0.096438  0  0.988648  0
H  H25  1  0.52682483  0.27664947  0.65066183  1  0.112464  0  0.120692  0.096476  0  0.988631  0
H  H26  1  0.47317245  0.77664823  0.65066374  1  0.111893  0  0.120662  0.096416  0  0.988686  0
H  H27  1  0.47317480  0.72335193  0.34933657  1  0.112425  0  0.120674  0.096447  0  0.988629  0
H  H28  1  0.73843717  0.22775296  0.34307118  1  0.101896  0  0.10829  0.115302  0  1.013902  0
H  H29  1  0.73843482  0.27225298  0.65692901  1  0.101956  0  0.108276  0.115298  0  1.013966  0
H  H30  1  0.26156076  0.77224907  0.65692825  1  0.101906  0  0.108282  0.115296  0  1.013889  0
H  H31  1  0.26156396  0.72775158  0.34307145  1  0.101896  0  0.108296  0.115331  0  1.013898  0
H  H32  1  0.74199157  0.07987301  0.53212975  1  0.150677  0  0.110668  0.126184  0  1.026037  0
H  H33  1  0.74199260  0.42012724  0.46786683  1  0.150584  0  0.110672  0.126139  0  1.026052  0
H  H34  1  0.25800635  0.92012901  0.46787019  1  0.150631  0  0.110641  0.126133  0  1.026047  0
H  H35  1  0.25800788  0.57987542  0.53213260  1  0.150679  0  0.110701  0.126202  0  1.026013  0
H  H36  1  0.53447505  0.08353175  0.53038421  1  0.155618  0  0.120541  0.099301  0  0.998687  0
H  H37  1  0.53447523  0.41646963  0.46961280  1  0.155549  0  0.120547  0.099347  0  0.998583  0
H  H38  1  0.46552373  0.91647092  0.46961573  1  0.155564  0  0.120522  0.099292  0  0.998675  0
H  H39  1  0.46552440  0.58353303  0.53038611  1  0.155605  0  0.12055  0.099293  0  0.998697  0
H  H40  1  0.12214421  0.17872552  0.33479604  1  0.103401  0  0.120466  0.098012  0  0.98718  0
H  H41  1  0.12214279  0.32127557  0.66520390  1  0.103388  0  0.120462  0.098019  0  0.987184  0
H  H42  1  0.87785883  0.82127651  0.66520803  1  0.103328  0  0.120491  0.098029  0  0.987066  0
H  H43  1  0.87785770  0.67872772  0.33479605  1  0.103395  0  0.12045  0.098035  0  0.987201  0
H  H44  1  0.90922075  0.18058564  0.32815885  1  0.089144  0  0.11277  0.122013  0  0.995167  0
H  H45  1  0.90921933  0.31941853  0.67184141  1  0.089148  0  0.112742  0.121966  0  0.995192  0
H  H46  1  0.09078315  0.81941513  0.67184161  1  0.089102  0  0.112754  0.121955  0  0.995205  0
H  H47  1  0.09078030  0.68058983  0.32815957  1  0.089159  0  0.112771  0.122004  0  0.995154  0
H  H48  1  0.90496957  0.12759820  0.54722652  1  0.091589  0  0.114281  0.124492  0  0.990623  0
H  H49  1  0.90496967  0.37240343  0.45277322  1  0.09195  0  0.114262  0.124448  0  0.990641  0
H  H50  1  0.09502580  0.87240003  0.45277291  1  0.091755  0  0.114307  0.124513  0  0.990578  0
H  H51  1  0.09502826  0.62759164  0.54722621  1  0.091883  0  0.114251  0.124472  0  0.990637  0
H  H52  1  0.11660161  0.12474776  0.54336421  1  0.090737  0  0.118922  0.093214  0  1.002814  0
H  H53  1  0.11660087  0.37525016  0.45663624  1  0.090745  0  0.118931  0.09324  0  1.002828  0
H  H54  1  0.88339291  0.87524731  0.45663729  1  0.090738  0  0.118911  0.093172  0  1.002872  0
H  H55  1  0.88339621  0.62474491  0.54336319  1  0.090722  0  0.118935  0.093211  0  1.002807  0
H  H56  1  0.55418553  0.58584398  0.96962574  1  0.131942  0  0.121963  0.101746  0  0.991541  0
H  H57  1  0.55418178  0.91415496  0.03037615  1  0.13191  0  0.121961  0.101646  0  0.991599  0
H  H58  1  0.44581837  0.41415172  0.03037524  1  0.131922  0  0.121951  0.101618  0  0.991589  0
H  H59  1  0.44581871  0.08584517  0.96962431  1  0.131903  0  0.121962  0.101662  0  0.991585  0
H  H60  1  0.76111946  0.59188617  0.96469404  1  0.110019  0  0.109558  0.12156  0  1.0182  0
H  H61  1  0.76111656  0.90811355  0.03530586  1  0.110035  0  0.109557  0.121586  0  1.01818  0
H  H62  1  0.23888443  0.40811016  0.03530745  1  0.110041  0  0.109574  0.121584  0  1.01821  0
H  H63  1  0.23888307  0.09188785  0.96469305  1  0.110017  0  0.109554  0.121592  0  1.018188  0
H  H64  1  0.75395743  0.72841257  0.15913714  1  0.089241  0  0.109081  0.116486  0  1.013119  0
H  H65  1  0.75395273  0.77158967  0.84086121  1  0.089221  0  0.109096  0.116536  0  1.013024  0
H  H66  1  0.24604306  0.27159135  0.84086125  1  0.089247  0  0.109122  0.116597  0  1.013023  0
H  H67  1  0.24604519  0.22841046  0.15913770  1  0.08927  0  0.109092  0.116527  0  1.013022  0
H  H68  1  0.54254105  0.72110224  0.15279853  1  0.087094  0  0.121692  0.097843  0  0.9891  0
H  H69  1  0.54253553  0.77889860  0.84720231  1  0.087002  0  0.121674  0.097841  0  0.989119  0
H  H70  1  0.45746114  0.27889726  0.84720038  1  0.086989  0  0.121676  0.097833  0  0.989087  0
H  H71  1  0.45746411  0.22110280  0.15279763  1  0.087029  0  0.121671  0.097842  0  0.989087  0
H  H72  1  0.13784316  0.56727609  0.99245454  1  0.125536  0  0.116461  0.091402  0  1.027615  0
H  H73  1  0.13784197  0.93272131  0.00754408  1  0.12554  0  0.116435  0.091347  0  1.027506  0
H  H74  1  0.86215733  0.43271961  0.00754592  1  0.125622  0  0.116462  0.091401  0  1.027484  0
H  H75  1  0.86215767  0.06727819  0.99245226  1  0.125581  0  0.116437  0.091377  0  1.027591  0
H  H76  1  0.92516706  0.55952191  0.99150396  1  0.067045  0  0.109015  0.112405  0  1.033776  0
H  H77  1  0.92516673  0.94047792  0.00849498  1  0.067076  0  0.109032  0.112436  0  1.033764  0
H  H78  1  0.07483257  0.44047822  0.00849547  1  0.067069  0  0.109037  0.112445  0  1.033753  0
H  H79  1  0.07483376  0.05952095  0.99150290  1  0.067022  0  0.109051  0.112434  0  1.033699  0
H  H80  1  0.92379168  0.77264084  0.13102958  1  0.07911  0  0.112742  0.121828  0  0.989878  0
H  H81  1  0.92378099  0.72735962  0.86896936  1  0.079132  0  0.112737  0.121794  0  0.989815  0
H  H82  1  0.07621648  0.22735866  0.86897088  1  0.079234  0  0.112707  0.121743  0  0.989844  0
H  H83  1  0.07621608  0.27263924  0.13102801  1  0.07926  0  0.112741  0.121787  0  0.989866  0
H  H84  1  0.13612061  0.76836926  0.12807285  1  0.116173  0  0.120746  0.092709  0  0.986686  0
H  H85  1  0.13611078  0.73162814  0.87192319  1  0.116215  0  0.120743  0.092683  0  0.986735  0
H  H86  1  0.86388585  0.23162581  0.87192658  1  0.116207  0  0.120738  0.092668  0  0.986725  0
H  H87  1  0.86388544  0.26837009  0.12807315  1  0.116254  0  0.120748  0.092697  0  0.98672  0
C  C88  1  0.33220020  0.39060039  0.33471445  1  -0.210271  0  -0.033697  -0.132945  0  4.002823  0
C  C89  1  0.33220704  0.10940085  0.66528661  1  -0.210363  0  -0.033713  -0.132936  0  4.002769  0
C  C90  1  0.66779943  0.60940100  0.66528808  1  -0.210372  0  -0.033736  -0.132991  0  4.002745  0
C  C91  1  0.66779601  0.89059992  0.33471488  1  -0.210217  0  -0.033699  -0.132956  0  4.002691  0
C  C92  1  0.33888412  0.33820317  0.27741322  1  0.049788  0  -0.104371  -0.124023  0  3.996865  0
C  C93  1  0.33888768  0.16179807  0.72258939  1  0.050218  0  -0.104441  -0.12409  0  3.996795  0
C  C94  1  0.66111722  0.66179759  0.72258982  1  0.050248  0  -0.104398  -0.124074  0  3.99681  0
C  C95  1  0.66111366  0.83820143  0.27741262  1  0.050116  0  -0.104398  -0.12407  0  3.996836  0
C  C96  1  0.34212204  0.38490266  0.21536577  1  -0.053009  0  -0.108738  -0.126217  0  4.021639  0
C  C97  1  0.34212049  0.11509732  0.78463529  1  -0.05305  0  -0.108652  -0.126046  0  4.02153  0
C  C98  1  0.65788015  0.61509684  0.78463624  1  -0.053056  0  -0.108664  -0.126064  0  4.021584  0
C  C99  1  0.65787914  0.88490218  0.21536672  1  -0.053021  0  -0.108683  -0.126129  0  4.021601  0
C  C100  1  0.33784353  0.47166570  0.22593831  1  -0.213801  0  -0.026954  -0.111439  0  3.980071  0
C  C101  1  0.33784357  0.02833554  0.77406274  1  -0.213782  0  -0.026983  -0.111497  0  3.980169  0
C  C102  1  0.66215525  0.52833506  0.77406318  1  -0.213806  0  -0.027007  -0.111499  0  3.9802  0
C  C103  1  0.66215521  0.97166333  0.22593875  1  -0.214004  0  -0.026972  -0.11151  0  3.980206  0
C  C104  1  0.32657736  0.36728158  0.40829060  1  1.553633  0  0.187609  0.570757  0  4.295105  0
C  C105  1  0.32657988  0.13272345  0.59171148  1  1.554188  0  0.187511  0.570551  0  4.295345  0
C  C106  1  0.67342057  0.63272298  0.59171244  1  1.553467  0  0.187707  0.570869  0  4.294738  0
C  C107  1  0.67342317  0.86727795  0.40829053  1  1.55362  0  0.187559  0.570688  0  4.29526  0
C  C108  1  0.33720125  0.53832293  0.17212643  1  1.607563  0  0.175114  0.561847  0  4.303911  0
C  C109  1  0.33720104  0.96167650  0.82787381  1  1.607574  0  0.175087  0.561767  0  4.303937  0
C  C110  1  0.66279839  0.46167593  0.82787403  1  1.607591  0  0.175069  0.561778  0  4.303965  0
C  C111  1  0.66279603  0.03832300  0.17212716  1  1.607513  0  0.175046  0.561806  0  4.303917  0
C  C112  1  0.33886916  0.97188583  0.27201352  1  -0.215164  0  -0.026389  -0.112168  0  3.981851  0
C  C113  1  0.33887000  0.52811297  0.72798569  1  -0.215168  0  -0.026384  -0.11219  0  3.981813  0
C  C114  1  0.66113474  0.02811620  0.72798436  1  -0.215153  0  -0.026392  -0.11214  0  3.981757  0
C  C115  1  0.66112622  0.47188653  0.27201477  1  -0.215246  0  -0.026406  -0.112159  0  3.98193  0
C  C116  1  0.35225158  0.88548083  0.28182445  1  -0.056292  0  -0.106144  -0.121428  0  4.014854  0
C  C117  1  0.35225252  0.61451798  0.71817529  1  -0.056536  0  -0.106136  -0.121436  0  4.014889  0
C  C118  1  0.64774720  0.11452057  0.71817447  1  -0.056394  0  -0.106211  -0.121539  0  4.01496  0
C  C119  1  0.64774456  0.38548278  0.28182465  1  -0.056553  0  -0.106162  -0.121374  0  4.014938  0
C  C120  1  0.35322136  0.83975709  0.21937980  1  -0.000608  0  -0.103225  -0.121156  0  3.996963  0
C  C121  1  0.35321986  0.66024109  0.78061891  1  -0.000566  0  -0.103236  -0.121195  0  3.997086  0
C  C122  1  0.64677913  0.16024304  0.78061808  1  -0.00061  0  -0.10321  -0.121166  0  3.997081  0
C  C123  1  0.64677636  0.33975968  0.21938155  1  -0.00056  0  -0.103233  -0.121243  0  3.997206  0
C  C124  1  0.34086077  0.89258413  0.16254829  1  -0.206534  0  -0.035281  -0.139507  0  4.017987  0
C  C125  1  0.34085586  0.60741531  0.83745092  1  -0.206549  0  -0.035272  -0.139568  0  4.018023  0
C  C126  1  0.65914313  0.10741600  0.83744959  1  -0.206544  0  -0.035294  -0.139535  0  4.018042  0
C  C127  1  0.65913866  0.39258546  0.16254902  1  -0.206541  0  -0.0353  -0.139566  0  4.018035  0
C  C128  1  0.33149285  0.03748560  0.32638058  1  1.575015  0  0.17789  0.562499  0  4.302453  0
C  C129  1  0.33149417  0.46251374  0.67361841  1  1.575058  0  0.177913  0.562539  0  4.302477  0
C  C130  1  0.66850934  0.96251517  0.67361833  1  1.575074  0  0.177952  0.56257  0  4.302672  0
C  C131  1  0.66850290  0.53748639  0.32638256  1  1.575041  0  0.177873  0.562458  0  4.302557  0
C  C132  1  0.33996508  0.87046327  0.08880235  1  1.554658  0  0.187618  0.570482  0  4.289974  0
C  C133  1  0.33996370  0.62953553  0.91119635  1  1.55467  0  0.187751  0.570789  0  4.289801  0
C  C134  1  0.66003626  0.12953750  0.91119502  1  1.554638  0  0.187685  0.570631  0  4.289938  0
C  C135  1  0.66003508  0.37046333  0.08880359  1  1.554673  0  0.187706  0.570704  0  4.289832  0
C  C136  1  0.57902384  0.19379353  0.38917107  1  0.420886  0  0.047999  0.095124  0  3.954668  0
C  C137  1  0.57902404  0.30620914  0.61082699  1  0.420909  0  0.047988  0.095037  0  3.954882  0
C  C138  1  0.42097323  0.80620850  0.61082887  1  0.421487  0  0.048011  0.095088  0  3.954654  0
C  C139  1  0.42097559  0.69379226  0.38917193  1  0.42096  0  0.047981  0.095078  0  3.954702  0
C  C140  1  0.69740182  0.19566700  0.38614286  1  0.008382  0  -0.082776  -0.177561  0  3.963721  0
C  C141  1  0.69740032  0.30433765  0.61385679  1  0.008775  0  -0.082732  -0.17748  0  3.963766  0
C  C142  1  0.30259781  0.80433503  0.61385656  1  0.008461  0  -0.082769  -0.177483  0  3.963623  0
C  C143  1  0.30259847  0.69566564  0.38614315  1  0.008502  0  -0.08279  -0.177599  0  3.963688  0
C  C144  1  0.76122380  0.15585149  0.43817794  1  -0.058104  0  0.008252  0.086693  0  3.989974  0
C  C145  1  0.76122399  0.34415131  0.56182020  1  -0.058246  0  0.008148  0.086555  0  3.989916  0
C  C146  1  0.23877413  0.84414864  0.56182098  1  -0.058032  0  0.008239  0.086648  0  3.989883  0
C  C147  1  0.23877564  0.65585135  0.43817974  1  -0.058177  0  0.008246  0.086681  0  3.989962  0
C  C148  1  0.70081121  0.11528027  0.49097132  1  -0.030653  0  -0.074508  -0.142955  0  3.905891  0
C  C149  1  0.70080968  0.38472122  0.50902679  1  -0.030678  0  -0.074508  -0.142838  0  3.905966  0
C  C150  1  0.29918843  0.88472113  0.50902862  1  -0.030659  0  -0.074521  -0.142944  0  3.905848  0
C  C151  1  0.29918910  0.61528207  0.49097264  1  -0.030701  0  -0.074536  -0.14295  0  3.905958  0
C  C152  1  0.58245626  0.11620538  0.49025981  1  0.502245  0  0.055191  0.114677  0  3.906277  0
C  C153  1  0.58245814  0.38379540  0.50973773  1  0.502429  0  0.055104  0.11444  0  3.906332  0
C  C154  1  0.41754167  0.88379602  0.50974013  1  0.502265  0  0.055222  0.114691  0  3.906266  0
C  C155  1  0.41754234  0.61620663  0.49026169  1  0.502229  0  0.055155  0.114628  0  3.906297  0
C  C156  1  0.06965159  0.16831101  0.38053342  1  0.475076  0  0.050598  0.096507  0  3.950844  0
C  C157  1  0.06965184  0.33169068  0.61946804  1  0.47507  0  0.050618  0.096475  0  3.950723  0
C  C158  1  0.93034975  0.83168912  0.61946859  1  0.475159  0  0.050608  0.096502  0  3.950878  0
C  C159  1  0.93034865  0.66831008  0.38053242  1  0.475052  0  0.050606  0.096439  0  3.950833  0
C  C160  1  0.95103064  0.16960344  0.37755821  1  -0.007423  0  -0.079949  -0.176248  0  3.936761  0
C  C161  1  0.95102918  0.33039885  0.62244104  1  -0.007427  0  -0.079911  -0.176161  0  3.936835  0
C  C162  1  0.04896900  0.83039542  0.62244328  1  -0.007386  0  -0.07992  -0.176129  0  3.936764  0
C  C163  1  0.04896961  0.66960318  0.37755839  1  -0.007379  0  -0.079923  -0.176175  0  3.936741  0
C  C164  1  0.88719078  0.15485817  0.43770809  1  -0.007689  0  0.016594  0.112904  0  3.969755  0
C  C165  1  0.88719182  0.34514408  0.56229267  1  -0.007379  0  0.01665  0.112935  0  3.969758  0
C  C166  1  0.11280715  0.84514006  0.56229134  1  -0.007848  0  0.016599  0.112895  0  3.969777  0
C  C167  1  0.11280866  0.65485605  0.43770779  1  -0.007534  0  0.016588  0.112858  0  3.969772  0
C  C168  1  0.94862698  0.13867299  0.49850060  1  -0.038092  0  -0.079151  -0.170631  0  3.939119  0
C  C169  1  0.94862542  0.36132930  0.50149968  1  -0.03786  0  -0.079102  -0.1705  0  3.93885  0
C  C170  1  0.05137010  0.86132398  0.50150038  1  -0.038023  0  -0.079145  -0.170609  0  3.939122  0
C  C171  1  0.05137251  0.63866830  0.49849975  1  -0.03767  0  -0.079078  -0.170529  0  3.93904  0
C  C172  1  0.06693148  0.13786271  0.49707392  1  0.54667  0  0.048132  0.096726  0  3.961375  0
C  C173  1  0.06693248  0.36213708  0.50292599  1  0.546687  0  0.048083  0.096598  0  3.961232  0
C  C174  1  0.93306475  0.86213236  0.50292654  1  0.54663  0  0.048101  0.096723  0  3.961301  0
C  C175  1  0.93306716  0.63785925  0.49707344  1  0.546676  0  0.047998  0.096557  0  3.96137  0
C  C176  1  0.60082445  0.61907347  0.00996398  1  0.442593  0  0.058781  0.121973  0  3.903591  0
C  C177  1  0.60082178  0.88092488  0.99003587  1  0.442706  0  0.058811  0.122159  0  3.903825  0
C  C178  1  0.39917859  0.38092287  0.99003597  1  0.442716  0  0.058834  0.122195  0  3.903632  0
C  C179  1  0.39917871  0.11907462  0.00996305  1  0.442629  0  0.05882  0.122149  0  3.903733  0
C  C180  1  0.71916064  0.62228707  0.00815939  1  0.075041  0  -0.074653  -0.147554  0  3.908628  0
C  C181  1  0.71915455  0.87771326  0.99184102  1  0.075189  0  -0.074627  -0.147572  0  3.908646  0
C  C182  1  0.28084326  0.37771116  0.99184056  1  0.075165  0  -0.074665  -0.14759  0  3.908753  0
C  C183  1  0.28084423  0.12228751  0.00815841  1  0.075483  0  -0.074633  -0.147627  0  3.908702  0
C  C184  1  0.77853095  0.66254470  0.06155078  1  -0.047332  0  0.007197  0.086245  0  3.988991  0
C  C185  1  0.77852645  0.83745693  0.93844758  1  -0.047167  0  0.007149  0.086159  0  3.988804  0
C  C186  1  0.22147210  0.33745669  0.93844865  1  -0.047258  0  0.007208  0.08626  0  3.988913  0
C  C187  1  0.22147233  0.16254320  0.06155082  1  -0.04773  0  0.007196  0.086271  0  3.988866  0
C  C188  1  0.71366583  0.69864309  0.11480002  1  -0.082393  0  -0.082481  -0.178534  0  3.962312  0
C  C189  1  0.71365952  0.80135850  0.88519935  1  -0.082253  0  -0.08245  -0.178526  0  3.962116  0
C  C190  1  0.28633722  0.30135831  0.88519838  1  -0.082399  0  -0.082535  -0.178702  0  3.962266  0
C  C191  1  0.28633926  0.19864163  0.11480008  1  -0.082275  0  -0.082485  -0.178595  0  3.962263  0
C  C192  1  0.59546270  0.69391038  0.11227419  1  0.58152  0  0.050512  0.097741  0  3.953567  0
C  C193  1  0.59545896  0.80609113  0.88772513  1  0.581343  0  0.050562  0.097811  0  3.953413  0
C  C194  1  0.40454034  0.30608975  0.88772524  1  0.581462  0  0.050549  0.097801  0  3.953513  0
C  C195  1  0.40453982  0.19390900  0.11227327  1  0.581377  0  0.05056  0.09778  0  3.953471  0
C  C196  1  0.08589248  0.61009805  0.02346301  1  0.435468  0  0.04361  0.085116  0  3.965662  0
C  C197  1  0.08588895  0.88989868  0.97653456  1  0.435291  0  0.04371  0.085234  0  3.96557  0
C  C198  1  0.91411056  0.38989892  0.97653591  1  0.434921  0  0.043677  0.085182  0  3.965564  0
C  C199  1  0.91410983  0.11009892  0.02346281  1  0.435436  0  0.043668  0.085186  0  3.965614  0
C  C200  1  0.96770825  0.60692041  0.02288852  1  0.010406  0  -0.082015  -0.172751  0  3.943891  0
C  C201  1  0.96770814  0.89307945  0.97711044  1  0.010385  0  -0.082043  -0.172827  0  3.943821  0
C  C202  1  0.03228968  0.39307908  0.97711091  1  0.01042  0  -0.082022  -0.172806  0  3.943788  0
C  C203  1  0.03229065  0.10691942  0.02288847  1  0.010419  0  -0.082064  -0.172855  0  3.943827  0
C  C204  1  0.90449963  0.66479983  0.06218620  1  -0.003073  0  0.016034  0.114102  0  3.967239  0
C  C205  1  0.90449428  0.83520062  0.93781171  1  -0.003352  0  0.016071  0.114121  0  3.967033  0
C  C206  1  0.09550512  0.33520030  0.93781169  1  -0.003293  0  0.016051  0.114085  0  3.966983  0
C  C207  1  0.09550450  0.16479761  0.06218618  1  -0.003104  0  0.016048  0.114128  0  3.966973  0
C  C208  1  0.96680933  0.72416423  0.10072990  1  -0.004619  0  -0.078512  -0.171855  0  3.926518  0
C  C209  1  0.96680385  0.77583690  0.89926906  1  -0.004343  0  -0.078578  -0.171847  0  3.926547  0
C  C210  1  0.03319287  0.27583653  0.89927005  1  -0.004432  0  -0.078513  -0.171739  0  3.926517  0
C  C211  1  0.03319493  0.22416260  0.10072985  1  -0.004812  0  -0.078527  -0.171773  0  3.92643  0
C  C212  1  0.08556676  0.72277103  0.09891465  1  0.457409  0  0.053276  0.10527  0  3.947189  0
C  C213  1  0.08555873  0.77722570  0.90108292  1  0.457558  0  0.053347  0.105283  0  3.947283  0
C  C214  1  0.91444141  0.27722594  0.90108427  1  0.457558  0  0.053341  0.105301  0  3.947331  0
C  C215  1  0.91443920  0.22277127  0.09891497  1  0.457595  0  0.053296  0.105236  0  3.947336  0
S  S216  1  0.33131912  0.49591169  0.31204740  1  0.267605  0  0.102245  0.177532  0  2.939444  0
S  S217  1  0.33132671  0.00409017  0.68795313  1  0.267678  0  0.102267  0.177563  0  2.939455  0
S  S218  1  0.66867881  0.50408970  0.68795409  1  0.267642  0  0.102257  0.177538  0  2.9395  0
S  S219  1  0.66867463  0.99591059  0.31204733  1  0.267861  0  0.102252  0.177582  0  2.939439  0
S  S220  1  0.32859408  0.99710399  0.18621641  1  0.29612  0  0.099489  0.173927  0  2.943498  0
S  S221  1  0.32859158  0.50289480  0.81378280  1  0.296058  0  0.099497  0.173962  0  2.943508  0
S  S222  1  0.67141067  0.00289678  0.81378096  1  0.296183  0  0.099522  0.173978  0  2.943436  0
S  S223  1  0.67139953  0.49710596  0.18621766  1  0.296142  0  0.099506  0.173944  0  2.943516  0
N  N224  1  0.52227993  0.15506690  0.44056367  1  -1.235836  0  -0.324669  -0.230774  0  3.507811  0
N  N225  1  0.52227927  0.34493447  0.55943385  1  -1.236129  0  -0.324585  -0.230549  0  3.507862  0
N  N226  1  0.47771970  0.84493513  0.55943628  1  -1.235778  0  -0.324648  -0.230719  0  3.50771  0
N  N227  1  0.47772036  0.65506756  0.44056454  1  -1.235942  0  -0.324589  -0.23064  0  3.507805  0
N  N228  1  0.12698409  0.15273872  0.43926870  1  -1.234285  0  -0.323822  -0.23025  0  3.504048  0
N  N229  1  0.12698343  0.34726111  0.56073124  1  -1.234255  0  -0.323838  -0.230207  0  3.503957  0
N  N230  1  0.87301469  0.84725825  0.56073486  1  -1.234378  0  -0.323846  -0.230278  0  3.50409  0
N  N231  1  0.87301620  0.65273712  0.43926819  1  -1.234255  0  -0.323766  -0.230135  0  3.503869  0
N  N232  1  0.53982932  0.65484198  0.06069485  1  -1.244143  0  -0.324448  -0.227516  0  3.50494  0
N  N233  1  0.53982484  0.84515948  0.93930599  1  -1.244313  0  -0.324524  -0.227663  0  3.504994  0
N  N234  1  0.46017372  0.34515625  0.93930509  1  -1.244318  0  -0.324491  -0.227613  0  3.505094  0
N  N235  1  0.46017394  0.15484254  0.06069447  1  -1.244215  0  -0.324516  -0.227621  0  3.505093  0
N  N236  1  0.14453178  0.66677434  0.06097341  1  -1.200498  0  -0.32339  -0.228534  0  3.498344  0
N  N237  1  0.14452813  0.83322369  0.93902470  1  -1.200051  0  -0.323474  -0.228506  0  3.498228  0
N  N238  1  0.85546956  0.33322199  0.93902654  1  -1.200051  0  -0.323506  -0.228561  0  3.498269  0
N  N239  1  0.85546979  0.16677517  0.06097319  1  -1.20038  0  -0.323428  -0.228508  0  3.498346  0
O  O240  1  0.32019369  0.42764078  0.45209724  1  -1.176709  0  -0.332649  -0.555981  0  2.2342  0
O  O241  1  0.32020034  0.07236045  0.54790278  1  -1.176536  0  -0.332608  -0.555945  0  2.234048  0
O  O242  1  0.67980424  0.57236062  0.54790425  1  -1.176553  0  -0.332728  -0.556081  0  2.233855  0
O  O243  1  0.67980355  0.92764031  0.45209820  1  -1.176625  0  -0.332639  -0.555984  0  2.234105  0
O  O244  1  0.32789774  0.28982158  0.42587398  1  -1.191153  0  -0.342697  -0.591243  0  2.347784  0
O  O245  1  0.32789095  0.21017965  0.57412810  1  -1.191363  0  -0.342603  -0.591053  0  2.348048  0
O  O246  1  0.67210019  0.71017981  0.57412854  1  -1.190603  0  -0.342687  -0.591209  0  2.347768  0
O  O247  1  0.67210954  0.78982175  0.42587390  1  -1.191211  0  -0.34261  -0.591098  0  2.348057  0
O  O248  1  0.34134169  0.61594365  0.18922179  1  -1.174928  0  -0.352948  -0.584227  0  2.115912  0
O  O249  1  0.34134393  0.88405705  0.81077743  1  -1.174941  0  -0.352943  -0.584213  0  2.11592  0
O  O250  1  0.65865965  0.38405712  0.81077867  1  -1.174929  0  -0.352956  -0.584215  0  2.115979  0
O  O251  1  0.65865144  0.11594181  0.18922252  1  -1.174955  0  -0.352916  -0.584201  0  2.115852  0
O  O252  1  0.33174721  0.51257796  0.10948472  1  -1.161549  0  -0.340357  -0.56143  0  2.204933  0
O  O253  1  0.33174626  0.98742210  0.89051501  1  -1.16157  0  -0.340369  -0.56141  0  2.204914  0
O  O254  1  0.66825242  0.48742217  0.89051625  1  -1.16164  0  -0.340327  -0.561409  0  2.204911  0
O  O255  1  0.66825337  0.01257677  0.10948545  1  -1.161462  0  -0.340347  -0.561419  0  2.20489  0
O  O256  1  0.33413200  0.01060582  0.38873226  1  -1.151558  0  -0.336706  -0.558707  0  2.220656  0
O  O257  1  0.33413243  0.48939478  0.61126725  1  -1.151612  0  -0.336662  -0.558671  0  2.220812  0
O  O258  1  0.66586934  0.98939494  0.61126563  1  -1.151631  0  -0.336688  -0.558733  0  2.2208  0
O  O259  1  0.66586720  0.51060535  0.38873373  1  -1.151627  0  -0.33665  -0.558651  0  2.220841  0
O  O260  1  0.32207083  0.11509166  0.30988570  1  -1.174457  0  -0.349481  -0.585967  0  2.122713  0
O  O261  1  0.32207378  0.38490767  0.69011225  1  -1.174422  0  -0.349554  -0.586044  0  2.122744  0
O  O262  1  0.67792966  0.88491100  0.69011373  1  -1.174374  0  -0.349557  -0.586036  0  2.122928  0
O  O263  1  0.67792159  0.61509309  0.30988872  1  -1.174409  0  -0.349521  -0.586018  0  2.122748  0
O  O264  1  0.35720382  0.79410574  0.07054829  1  -1.196117  0  -0.34133  -0.588248  0  2.356821  0
O  O265  1  0.35720086  0.70589244  0.92945248  1  -1.195641  0  -0.341432  -0.588459  0  2.356974  0
O  O266  1  0.64279752  0.20589313  0.92945011  1  -1.195552  0  -0.34143  -0.588405  0  2.35702  0
O  O267  1  0.64279622  0.29410642  0.07055005  1  -1.196103  0  -0.341403  -0.588363  0  2.356921  0
O  O268  1  0.32357329  0.92986076  0.04512935  1  -1.16553  0  -0.331512  -0.554434  0  2.226593  0
O  O269  1  0.32357615  0.57013613  0.95486934  1  -1.165546  0  -0.331549  -0.554541  0  2.226511  0
O  O270  1  0.67642890  0.07013748  0.95486802  1  -1.165502  0  -0.331468  -0.554457  0  2.226534  0
O  O271  1  0.67642860  0.42986147  0.04512957  1  -1.165523  0  -0.331521  -0.554551  0  2.226549  0
