# generated using pymatgen
data_CdH4C3N5O2
_symmetry_space_group_name_H-M   'P 1'
_cell_length_a   8.15931078
_cell_length_b   17.95186465
_cell_length_c   22.42553262
_cell_angle_alpha   89.99981366
_cell_angle_beta   89.99939055
_cell_angle_gamma   90.00010337
_symmetry_Int_Tables_number   1
_chemical_formula_structural   CdH4C3N5O2
_chemical_formula_sum   'Cd16 H64 C48 N80 O32'
_cell_volume   3284.77636228
_cell_formula_units_Z   16
loop_
 _symmetry_equiv_pos_site_id
 _symmetry_equiv_pos_as_xyz
  1  'x, y, z'
loop_
 _atom_site_type_symbol
 _atom_site_label
 _atom_site_symmetry_multiplicity
 _atom_site_fract_x
 _atom_site_fract_y
 _atom_site_fract_z
 _atom_site_occupancy
 _atom_site_pbe_bader_charge
 _atom_site_pbe_bader_spin_density
 _atom_site_pbe_cm5_charge
 _atom_site_pbe_ddec_charge
 _atom_site_pbe_ddec_spin_density
 _atom_site_pbe_ddec_sum_bond_order
 _atom_site_pbe_magmom
Cd  Cd0  1  0.77384051  0.09857979  0.13724372  1  1.244006  0  0.798687  0.84804  0  2.232294  0
Cd  Cd1  1  0.22614291  0.40141394  0.63723518  1  1.244158  0  0.79869  0.848025  0  2.232413  0
Cd  Cd2  1  0.27386144  0.90141104  0.36276113  1  1.244077  0  0.798693  0.848001  0  2.232397  0
Cd  Cd3  1  0.72614423  0.59858598  0.86276483  1  1.244165  0  0.798633  0.847994  0  2.232339  0
Cd  Cd4  1  0.22614791  0.90141336  0.86276228  1  1.244102  0  0.798658  0.847978  0  2.232392  0
Cd  Cd5  1  0.77386021  0.59857809  0.36276145  1  1.244035  0  0.798656  0.847933  0  2.232454  0
Cd  Cd6  1  0.72616129  0.09858768  0.63724264  1  1.244177  0  0.798676  0.848034  0  2.232236  0
Cd  Cd7  1  0.27387483  0.40142110  0.13723180  1  1.244083  0  0.798621  0.847941  0  2.232367  0
Cd  Cd8  1  0.96124639  0.25280969  0.88913878  1  1.236548  0  0.787242  0.648389  0  2.467082  0
Cd  Cd9  1  0.03875051  0.24719083  0.38914309  1  1.236569  0  0.787219  0.648459  0  2.467174  0
Cd  Cd10  1  0.46120914  0.74720603  0.61085942  1  1.236603  0  0.787248  0.648405  0  2.46719  0
Cd  Cd11  1  0.53876712  0.75280036  0.11085821  1  1.236525  0  0.787257  0.648338  0  2.467248  0
Cd  Cd12  1  0.03877757  0.74719516  0.11086008  1  1.236402  0  0.787255  0.648431  0  2.467295  0
Cd  Cd13  1  0.96123546  0.75279341  0.61085889  1  1.236616  0  0.787212  0.648445  0  2.467075  0
Cd  Cd14  1  0.53877315  0.25279492  0.38914523  1  1.236567  0  0.787267  0.648395  0  2.46725  0
Cd  Cd15  1  0.46122130  0.24720449  0.88914957  1  1.236677  0  0.787234  0.648362  0  2.467246  0
H  H16  1  0.47076990  0.17550390  0.04042777  1  0.157832  0  0.13392  0.108647  0  0.992955  0
H  H17  1  0.52922370  0.32449078  0.54042362  1  0.157809  0  0.133887  0.10865  0  0.993062  0
H  H18  1  0.97075698  0.82449769  0.45957274  1  0.15772  0  0.133903  0.108588  0  0.992875  0
H  H19  1  0.02925444  0.67551399  0.95958028  1  0.157474  0  0.133864  0.108659  0  0.992856  0
H  H20  1  0.52923813  0.82449427  0.95956975  1  0.157749  0  0.133929  0.108628  0  0.992942  0
H  H21  1  0.47077697  0.67550237  0.45956365  1  0.157977  0  0.133922  0.108645  0  0.992924  0
H  H22  1  0.02923388  0.17550772  0.54042478  1  0.157723  0  0.133933  0.108697  0  0.992937  0
H  H23  1  0.97077319  0.32449476  0.04043240  1  0.157824  0  0.133953  0.108648  0  0.992978  0
H  H24  1  0.97274769  0.13648761  0.01170022  1  0.146384  0  0.133489  0.100029  0  0.982572  0
H  H25  1  0.02725655  0.36352501  0.51170281  1  0.14644  0  0.133524  0.100109  0  0.98251  0
H  H26  1  0.47274276  0.86350841  0.48829226  1  0.146618  0  0.133526  0.100131  0  0.982379  0
H  H27  1  0.52727518  0.63647976  0.98829707  1  0.146721  0  0.13348  0.099995  0  0.982416  0
H  H28  1  0.02725298  0.86351055  0.98829819  1  0.146421  0  0.133498  0.100074  0  0.982452  0
H  H29  1  0.97275148  0.63649321  0.48829917  1  0.146356  0  0.133489  0.100047  0  0.982541  0
H  H30  1  0.52725669  0.13648586  0.51170482  1  0.146607  0  0.133545  0.100111  0  0.982495  0
H  H31  1  0.47275368  0.36349891  0.01170089  1  0.146365  0  0.133487  0.100069  0  0.98248  0
H  H32  1  0.54177524  0.94818844  0.10054425  1  0.149507  0  0.130748  0.101277  0  0.999656  0
H  H33  1  0.45823196  0.55180629  0.60054243  1  0.149344  0  0.130737  0.10125  0  0.999671  0
H  H34  1  0.04175515  0.05181779  0.39946862  1  0.14941  0  0.130781  0.101332  0  0.999744  0
H  H35  1  0.95823655  0.44819105  0.89945490  1  0.149298  0  0.130745  0.101212  0  0.999773  0
H  H36  1  0.45822788  0.05181362  0.89945995  1  0.149521  0  0.130759  0.101303  0  0.999747  0
H  H37  1  0.54175156  0.44818574  0.39945286  1  0.149271  0  0.130743  0.101245  0  0.999618  0
H  H38  1  0.95822469  0.94819152  0.60054406  1  0.149443  0  0.13076  0.101268  0  0.999647  0
H  H39  1  0.04176903  0.55180712  0.10054441  1  0.149322  0  0.130736  0.101239  0  0.999747  0
H  H40  1  0.04523886  0.94345772  0.13902368  1  0.140862  0  0.131446  0.106296  0  0.987414  0
H  H41  1  0.95476477  0.55653742  0.63901501  1  0.14084  0  0.131343  0.106191  0  0.987414  0
H  H42  1  0.54521736  0.05652344  0.36098249  1  0.140968  0  0.131341  0.10621  0  0.987284  0
H  H43  1  0.45475585  0.44346271  0.86099079  1  0.140852  0  0.131321  0.106184  0  0.987373  0
H  H44  1  0.95477530  0.05653877  0.86097606  1  0.140927  0  0.13138  0.106208  0  0.987378  0
H  H45  1  0.04523591  0.44346131  0.36098473  1  0.140886  0  0.131353  0.10622  0  0.98741  0
H  H46  1  0.45474164  0.94345912  0.63901993  1  0.140781  0  0.131357  0.106206  0  0.987349  0
H  H47  1  0.54524360  0.55654604  0.13901341  1  0.140928  0  0.131399  0.10629  0  0.987281  0
H  H48  1  0.02900996  0.12986400  0.25810869  1  0.131321  0  0.129484  0.097948  0  0.993047  0
H  H49  1  0.97101160  0.37013426  0.75810136  1  0.131462  0  0.12954  0.09795  0  0.993033  0
H  H50  1  0.52900357  0.87013832  0.24188461  1  0.131405  0  0.129524  0.09795  0  0.993075  0
H  H51  1  0.47099828  0.62985919  0.74189145  1  0.131346  0  0.129487  0.097944  0  0.993038  0
H  H52  1  0.97099194  0.87014809  0.74188392  1  0.131248  0  0.129473  0.097986  0  0.993053  0
H  H53  1  0.02898172  0.62986947  0.24189571  1  0.131567  0  0.129564  0.097988  0  0.993073  0
H  H54  1  0.47099343  0.12986597  0.75810800  1  0.131288  0  0.129488  0.097894  0  0.993078  0
H  H55  1  0.52899872  0.37014677  0.25810919  1  0.131252  0  0.129497  0.097965  0  0.993017  0
H  H56  1  0.52961018  0.18230615  0.24118230  1  0.118762  0  0.132358  0.101437  0  0.994077  0
H  H57  1  0.47041922  0.31768382  0.74118597  1  0.118771  0  0.132302  0.101362  0  0.99403  0
H  H58  1  0.02959952  0.81770731  0.25882304  1  0.118667  0  0.132373  0.101441  0  0.993949  0
H  H59  1  0.97039080  0.68230740  0.75882201  1  0.118774  0  0.132327  0.101396  0  0.994109  0
H  H60  1  0.47038926  0.81769090  0.75881343  1  0.118843  0  0.132411  0.101503  0  0.994015  0
H  H61  1  0.52958390  0.68231267  0.25881690  1  0.118608  0  0.132306  0.10132  0  0.994115  0
H  H62  1  0.97039870  0.18230367  0.74118340  1  0.11873  0  0.132336  0.101463  0  0.994029  0
H  H63  1  0.02961110  0.31769132  0.24118265  1  0.118844  0  0.132373  0.101422  0  0.994086  0
H  H64  1  0.43913011  0.03722326  0.18097317  1  0.598924  0  0.314078  0.390792  0  0.898785  0
H  H65  1  0.56089615  0.46275972  0.68095961  1  0.599451  0  0.314028  0.390803  0  0.898982  0
H  H66  1  0.93911201  0.96277162  0.31903103  1  0.599133  0  0.314086  0.390827  0  0.898769  0
H  H67  1  0.06088023  0.53723617  0.81903569  1  0.599259  0  0.314006  0.390836  0  0.898834  0
H  H68  1  0.56087302  0.96277491  0.81903014  1  0.598993  0  0.314053  0.390753  0  0.898912  0
H  H69  1  0.43909962  0.53724123  0.31903746  1  0.599375  0  0.313991  0.390794  0  0.898954  0
H  H70  1  0.06089969  0.03722989  0.68096694  1  0.599142  0  0.314024  0.390765  0  0.898902  0
H  H71  1  0.93911677  0.46275698  0.18095960  1  0.59947  0  0.31402  0.390862  0  0.898892  0
H  H72  1  0.39358283  0.10832178  0.14279080  1  0.644876  0  0.28098  0.367211  0  0.987967  0
H  H73  1  0.60641635  0.39167138  0.64277947  1  0.644805  0  0.280922  0.367092  0  0.98808  0
H  H74  1  0.89359155  0.89168476  0.35721626  1  0.644937  0  0.281019  0.36722  0  0.987964  0
H  H75  1  0.10641306  0.60833736  0.85721787  1  0.644616  0  0.28099  0.367255  0  0.98788  0
H  H76  1  0.60641906  0.89167360  0.85720315  1  0.644269  0  0.280945  0.367201  0  0.98797  0
H  H77  1  0.39357942  0.60833459  0.35722429  1  0.644728  0  0.280986  0.367228  0  0.987941  0
H  H78  1  0.10641280  0.10832789  0.64277903  1  0.644907  0  0.280934  0.367093  0  0.988092  0
H  H79  1  0.89359986  0.39166248  0.14278232  1  0.644693  0  0.280923  0.367092  0  0.988099  0
C  C80  1  0.59152181  0.17280288  0.02018767  1  0.976152  0  0.136676  0.145043  0  3.972562  0
C  C81  1  0.40846993  0.32719745  0.52018397  1  0.975815  0  0.136769  0.145018  0  3.972555  0
C  C82  1  0.09151331  0.82720005  0.47980941  1  0.975945  0  0.136776  0.14533  0  3.972322  0
C  C83  1  0.90849140  0.67280319  0.97981399  1  0.976339  0  0.136758  0.145135  0  3.972587  0
C  C84  1  0.40848377  0.82719585  0.97981253  1  0.976164  0  0.136714  0.145118  0  3.97246  0
C  C85  1  0.59152462  0.67280684  0.47981310  1  0.975358  0  0.13674  0.145109  0  3.972385  0
C  C86  1  0.90848246  0.17280702  0.52018365  1  0.975503  0  0.136692  0.144969  0  3.972479  0
C  C87  1  0.09152031  0.32719108  0.02018665  1  0.975402  0  0.136706  0.145096  0  3.972411  0
C  C88  1  0.84598342  0.15318667  0.00572155  1  0.946433  0  0.130797  0.13256  0  4.020492  0
C  C89  1  0.15401609  0.34681929  0.50571967  1  0.946268  0  0.130747  0.132388  0  4.020502  0
C  C90  1  0.34597336  0.84681203  0.49427499  1  0.945614  0  0.130767  0.132538  0  4.020237  0
C  C91  1  0.65403706  0.65318169  0.99428329  1  0.946144  0  0.130758  0.132542  0  4.020178  0
C  C92  1  0.15402215  0.84681150  0.99427553  1  0.946208  0  0.130744  0.132521  0  4.020166  0
C  C93  1  0.84598214  0.65318612  0.49427383  1  0.945714  0  0.130778  0.132541  0  4.020224  0
C  C94  1  0.65402487  0.15318335  0.50572520  1  0.946072  0  0.130728  0.132524  0  4.020144  0
C  C95  1  0.34598690  0.34680422  0.00572716  1  0.946175  0  0.130708  0.132509  0  4.020318  0
C  C96  1  0.66573286  0.92881612  0.10878331  1  0.956865  0  0.125244  0.126634  0  4.011459  0
C  C97  1  0.33427288  0.57118416  0.60878013  1  0.957224  0  0.125261  0.126678  0  4.011503  0
C  C98  1  0.16572166  0.07117184  0.39122508  1  0.957075  0  0.125307  0.126815  0  4.011743  0
C  C99  1  0.83427641  0.42882311  0.89121812  1  0.957304  0  0.125261  0.126806  0  4.011599  0
C  C100  1  0.33426904  0.07118038  0.89122268  1  0.956751  0  0.125216  0.126669  0  4.011634  0
C  C101  1  0.66572167  0.42881624  0.39121739  1  0.956582  0  0.12529  0.126751  0  4.011193  0
C  C102  1  0.83426798  0.92881519  0.60878136  1  0.956908  0  0.125288  0.126732  0  4.011391  0
C  C103  1  0.16572059  0.57118787  0.10878163  1  0.956682  0  0.125315  0.126739  0  4.011372  0
C  C104  1  0.92093059  0.92637410  0.12848714  1  0.948165  0  0.127359  0.127512  0  4.006733  0
C  C105  1  0.07907824  0.57361495  0.62848361  1  0.947931  0  0.12732  0.1275  0  4.006566  0
C  C106  1  0.42091630  0.07362800  0.37151847  1  0.948367  0  0.127281  0.127426  0  4.00662  0
C  C107  1  0.57907008  0.42637816  0.87152455  1  0.94795  0  0.127415  0.127661  0  4.006673  0
C  C108  1  0.07908111  0.07362351  0.87151171  1  0.948065  0  0.127338  0.127535  0  4.006599  0
C  C109  1  0.92092733  0.42637430  0.37151793  1  0.947993  0  0.1274  0.127626  0  4.006654  0
C  C110  1  0.57906354  0.92637852  0.62848708  1  0.947764  0  0.127461  0.127629  0  4.006579  0
C  C111  1  0.42092446  0.57362056  0.12848055  1  0.94798  0  0.127283  0.127329  0  4.006788  0
C  C112  1  0.90653619  0.15067835  0.26703072  1  0.972564  0  0.12479  0.122426  0  4.021818  0
C  C113  1  0.09347653  0.34931375  0.76703131  1  0.972763  0  0.124719  0.122404  0  4.021617  0
C  C114  1  0.40652150  0.84932541  0.23297450  1  0.972022  0  0.124865  0.122567  0  4.021782  0
C  C115  1  0.59347448  0.65067604  0.73297546  1  0.971814  0  0.124842  0.122481  0  4.021647  0
C  C116  1  0.09346080  0.84932984  0.73296234  1  0.972592  0  0.124831  0.122374  0  4.021377  0
C  C117  1  0.90651434  0.65068275  0.23296978  1  0.972669  0  0.124732  0.122433  0  4.021936  0
C  C118  1  0.59346937  0.15067833  0.76702436  1  0.972547  0  0.124893  0.122582  0  4.021605  0
C  C119  1  0.40653845  0.34932714  0.26703544  1  0.972541  0  0.124804  0.122446  0  4.021713  0
C  C120  1  0.65338631  0.17746322  0.25846282  1  0.998956  0  0.129411  0.129182  0  4.012779  0
C  C121  1  0.34662911  0.32253170  0.75845937  1  0.998167  0  0.129543  0.129405  0  4.012477  0
C  C122  1  0.15337004  0.82253809  0.24153536  1  0.998883  0  0.129373  0.129222  0  4.012471  0
C  C123  1  0.84662324  0.67746666  0.74153704  1  0.99963  0  0.129577  0.129326  0  4.012678  0
C  C124  1  0.34660824  0.82253773  0.74153693  1  0.999173  0  0.129386  0.129106  0  4.012832  0
C  C125  1  0.65336543  0.67746368  0.24153725  1  0.998516  0  0.12947  0.129401  0  4.01258  0
C  C126  1  0.84662450  0.17746230  0.75846528  1  0.999109  0  0.129426  0.129157  0  4.012748  0
C  C127  1  0.15338724  0.32254209  0.25846047  1  0.998744  0  0.12946  0.129262  0  4.012392  0
N  N128  1  0.72560009  0.14247846  0.04646241  1  -1.226515  0  -0.371643  -0.332667  0  3.52892  0
N  N129  1  0.27439333  0.35752400  0.54646093  1  -1.226485  0  -0.371747  -0.332632  0  3.528919  0
N  N130  1  0.22559248  0.85751958  0.45353147  1  -1.225792  0  -0.371632  -0.332647  0  3.528795  0
N  N131  1  0.77441545  0.64248043  0.95353888  1  -1.226154  0  -0.371577  -0.332589  0  3.528779  0
N  N132  1  0.27440671  0.85752027  0.95353377  1  -1.226335  0  -0.371657  -0.332653  0  3.528764  0
N  N133  1  0.72559754  0.64248308  0.45353168  1  -1.225935  0  -0.371672  -0.332653  0  3.528704  0
N  N134  1  0.77441677  0.14248082  0.54646382  1  -1.226251  0  -0.371557  -0.332573  0  3.528828  0
N  N135  1  0.22559748  0.35750938  0.04646532  1  -1.226143  0  -0.371644  -0.332647  0  3.529016  0
N  N136  1  0.79117208  0.18765971  0.95725263  1  -0.772389  0  -0.262356  -0.209689  0  3.43506  0
N  N137  1  0.20882283  0.31234388  0.45725075  1  -0.772359  0  -0.262291  -0.209603  0  3.434849  0
N  N138  1  0.29116158  0.81234362  0.54274668  1  -0.77192  0  -0.262351  -0.20967  0  3.43511  0
N  N139  1  0.70884976  0.68765024  0.04275345  1  -0.772154  0  -0.262239  -0.20941  0  3.435058  0
N  N140  1  0.20883104  0.81234236  0.04274757  1  -0.771989  0  -0.262343  -0.209654  0  3.434882  0
N  N141  1  0.79117907  0.68765874  0.54274498  1  -0.77206  0  -0.262353  -0.209682  0  3.434757  0
N  N142  1  0.70882193  0.18765733  0.45725530  1  -0.772164  0  -0.262362  -0.209723  0  3.435123  0
N  N143  1  0.29117298  0.31233567  0.95725656  1  -0.772124  0  -0.262301  -0.209645  0  3.435221  0
N  N144  1  0.62711277  0.20038698  0.96654903  1  -0.763018  0  -0.257362  -0.201661  0  3.425389  0
N  N145  1  0.37288800  0.29961211  0.46654744  1  -0.76243  0  -0.257384  -0.201662  0  3.425182  0
N  N146  1  0.12709146  0.79961731  0.53344913  1  -0.762989  0  -0.257453  -0.201966  0  3.425517  0
N  N147  1  0.87291279  0.70037936  0.03345389  1  -0.763253  0  -0.257501  -0.202032  0  3.425991  0
N  N148  1  0.37289771  0.79961452  0.03345250  1  -0.763036  0  -0.257373  -0.201723  0  3.425353  0
N  N149  1  0.62710777  0.70039051  0.53345186  1  -0.762281  0  -0.257402  -0.201755  0  3.425049  0
N  N150  1  0.87287980  0.20038809  0.46654571  1  -0.762251  0  -0.257442  -0.201684  0  3.425407  0
N  N151  1  0.12711484  0.29961044  0.96654809  1  -0.762281  0  -0.257372  -0.201663  0  3.425346  0
N  N152  1  0.77673163  0.14159854  0.22989920  1  -1.252258  0  -0.375892  -0.344906  0  3.564588  0
N  N153  1  0.22327604  0.35839427  0.72989302  1  -1.252033  0  -0.375921  -0.344916  0  3.564475  0
N  N154  1  0.27670487  0.85840790  0.27010295  1  -1.252173  0  -0.375944  -0.344965  0  3.564474  0
N  N155  1  0.72329493  0.64159786  0.77010432  1  -1.252428  0  -0.375924  -0.344912  0  3.56453  0
N  N156  1  0.22327026  0.85840854  0.77009698  1  -1.252297  0  -0.375844  -0.344798  0  3.564176  0
N  N157  1  0.77671851  0.64160557  0.27010405  1  -1.252408  0  -0.375853  -0.344869  0  3.564525  0
N  N158  1  0.72328968  0.14159695  0.72989902  1  -1.252673  0  -0.375914  -0.344888  0  3.564603  0
N  N159  1  0.27674251  0.35840867  0.22990078  1  -1.252153  0  -0.375855  -0.344906  0  3.564292  0
N  N160  1  0.70311653  0.20652976  0.30996336  1  -0.767711  0  -0.25609  -0.199732  0  3.427494  0
N  N161  1  0.29691577  0.29346495  0.80996375  1  -0.767588  0  -0.256214  -0.200051  0  3.427185  0
N  N162  1  0.20310901  0.79347160  0.19003374  1  -0.767342  0  -0.256075  -0.199875  0  3.427032  0
N  N163  1  0.79687965  0.70652946  0.69003643  1  -0.767639  0  -0.256172  -0.199845  0  3.427075  0
N  N164  1  0.29688047  0.79346841  0.69003773  1  -0.767754  0  -0.256171  -0.199812  0  3.427381  0
N  N165  1  0.70308613  0.70652709  0.19003466  1  -0.76761  0  -0.256185  -0.199897  0  3.427423  0
N  N166  1  0.79687205  0.20652880  0.80996468  1  -0.767467  0  -0.25606  -0.199784  0  3.42727  0
N  N167  1  0.20310877  0.29347037  0.30996064  1  -0.767586  0  -0.256241  -0.199928  0  3.427209  0
N  N168  1  0.86620372  0.18913552  0.31563874  1  -0.759766  0  -0.253531  -0.201667  0  3.412326  0
N  N169  1  0.13380636  0.31085638  0.81564061  1  -0.759653  0  -0.253423  -0.201467  0  3.411698  0
N  N170  1  0.36621604  0.81086876  0.18436352  1  -0.75963  0  -0.253576  -0.201655  0  3.411768  0
N  N171  1  0.63377891  0.68913455  0.68436466  1  -0.759789  0  -0.253607  -0.201766  0  3.411769  0
N  N172  1  0.13378960  0.81086654  0.68435611  1  -0.759904  0  -0.253538  -0.201655  0  3.411922  0
N  N173  1  0.86618083  0.68913622  0.18436093  1  -0.759473  0  -0.253508  -0.201702  0  3.412307  0
N  N174  1  0.63378341  0.18913776  0.81563222  1  -0.759844  0  -0.253671  -0.201837  0  3.412018  0
N  N175  1  0.36619848  0.31086417  0.31563954  1  -0.7598  0  -0.25354  -0.201739  0  3.412257  0
N  N176  1  0.79290279  0.97409278  0.12314654  1  -1.233162  0  -0.374005  -0.348981  0  3.523566  0
N  N177  1  0.20711601  0.52590020  0.62314308  1  -1.233462  0  -0.373818  -0.348881  0  3.523747  0
N  N178  1  0.29289919  0.02589974  0.37686313  1  -1.233686  0  -0.373973  -0.349093  0  3.523825  0
N  N179  1  0.70710052  0.47409748  0.87685700  1  -1.233283  0  -0.374018  -0.349152  0  3.523816  0
N  N180  1  0.20710769  0.02590427  0.87685276  1  -1.233364  0  -0.373954  -0.349042  0  3.52362  0
N  N181  1  0.79290060  0.47409351  0.37685266  1  -1.233131  0  -0.373995  -0.349041  0  3.523358  0
N  N182  1  0.70710148  0.97409285  0.62314420  1  -1.233002  0  -0.374022  -0.349095  0  3.523598  0
N  N183  1  0.29288422  0.52590736  0.12313963  1  -1.233287  0  -0.37389  -0.348877  0  3.523616  0
N  N184  1  0.71149521  0.85777116  0.10576532  1  -0.763207  0  -0.260485  -0.202982  0  3.441861  0
N  N185  1  0.28849713  0.64222857  0.60576392  1  -0.763046  0  -0.260504  -0.202962  0  3.441965  0
N  N186  1  0.21146948  0.14222241  0.39423976  1  -0.763296  0  -0.260578  -0.203223  0  3.441892  0
N  N187  1  0.78850888  0.35777586  0.89423629  1  -0.763028  0  -0.260469  -0.202938  0  3.441915  0
N  N188  1  0.28850423  0.14222701  0.89423888  1  -0.762765  0  -0.260451  -0.202924  0  3.44174  0
N  N189  1  0.71147903  0.35776959  0.39423806  1  -0.762488  0  -0.260522  -0.202976  0  3.441574  0
N  N190  1  0.78848584  0.85777074  0.60576579  1  -0.763092  0  -0.26052  -0.203062  0  3.442024  0
N  N191  1  0.21150405  0.64223121  0.10576390  1  -0.762618  0  -0.260509  -0.202969  0  3.442051  0
N  N192  1  0.87587410  0.85610397  0.11851967  1  -0.764736  0  -0.25653  -0.201484  0  3.435371  0
N  N193  1  0.12412399  0.64388680  0.61851934  1  -0.764639  0  -0.256523  -0.201464  0  3.435382  0
N  N194  1  0.37585366  0.14389643  0.38148389  1  -0.764712  0  -0.256349  -0.201212  0  3.435165  0
N  N195  1  0.62413244  0.35610914  0.88148954  1  -0.764855  0  -0.256416  -0.201468  0  3.435431  0
N  N196  1  0.12413392  0.14389253  0.88148365  1  -0.76493  0  -0.256505  -0.201506  0  3.435457  0
N  N197  1  0.87587055  0.35610580  0.38148755  1  -0.764879  0  -0.256436  -0.201515  0  3.435148  0
N  N198  1  0.62411883  0.85610787  0.61851987  1  -0.764668  0  -0.256489  -0.201435  0  3.435721  0
N  N199  1  0.37587682  0.64389070  0.11851690  1  -0.764724  0  -0.2565  -0.201373  0  3.435676  0
N  N200  1  0.12150003  0.15700910  0.13324322  1  0.82153  0  0.092052  0.705078  0  4.433391  0
N  N201  1  0.87850678  0.34298075  0.63324301  1  0.821551  0  0.09189  0.704862  0  4.433832  0
N  N202  1  0.62149848  0.84299163  0.36675865  1  0.821925  0  0.091866  0.704686  0  4.433421  0
N  N203  1  0.37851443  0.65701541  0.86674838  1  0.822231  0  0.091956  0.704892  0  4.433842  0
N  N204  1  0.87850677  0.84299798  0.86675118  1  0.822465  0  0.092052  0.704979  0  4.433517  0
N  N205  1  0.12148776  0.65701630  0.36675630  1  0.821725  0  0.091932  0.704792  0  4.433453  0
N  N206  1  0.37850587  0.15701155  0.63324021  1  0.821697  0  0.091979  0.704805  0  4.433246  0
N  N207  1  0.62149605  0.34298610  0.13325047  1  0.821678  0  0.091901  0.704813  0  4.433596  0
O  O208  1  0.48177883  0.07002717  0.15027277  1  -1.24444  0  -0.590304  -0.77  0  2.075888  0
O  O209  1  0.51821769  0.42996261  0.65026437  1  -1.244909  0  -0.590198  -0.769911  0  2.076039  0
O  O210  1  0.98177442  0.92998000  0.34973661  1  -1.244686  0  -0.590338  -0.770035  0  2.075772  0
O  O211  1  0.01823163  0.57003714  0.84973823  1  -1.24446  0  -0.590248  -0.770116  0  2.075705  0
O  O212  1  0.51821817  0.92996765  0.84972564  1  -1.243989  0  -0.590261  -0.769943  0  2.075953  0
O  O213  1  0.48176583  0.57003778  0.34973494  1  -1.244706  0  -0.590257  -0.770106  0  2.075753  0
O  O214  1  0.01822503  0.07003377  0.65027205  1  -1.244688  0  -0.590207  -0.769854  0  2.076032  0
O  O215  1  0.98178620  0.42995769  0.15026241  1  -1.244801  0  -0.590173  -0.76996  0  2.075862  0
O  O216  1  0.08653847  0.08833375  0.14349687  1  -0.582955  0  -0.22568  -0.498208  0  1.951008  0
O  O217  1  0.91345089  0.41165940  0.64349010  1  -0.582588  0  -0.225758  -0.49832  0  1.951369  0
O  O218  1  0.58655586  0.91166806  0.35650023  1  -0.582989  0  -0.225651  -0.498145  0  1.95116  0
O  O219  1  0.41347084  0.58833456  0.85651454  1  -0.582956  0  -0.225779  -0.498322  0  1.95144  0
O  O220  1  0.91346588  0.91167500  0.85649441  1  -0.583037  0  -0.225741  -0.498251  0  1.951292  0
O  O221  1  0.08654365  0.58833932  0.35650653  1  -0.582703  0  -0.225741  -0.498212  0  1.951202  0
O  O222  1  0.41345830  0.08833511  0.64349283  1  -0.58291  0  -0.225704  -0.498207  0  1.951037  0
O  O223  1  0.58655312  0.41166751  0.14349012  1  -0.582926  0  -0.225766  -0.498316  0  1.951227  0
O  O224  1  0.00801636  0.20372065  0.12716459  1  -0.509316  0  -0.175645  -0.431382  0  2.021937  0
O  O225  1  0.99199063  0.29626533  0.62717922  1  -0.509315  0  -0.175569  -0.431271  0  2.021906  0
O  O226  1  0.50799730  0.79628277  0.37282657  1  -0.509304  0  -0.175581  -0.431269  0  2.022042  0
O  O227  1  0.49199583  0.70373037  0.87282154  1  -0.509242  0  -0.175613  -0.431284  0  2.022072  0
O  O228  1  0.99199534  0.79628755  0.87283561  1  -0.509316  0  -0.175648  -0.431354  0  2.021879  0
O  O229  1  0.00799043  0.70372727  0.37281205  1  -0.509442  0  -0.175533  -0.431256  0  2.021929  0
O  O230  1  0.49199480  0.20372765  0.62717987  1  -0.509177  0  -0.175613  -0.431323  0  2.021924  0
O  O231  1  0.50800239  0.29627559  0.12717732  1  -0.509438  0  -0.175591  -0.431192  0  2.021955  0
O  O232  1  0.27016832  0.17713243  0.12948513  1  -0.550407  0  -0.179259  -0.415153  0  1.995982  0
O  O233  1  0.72984351  0.32286133  0.62947619  1  -0.550858  0  -0.179081  -0.41487  0  1.995937  0
O  O234  1  0.77016168  0.82287065  0.37053087  1  -0.550795  0  -0.179179  -0.41492  0  1.995689  0
O  O235  1  0.22984867  0.67714138  0.87049883  1  -0.551251  0  -0.179095  -0.414928  0  1.995835  0
O  O236  1  0.72983725  0.82287130  0.87050481  1  -0.551229  0  -0.179159  -0.414995  0  1.995789  0
O  O237  1  0.27015104  0.67713627  0.37053382  1  -0.550773  0  -0.179162  -0.414881  0  1.995847  0
O  O238  1  0.22984022  0.17713085  0.62946308  1  -0.550871  0  -0.179202  -0.414923  0  1.995718  0
O  O239  1  0.77015936  0.32285790  0.12950002  1  -0.550534  0  -0.179057  -0.414869  0  1.995878  0
