# generated using pymatgen
data_Zn2H17C22Br(N4Cl)2
_symmetry_space_group_name_H-M   'P 1'
_cell_length_a   15.39422294
_cell_length_b   15.21585479
_cell_length_c   14.86574295
_cell_angle_alpha   115.14145631
_cell_angle_beta   101.81576068
_cell_angle_gamma   112.58891309
_symmetry_Int_Tables_number   1
_chemical_formula_structural   Zn2H17C22Br(N4Cl)2
_chemical_formula_sum   'Zn4 H34 C44 Br2 N16 Cl4'
_cell_volume   2613.17644941
_cell_formula_units_Z   2
loop_
 _symmetry_equiv_pos_site_id
 _symmetry_equiv_pos_as_xyz
  1  'x, y, z'
loop_
 _atom_site_type_symbol
 _atom_site_label
 _atom_site_symmetry_multiplicity
 _atom_site_fract_x
 _atom_site_fract_y
 _atom_site_fract_z
 _atom_site_occupancy
 _atom_site_pbe_bader_charge
 _atom_site_pbe_bader_spin_density
 _atom_site_pbe_cm5_charge
 _atom_site_pbe_ddec_charge
 _atom_site_pbe_ddec_spin_density
 _atom_site_pbe_ddec_sum_bond_order
 _atom_site_pbe_magmom
Zn  Zn0  1  0.36390439  0.86574921  0.99663944  1  1.191699  0  0.73709  0.618161  0  2.457223  0
Zn  Zn1  1  0.62694429  0.14212766  0.99495489  1  1.188236  0  0.741072  0.610328  0  2.513109  0
Zn  Zn2  1  0.49817015  0.14443582  0.14742864  1  1.197311  0  0.740507  0.634934  0  2.408439  0
Zn  Zn3  1  0.50093914  0.86110678  0.85149534  1  1.201315  0  0.738201  0.640114  0  2.372141  0
H  H4  1  0.16097521  0.80821492  0.81275172  1  0.146587  0  0.113489  0.107834  0  1.014417  0
H  H5  1  0.97806093  0.34722930  0.29611485  1  0.030745  0  0.085827  0.086658  0  1.008337  0
H  H6  1  0.47851056  0.17902694  0.84396346  1  0.104388  0  0.115313  0.107263  0  0.999938  0
H  H7  1  0.99961774  0.25542722  0.32735443  1  0.031529  0  0.088584  0.090381  0  0.983599  0
H  H8  1  0.08492531  0.32253685  0.55907767  1  0.024234  0  0.0911  0.092925  0  0.974873  0
H  H9  1  0.90863211  0.18461662  0.42877351  1  0.044912  0  0.095738  0.099037  0  0.975104  0
H  H10  1  0.98484882  0.51969070  0.63687846  1  0.013058  0  0.081457  0.088537  0  1.022479  0
H  H11  1  0.04024327  0.59072171  0.57679902  1  0.048969  0  0.089994  0.102375  0  0.996744  0
H  H12  1  0.83397569  0.39801342  0.47313494  1  0.04906  0  0.098004  0.067418  0  0.975336  0
H  H13  1  0.03474036  0.37855286  0.65006778  1  0.011552  0  0.079988  0.078078  0  1.018073  0
H  H14  1  0.86366733  0.26423544  0.50803479  1  0.016382  0  0.087429  0.084218  0  0.982795  0
H  H15  1  0.83003686  0.17504562  0.14272542  1  0.126479  0  0.10866  0.096375  0  1.040986  0
H  H16  1  0.21932649  0.82918504  0.32183551  1  0.048147  0  0.093761  0.091764  0  0.997122  0
H  H17  1  0.53918212  0.40760204  0.24557140  1  0.095359  0  0.114559  0.103625  0  1.003484  0
H  H18  1  0.40382422  0.07925162  0.48374404  1  0.066289  0  0.095903  0.094959  0  1.00423  0
H  H19  1  0.24754705  0.81886568  0.48204120  1  0.054863  0  0.093373  0.091201  0  1.000921  0
H  H20  1  0.37123428  0.08237050  0.62268884  1  0.04649  0  0.097268  0.096344  0  0.998395  0
H  H21  1  0.54948420  0.57761233  0.25014599  1  0.033612  0  0.093487  0.090351  0  0.999335  0
H  H22  1  0.67837773  0.57938290  0.11692075  1  0.069894  0  0.093606  0.094969  0  1.017862  0
H  H23  1  0.53673412  0.72367093  0.23574769  1  0.034985  0  0.094597  0.092362  0  0.996458  0
H  H24  1  0.64009161  0.68308213  0.07804542  1  0.039951  0  0.091524  0.090532  0  1.028908  0
H  H25  1  0.93969397  0.05078069  0.82744654  1  0.061541  0  0.106261  0.122559  0  0.987235  0
H  H26  1  0.46667097  0.18609476  0.37807550  1  0.107669  0  0.116399  0.105334  0  0.996305  0
H  H27  1  0.11981333  0.07302551  0.05060451  1  0.08444  0  0.091726  0.1026  0  1.017341  0
H  H28  1  0.30651849  0.60527902  0.60808238  1  0.073648  0  0.117803  0.106055  0  1.004276  0
H  H29  1  0.02846431  0.91505544  0.79737705  1  0.071296  0  0.104585  0.107869  0  0.983074  0
H  H30  1  0.32680564  0.80926876  0.64129139  1  0.093601  0  0.113123  0.098781  0  1.017499  0
H  H31  1  0.49014340  0.85103157  0.18343902  1  0.108401  0  0.119788  0.110876  0  0.99734  0
H  H32  1  0.69143269  0.83405284  0.79730312  1  0.090668  0  0.108591  0.102457  0  1.018825  0
H  H33  1  0.83831574  0.19926197  0.95038872  1  0.057289  0  0.11741  0.108558  0  0.99536  0
H  H34  1  0.26485279  0.81643085  0.16128757  1  0.115435  0  0.114516  0.100102  0  1.01277  0
H  H35  1  0.67493982  0.20582503  0.35676925  1  0.078696  0  0.111477  0.097  0  1.010339  0
H  H36  1  0.16055600  0.42016544  0.46884846  1  0.018797  0  0.089147  0.085605  0  0.986701  0
H  H37  1  0.12123081  0.51150222  0.45699113  1  0.025785  0  0.086628  0.083965  0  0.989385  0
C  C38  1  0.21296745  0.89938477  0.87602333  1  0.360773  0  0.011466  -0.038859  0  3.947808  0
C  C39  1  0.31675801  0.90776348  0.20010445  1  0.375933  0  0.006983  -0.056724  0  3.972731  0
C  C40  1  0.58716950  0.79766711  0.00443569  1  0.594644  0  0.110226  0.176556  0  4.069524  0
C  C41  1  0.44956476  0.08893076  0.80957844  1  0.383882  0  0.008205  -0.049181  0  3.941032  0
C  C42  1  0.69766538  0.18907155  0.28954308  1  0.389357  0  -0.002488  -0.06263  0  3.9893  0
C  C43  1  0.57479305  0.78606683  0.09121976  1  0.025355  0  -0.041549  -0.050377  0  4.118527  0
C  C44  1  0.79711848  0.21953714  0.29200555  1  -0.021264  0  -0.041445  -0.056857  0  4.01559  0
C  C45  1  0.35549489  0.00006258  0.30936762  1  -0.035114  0  -0.042211  0.008658  0  4.143582  0
C  C46  1  0.80599925  0.01967425  0.87085640  1  0.052917  0  -0.049225  0.013728  0  4.130573  0
C  C47  1  0.09713450  0.43733894  0.46381939  1  -0.030186  0  -0.163125  -0.191955  0  3.875873  0
C  C48  1  0.99400584  0.33179979  0.36162197  1  -0.02455  0  -0.164317  -0.187762  0  3.87163  0
C  C49  1  0.37771542  0.99289403  0.70099276  1  0.033483  0  -0.039707  0.008014  0  4.11844  0
C  C50  1  0.03481009  0.35809052  0.56975261  1  -0.024629  0  -0.162332  -0.189724  0  3.860322  0
C  C51  1  0.00430557  0.50748554  0.56705931  1  -0.007147  0  -0.168736  -0.250298  0  3.869287  0
C  C52  1  0.08342793  0.46854823  0.57089927  1  0.084136  0  -0.011739  0.148523  0  3.828311  0
C  C53  1  0.57871006  0.38906548  0.19401990  1  0.427651  0  0.008147  -0.042191  0  3.995763  0
C  C54  1  0.90170214  0.30589538  0.39233200  1  0.08325  0  -0.010943  0.09004  0  3.823833  0
C  C55  1  0.92191394  0.27090168  0.47481911  1  -0.040784  0  -0.156052  -0.180693  0  3.856005  0
C  C56  1  0.90367873  0.41827931  0.45794940  1  0.099523  0  -0.040958  0.083906  0  3.713351  0
C  C57  1  0.27726489  0.90928033  0.40208362  1  -0.0462  0  -0.108669  -0.101522  0  4.072611  0
C  C58  1  0.34478282  0.99981812  0.40349847  1  -0.064642  0  -0.101812  -0.130172  0  4.044313  0
C  C59  1  0.28404484  0.90503832  0.49864051  1  -0.001088  0  -0.111652  -0.110162  0  4.078033  0
C  C60  1  0.63012396  0.45244406  0.15447920  1  0.081005  0  -0.042439  -0.050695  0  4.128249  0
C  C61  1  0.34032845  0.99624511  0.60576680  1  -0.080525  0  -0.098213  -0.12268  0  4.036497  0
C  C62  1  0.58905100  0.60523820  0.20538471  1  -0.068101  0  -0.108326  -0.100082  0  4.061898  0
C  C63  1  0.63682380  0.55186890  0.16039259  1  -0.022954  0  -0.101619  -0.1108  0  4.034361  0
C  C64  1  0.57686653  0.68944557  0.19223161  1  -0.04024  0  -0.108766  -0.104468  0  4.060985  0
C  C65  1  0.28390875  0.62384225  0.67533065  1  0.386466  0  0.004145  -0.056415  0  4.02031  0
C  C66  1  0.60209772  0.71973588  0.12313325  1  0.003688  0  -0.100391  -0.107591  0  4.040834  0
C  C67  1  0.96406405  0.01914998  0.95039631  1  -0.169362  0  -0.019295  0.112162  0  3.997832  0
C  C68  1  0.90587641  0.02919436  0.87855281  1  0.101074  0  -0.101951  -0.18648  0  3.990971  0
C  C69  1  0.06260054  0.02531739  0.96469612  1  0.017274  0  -0.111824  -0.159053  0  4.086138  0
C  C70  1  0.08717736  0.97277323  0.88385755  1  -0.042823  0  -0.085855  -0.080436  0  3.995183  0
C  C71  1  0.18549122  0.56513078  0.67132319  1  0.020333  0  -0.034841  -0.09282  0  3.995975  0
C  C72  1  0.66334678  0.38413861  0.09182115  1  0.544198  0  0.105007  0.166774  0  4.102744  0
C  C73  1  0.20599296  0.62865789  0.78291565  1  0.416338  0  0.070088  0.119395  0  4.018299  0
C  C74  1  0.37246092  0.90025678  0.70572375  1  0.394325  0  0.007356  -0.044643  0  3.940676  0
C  C75  1  0.28719076  0.08402846  0.99699994  1  0.581816  0  0.10964  0.175161  0  4.067563  0
C  C76  1  0.18931359  0.98517748  0.91194775  1  0.033934  0  -0.040121  -0.049744  0  4.086602  0
C  C77  1  0.51884499  0.83956453  0.12089297  1  0.412031  0  0.013368  -0.032813  0  3.929385  0
C  C78  1  0.77676104  0.17360252  0.18071018  1  0.35311  0  -0.000246  -0.050535  0  3.974474  0
C  C79  1  0.42065274  0.09606347  0.31056169  1  0.399895  0  0.00296  -0.066778  0  3.999121  0
C  C80  1  0.71110255  0.92185524  0.83454886  1  0.396846  0  0.001271  -0.057445  0  4.013182  0
C  C81  1  0.78613490  0.10803584  0.91194922  1  0.425812  0  0.004667  -0.06142  0  3.991257  0
Br  Br82  1  0.92064129  0.00024541  0.05753041  1  -0.109377  0  -0.003323  -0.101069  0  1.398927  0
Br  Br83  1  0.11835230  0.60871026  0.85387247  1  -0.060092  0  0.052388  -0.059664  0  1.442242  0
N  N84  1  0.31488652  0.94380086  0.93708940  1  -0.783555  0  -0.278549  -0.171013  0  3.58548  0
N  N85  1  0.58039086  0.29270664  0.15668874  1  -0.780278  0  -0.266182  -0.165267  0  3.554164  0
N  N86  1  0.35518798  0.71362170  0.77926632  1  -0.768913  0  -0.265171  -0.164806  0  3.525242  0
N  N87  1  0.63360150  0.28931195  0.09258839  1  -0.785264  0  -0.277111  -0.239407  0  3.539706  0
N  N88  1  0.30616297  0.71699119  0.84680044  1  -0.784666  0  -0.277874  -0.229477  0  3.541758  0
N  N89  1  0.43792348  0.93963127  0.80763356  1  -0.76771  0  -0.277543  -0.18578  0  3.629897  0
N  N90  1  0.36149496  0.05880330  0.01099079  1  -0.763685  0  -0.277542  -0.243682  0  3.568796  0
N  N91  1  0.49990150  0.87728926  0.05627780  1  -0.776842  0  -0.279307  -0.171857  0  3.599865  0
N  N92  1  0.67341619  0.12261477  0.11754992  1  -0.779012  0  -0.290807  -0.190322  0  3.593516  0
N  N93  1  0.42035795  0.06362194  0.21105560  1  -0.801557  0  -0.273559  -0.1786  0  3.561845  0
N  N94  1  0.64069105  0.94975579  0.85333038  1  -0.790653  0  -0.275848  -0.185079  0  3.553494  0
N  N95  1  0.68762646  0.06607817  0.90209133  1  -0.804737  0  -0.275682  -0.1738  0  3.548497  0
N  N96  1  0.35613283  0.94625496  0.14246305  1  -0.783381  0  -0.271912  -0.177199  0  3.553624  0
N  N97  1  0.54289467  0.85219423  0.98435073  1  -0.784694  0  -0.276219  -0.23626  0  3.563136  0
N  N98  1  0.62491343  0.13272570  0.18496438  1  -0.791079  0  -0.284412  -0.185837  0  3.624005  0
N  N99  1  0.48534939  0.05560489  0.87164980  1  -0.821442  0  -0.287446  -0.183892  0  3.631574  0
Cl  Cl100  1  0.64332114  0.74431263  0.92613678  1  -0.207362  0  0.010073  -0.077157  0  1.573844  0
Cl  Cl101  1  0.88820458  0.47623857  0.37535400  1  -0.290338  0  -0.078498  -0.171116  0  1.338733  0
Cl  Cl102  1  0.72990062  0.40684084  0.01709179  1  -0.213193  0  -0.006147  -0.088127  0  1.467682  0
Cl  Cl103  1  0.31644467  0.22146888  0.07404488  1  -0.214922  0  0.010002  -0.072008  0  1.543343  0
