# generated using pymatgen
data_CaH10C4(NO5)2
_symmetry_space_group_name_H-M   'P 1'
_cell_length_a   7.38605403
_cell_length_b   7.38604622
_cell_length_c   10.45943344
_cell_angle_alpha   81.19981379
_cell_angle_beta   81.19989892
_cell_angle_gamma   65.91932236
_symmetry_Int_Tables_number   1
_chemical_formula_structural   CaH10C4(NO5)2
_chemical_formula_sum   'Ca2 H20 C8 N4 O20'
_cell_volume   512.21002183
_cell_formula_units_Z   2
loop_
 _symmetry_equiv_pos_site_id
 _symmetry_equiv_pos_as_xyz
  1  'x, y, z'
loop_
 _atom_site_type_symbol
 _atom_site_label
 _atom_site_symmetry_multiplicity
 _atom_site_fract_x
 _atom_site_fract_y
 _atom_site_fract_z
 _atom_site_occupancy
 _atom_site_hle17_bader_spin_density
 _atom_site_hle17_ddec_charge
 _atom_site_hle17_ddec_spin_density
 _atom_site_hle17_ddec_sum_bond_order
 _atom_site_hle17_magmom
 _atom_site_hse06_10hf_bader_spin_density
 _atom_site_hse06_10hf_ddec_charge
 _atom_site_hse06_10hf_ddec_spin_density
 _atom_site_hse06_10hf_ddec_sum_bond_order
 _atom_site_hse06_10hf_magmom
 _atom_site_hse06_bader_spin_density
 _atom_site_hse06_ddec_charge
 _atom_site_hse06_ddec_spin_density
 _atom_site_hse06_ddec_sum_bond_order
 _atom_site_hse06_magmom
 _atom_site_pbe_bader_spin_density
 _atom_site_pbe_cm5_charge
 _atom_site_pbe_ddec_charge
 _atom_site_pbe_ddec_spin_density
 _atom_site_pbe_ddec_sum_bond_order
 _atom_site_pbe_magmom
Ca  Ca0  1  0.18638797  0.81361485  0.24999903  1  0  1.475699  0  1.145712  0  0  1.321339  0  1.507308  0  0  1.367587  0  1.460872  0  0  0.892872  1.286725  0  1.539741  0
Ca  Ca1  1  0.81361174  0.18639001  0.74999945  1  0  1.475719  0  1.145697  0  0  1.32136  0  1.50729  0  0  1.367612  0  1.460843  0  0  0.892848  1.286748  0  1.539718  0
H  H2  1  0.34213613  0.28444389  0.51584400  1  0  0.072374  0  0.951084  0  0  0.079662  0  1.024  0  0  0.0807  0  1.022831  0  0  0.106864  0.078801  0  1.024974  0
H  H3  1  0.28444432  0.34213478  0.01584405  1  0  0.072328  0  0.951046  0  0  0.079617  0  1.024002  0  0  0.080654  0  1.022833  0  0  0.106855  0.078758  0  1.024976  0
H  H4  1  0.65786400  0.71555649  0.48415490  1  0  0.072347  0  0.951105  0  0  0.079637  0  1.024016  0  0  0.080674  0  1.022849  0  0  0.106851  0.078777  0  1.024987  0
H  H5  1  0.71555581  0.65786560  0.98415485  1  0  0.072363  0  0.951103  0  0  0.079644  0  1.02403  0  0  0.080681  0  1.022862  0  0  0.106857  0.078784  0  1.025003  0
H  H6  1  0.11809314  0.50184643  0.54339217  1  0  0.054711  0  0.949731  0  0  0.063144  0  1.024707  0  0  0.064291  0  1.023023  0  0  0.10133  0.062057  0  1.026341  0
H  H7  1  0.50184963  0.11809080  0.04339128  1  0  0.054679  0  0.949708  0  0  0.063123  0  1.024702  0  0  0.064272  0  1.023014  0  0  0.101322  0.062038  0  1.02634  0
H  H8  1  0.88190698  0.49815395  0.45660769  1  0  0.054705  0  0.949746  0  0  0.063135  0  1.024726  0  0  0.064283  0  1.023039  0  0  0.101326  0.062047  0  1.026361  0
H  H9  1  0.49815051  0.88190958  0.95660666  1  0  0.054684  0  0.949753  0  0  0.063115  0  1.024729  0  0  0.064263  0  1.023042  0  0  0.101321  0.06203  0  1.026365  0
H  H10  1  0.36608344  0.56252048  0.62613484  1  0  0.053245  0  0.907419  0  0  0.06203  0  0.971307  0  0  0.062757  0  0.9703  0  0  0.116034  0.061327  0  0.972284  0
H  H11  1  0.56252111  0.36608226  0.12613497  1  0  0.053235  0  0.907413  0  0  0.062027  0  0.971291  0  0  0.062752  0  0.970292  0  0  0.116037  0.061326  0  0.972266  0
H  H12  1  0.63391805  0.43747990  0.37386392  1  0  0.05322  0  0.907399  0  0  0.062015  0  0.971302  0  0  0.062743  0  0.970294  0  0  0.116039  0.061312  0  0.972279  0
H  H13  1  0.43747766  0.63391811  0.87386408  1  0  0.05321  0  0.907414  0  0  0.062015  0  0.971304  0  0  0.062742  0  0.970298  0  0  0.116024  0.061312  0  0.972278  0
H  H14  1  0.21944288  0.37481667  0.32360053  1  0  0.383107  0  0.888248  0  0  0.356275  0  0.964065  0  0  0.366981  0  0.951517  0  0  0.31114  0.348591  0  0.97301  0
H  H15  1  0.37481646  0.21944389  0.82359958  1  0  0.383057  0  0.888327  0  0  0.356226  0  0.964146  0  0  0.366937  0  0.951592  0  0  0.311105  0.348542  0  0.973093  0
H  H16  1  0.78055707  0.62518072  0.67639966  1  0  0.383046  0  0.888366  0  0  0.356231  0  0.964167  0  0  0.366936  0  0.951609  0  0  0.311101  0.348573  0  0.973101  0
H  H17  1  0.62518171  0.78055798  0.17639842  1  0  0.383125  0  0.888229  0  0  0.356292  0  0.964043  0  0  0.367001  0  0.951493  0  0  0.311146  0.348609  0  0.972986  0
H  H18  1  0.26043072  0.85235875  0.51610973  1  0  0.389536  0  0.907724  0  0  0.359784  0  0.986027  0  0  0.371647  0  0.968734  0  0  0.30971  0.351346  0  0.99592  0
H  H19  1  0.85235909  0.26043192  0.01610983  1  0  0.38958  0  0.907664  0  0  0.359826  0  0.985968  0  0  0.371694  0  0.968665  0  0  0.30973  0.351389  0  0.995865  0
H  H20  1  0.73956940  0.14764163  0.48388917  1  0  0.389559  0  0.907691  0  0  0.359806  0  0.985987  0  0  0.37167  0  0.968698  0  0  0.309719  0.351369  0  0.995883  0
H  H21  1  0.14764238  0.73956845  0.98389180  1  0  0.389604  0  0.907669  0  0  0.3598  0  0.986064  0  0  0.371667  0  0.968729  0  0  0.309701  0.35136  0  0.99597  0
C  C22  1  0.26655615  0.44489625  0.48877095  1  0  0.074699  0  3.610816  0  0  0.009279  0  3.887148  0  0  0.016689  0  3.890774  0  0  -0.076801  0.004306  0  3.884939  0
C  C23  1  0.44489859  0.26655567  0.98876990  1  0  0.074855  0  3.610556  0  0  0.009348  0  3.88702  0  0  0.016758  0  3.890646  0  0  -0.076775  0.004376  0  3.884812  0
C  C24  1  0.73344398  0.55510413  0.51122795  1  0  0.074697  0  3.610731  0  0  0.009295  0  3.887066  0  0  0.016701  0  3.890695  0  0  -0.076788  0.004323  0  3.884861  0
C  C25  1  0.55510291  0.73344473  0.01122790  1  0  0.074717  0  3.610779  0  0  0.009317  0  3.887103  0  0  0.016727  0  3.89073  0  0  -0.076775  0.004346  0  3.884894  0
C  C26  1  0.38787363  0.55326713  0.52030206  1  0  0.172632  0  3.584251  0  0  0.144453  0  3.841168  0  0  0.149996  0  3.850371  0  0  0.001363  0.140606  0  3.834999  0
C  C27  1  0.55326747  0.38787429  0.02030202  1  0  0.172657  0  3.584131  0  0  0.14449  0  3.841068  0  0  0.150034  0  3.850268  0  0  0.00137  0.140644  0  3.834898  0
C  C28  1  0.61212650  0.44673325  0.47969588  1  0  0.172812  0  3.584101  0  0  0.144557  0  3.841099  0  0  0.150102  0  3.850302  0  0  0.001375  0.14071  0  3.834932  0
C  C29  1  0.44673402  0.61212609  0.97969674  1  0  0.172769  0  3.584161  0  0  0.144511  0  3.841143  0  0  0.150057  0  3.850348  0  0  0.001373  0.140666  0  3.834968  0
N  N30  1  0.74500640  0.95973663  0.30778824  1  0  0.680235  0  4.158467  0  0  0.702577  0  4.465581  0  0  0.730437  0  4.472548  0  0  0.093373  0.683619  0  4.460505  0
N  N31  1  0.95974549  0.74498228  0.80779663  1  0  0.680075  0  4.158713  0  0  0.702606  0  4.46563  0  0  0.73046  0  4.472597  0  0  0.093246  0.683649  0  4.460553  0
N  N32  1  0.25500174  0.04026081  0.69221109  1  0  0.680175  0  4.158541  0  0  0.7024  0  4.465763  0  0  0.730258  0  4.472729  0  0  0.093402  0.68344  0  4.460687  0
N  N33  1  0.04027022  0.25498226  0.19221488  1  0  0.679957  0  4.158986  0  0  0.702506  0  4.465883  0  0  0.730374  0  4.472844  0  0  0.09337  0.683549  0  4.4608  0
O  O34  1  0.24893220  0.48169398  0.35079521  1  0  -0.606473  0  2.114817  0  0  -0.545674  0  2.367414  0  0  -0.565149  0  2.35363  0  0  -0.444048  -0.531576  0  2.37677  0
O  O35  1  0.48169172  0.24893490  0.85079338  1  0  -0.60649  0  2.114785  0  0  -0.545653  0  2.367398  0  0  -0.565135  0  2.353615  0  0  -0.444034  -0.531551  0  2.376751  0
O  O36  1  0.75106733  0.51830789  0.64920455  1  0  -0.606437  0  2.114883  0  0  -0.545639  0  2.367457  0  0  -0.565109  0  2.35368  0  0  -0.444026  -0.531576  0  2.376745  0
O  O37  1  0.51830449  0.75106845  0.14920466  1  0  -0.606505  0  2.114802  0  0  -0.545699  0  2.36739  0  0  -0.565178  0  2.353601  0  0  -0.444063  -0.531599  0  2.376744  0
O  O38  1  0.31805963  0.75012945  0.45245655  1  0  -0.625233  0  2.103538  0  0  -0.563317  0  2.346039  0  0  -0.584035  0  2.330558  0  0  -0.44327  -0.548345  0  2.35448  0
O  O39  1  0.75012700  0.31806206  0.95245486  1  0  -0.625286  0  2.10351  0  0  -0.563366  0  2.346017  0  0  -0.584086  0  2.330527  0  0  -0.443286  -0.548393  0  2.354458  0
O  O40  1  0.68193793  0.24987389  0.54754327  1  0  -0.62529  0  2.103483  0  0  -0.563352  0  2.345997  0  0  -0.584073  0  2.330519  0  0  -0.443283  -0.54838  0  2.35444  0
O  O41  1  0.24987372  0.68193682  0.04754414  1  0  -0.625296  0  2.103524  0  0  -0.563352  0  2.34607  0  0  -0.584072  0  2.330556  0  0  -0.443275  -0.548378  0  2.354515  0
O  O42  1  0.82774908  0.84179424  0.21921662  1  0  -0.478945  0  1.782073  0  0  -0.454883  0  1.998826  0  0  -0.473102  0  1.993043  0  0  -0.175121  -0.441968  0  2.002472  0
O  O43  1  0.84179405  0.82774379  0.71921912  1  0  -0.478838  0  1.781746  0  0  -0.454966  0  1.998539  0  0  -0.473167  0  1.992707  0  0  -0.17513  -0.442048  0  2.00219  0
O  O44  1  0.17224927  0.15821062  0.78078105  1  0  -0.478908  0  1.782001  0  0  -0.454848  0  1.998844  0  0  -0.473069  0  1.993048  0  0  -0.175129  -0.441929  0  2.002488  0
O  O45  1  0.15820844  0.17225061  0.28078207  1  0  -0.478788  0  1.782428  0  0  -0.454789  0  1.999107  0  0  -0.473007  0  1.993326  0  0  -0.175061  -0.441872  0  2.002748  0
O  O46  1  0.86356231  0.98338304  0.37708985  1  0  -0.527733  0  1.82214  0  0  -0.501139  0  2.047905  0  0  -0.520947  0  2.040507  0  0  -0.213858  -0.48704  0  2.052373  0
O  O47  1  0.98338338  0.86356579  0.87709049  1  0  -0.527878  0  1.821952  0  0  -0.501281  0  2.047603  0  0  -0.521102  0  2.040203  0  0  -0.213924  -0.487184  0  2.052078  0
O  O48  1  0.13643919  0.01661735  0.62290795  1  0  -0.527705  0  1.822069  0  0  -0.501065  0  2.04787  0  0  -0.520876  0  2.04047  0  0  -0.213867  -0.486967  0  2.052336  0
O  O49  1  0.01661572  0.13644055  0.12290981  1  0  -0.527612  0  1.822404  0  0  -0.501108  0  2.048135  0  0  -0.520935  0  2.040749  0  0  -0.213855  -0.487011  0  2.052606  0
O  O50  1  0.56220753  0.04684177  0.32789536  1  0  -0.380046  0  1.781342  0  0  -0.37288  0  2.000062  0  0  -0.384079  0  1.993913  0  0  -0.133151  -0.365113  0  2.004387  0
O  O51  1  0.04682018  0.56221796  0.82790681  1  0  -0.379889  0  1.78211  0  0  -0.372686  0  2.00069  0  0  -0.383875  0  1.994537  0  0  -0.132919  -0.36492  0  2.005011  0
O  O52  1  0.43778728  0.95316154  0.67210762  1  0  -0.380001  0  1.781503  0  0  -0.372803  0  2.00028  0  0  -0.383999  0  1.994126  0  0  -0.133145  -0.365037  0  2.004607  0
O  O53  1  0.95315632  0.43780011  0.17210514  1  0  -0.380055  0  1.781192  0  0  -0.372942  0  1.999816  0  0  -0.384141  0  1.993661  0  0  -0.133225  -0.365168  0  2.004137  0
