# generated using pymatgen
data_ZnH10C19(NO2)2
_symmetry_space_group_name_H-M   'P 1'
_cell_length_a   13.13241991
_cell_length_b   13.99901243
_cell_length_c   15.40522806
_cell_angle_alpha   89.73302727
_cell_angle_beta   90.92634920
_cell_angle_gamma   82.62091033
_symmetry_Int_Tables_number   1
_chemical_formula_structural   ZnH10C19(NO2)2
_chemical_formula_sum   'Zn2 H20 C38 N4 O8'
_cell_volume   2808.22400022
_cell_formula_units_Z   2
loop_
 _symmetry_equiv_pos_site_id
 _symmetry_equiv_pos_as_xyz
  1  'x, y, z'
loop_
 _atom_site_type_symbol
 _atom_site_label
 _atom_site_symmetry_multiplicity
 _atom_site_fract_x
 _atom_site_fract_y
 _atom_site_fract_z
 _atom_site_occupancy
 _atom_site_pbe_bader_charge
 _atom_site_pbe_bader_spin_density
 _atom_site_pbe_cm5_charge
 _atom_site_pbe_ddec_charge
 _atom_site_pbe_ddec_spin_density
 _atom_site_pbe_ddec_sum_bond_order
 _atom_site_pbe_magmom
Zn  Zn0  1  0.49364170  0.60253169  0.49991289  1  1.287603  0  0.670703  0.823989  0  2.404893  0
Zn  Zn1  1  0.50108531  0.39864263  0.49811514  1  1.284794  0  0.671367  0.822432  0  2.422312  0
H  H2  1  0.18385005  0.37379068  0.50555381  1  0.072379  0  0.10353  0.10853  0  1.011758  0
H  H3  1  0.81146497  0.61607150  0.49457721  1  0.083648  0  0.104027  0.111667  0  1.00639  0
H  H4  1  0.36553320  0.26463678  0.57245008  1  0.126796  0  0.130606  0.109076  0  0.976734  0
H  H5  1  0.55168646  0.74844939  0.37646167  1  0.160866  0  0.126741  0.107082  0  1.000858  0
H  H6  1  0.35634205  0.08755407  0.57541168  1  0.111273  0  0.11779  0.125024  0  0.982691  0
H  H7  1  0.55247386  0.92584827  0.36978545  1  0.097979  0  0.117247  0.125369  0  0.985016  0
H  H8  1  0.16275783  0.68198876  0.49132574  1  0.090764  0  0.103376  0.109747  0  0.998121  0
H  H9  1  0.83274634  0.30833257  0.51510424  1  0.124707  0  0.100662  0.104847  0  1.005624  0
H  H10  1  0.02427903  0.29457117  0.51468488  1  0.054887  0  0.099979  0.099863  0  0.997132  0
H  H11  1  0.97110797  0.69550941  0.49086665  1  0.059811  0  0.100128  0.099795  0  0.997777  0
H  H12  1  0.48183611  0.65523792  0.05345497  1  0.08981  0  0.112417  0.116915  0  0.995394  0
H  H13  1  0.45170457  0.36479033  0.94176953  1  0.085897  0  0.112612  0.117832  0  0.992843  0
H  H14  1  0.54768209  0.35347829  0.22618453  1  0.143634  0  0.11103  0.117705  0  0.992242  0
H  H15  1  0.56965934  0.63228710  0.77438014  1  0.122148  0  0.111349  0.117052  0  0.990017  0
H  H16  1  0.55608143  0.34634419  0.06483030  1  0.05751  0  0.108663  0.10847  0  0.990267  0
H  H17  1  0.58379793  0.63127628  0.93579268  1  0.049561  0  0.107911  0.107679  0  0.992554  0
H  H18  1  0.63528677  0.05045593  0.42670700  1  0.067871  0  0.11464  0.121122  0  0.990681  0
H  H19  1  0.43489454  0.93976676  0.63104526  1  0.129521  0  0.116628  0.123934  0  0.986957  0
H  H20  1  0.63124790  0.22997978  0.42909814  1  0.119398  0  0.129525  0.104332  0  0.970755  0
H  H21  1  0.43793550  0.76035770  0.62551880  1  0.129654  0  0.128279  0.104131  0  0.978374  0
C  C22  1  0.50534474  0.50581294  0.32839366  1  1.621148  0  0.215394  0.587822  0  4.192134  0
C  C23  1  0.49953013  0.50418016  0.66960116  1  1.587313  0  0.214887  0.586718  0  4.195681  0
C  C24  1  0.51183839  0.50637324  0.23092673  1  -0.041647  0  -0.000263  -0.050368  0  3.898789  0
C  C25  1  0.50596614  0.49961069  0.76701962  1  0.054912  0  0.00174  -0.045772  0  3.902563  0
C  C26  1  0.53365930  0.41900033  0.18703360  1  0.003376  0  -0.074779  -0.07664  0  3.976144  0
C  C27  1  0.54448333  0.57399102  0.81228327  1  -0.029914  0  -0.077216  -0.081403  0  3.98537  0
C  C28  1  0.53726032  0.41549009  0.09693178  1  -0.055313  0  -0.078307  -0.118227  0  3.960734  0
C  C29  1  0.55117428  0.57344959  0.90238960  1  -0.053218  0  -0.078757  -0.119283  0  3.968192  0
C  C30  1  0.51835924  0.50030513  0.04678926  1  -0.045756  0  -0.000919  0.075276  0  4.013835  0
C  C31  1  0.51745894  0.49849815  0.95092697  1  -0.00673  0  9.4e-05  0.076681  0  4.011785  0
C  C32  1  0.57295905  0.09525050  0.45848764  1  -0.06817  0  -0.078118  -0.178883  0  3.953764  0
C  C33  1  0.46072721  0.90034171  0.57293842  1  -0.011155  0  -0.077748  -0.178861  0  3.951003  0
C  C34  1  0.57172854  0.19448778  0.45969395  1  0.520037  0  0.061009  0.104699  0  3.929875  0
C  C35  1  0.46246166  0.80099926  0.57081227  1  0.45319  0  0.059613  0.105715  0  3.923812  0
C  C36  1  0.42283003  0.21424540  0.54036353  1  0.541863  0  0.067886  0.121074  0  3.895481  0
C  C37  1  0.52796501  0.79362535  0.43168417  1  0.470899  0  0.064271  0.117655  0  3.896967  0
C  C38  1  0.41907571  0.11549562  0.54230697  1  -0.02229  0  -0.072008  -0.167954  0  3.92378  0
C  C39  1  0.52852570  0.89273617  0.42890882  1  0.017102  0  -0.073222  -0.166944  0  3.925372  0
C  C40  1  0.49517563  0.05368641  0.50048687  1  0.003206  0  0.017324  0.109045  0  3.987162  0
C  C41  1  0.49465398  0.94835345  0.50077613  1  -0.065498  0  0.01628  0.104865  0  3.991312  0
C  C42  1  0.69702256  0.47171029  0.50267451  1  1.524801  0  0.210434  0.588711  0  4.170585  0
C  C43  1  0.29844165  0.51822243  0.49689924  1  1.525724  0  0.213215  0.590415  0  4.171394  0
C  C44  1  0.18364579  0.52635281  0.49837465  1  0.043188  0  -0.018189  -0.025014  0  3.97797  0
C  C45  1  0.81182665  0.46376396  0.50410401  1  0.089812  0  -0.021408  -0.030227  0  3.984442  0
C  C46  1  0.97760122  0.36489415  0.51028643  1  -0.017674  0  -0.092127  -0.13615  0  4.007694  0
C  C47  1  0.01789555  0.62520377  0.49469957  1  -0.013528  0  -0.091571  -0.136233  0  4.009038  0
C  C48  1  0.87207839  0.37206834  0.51034803  1  -0.136892  0  -0.091681  -0.10342  0  4.009222  0
C  C49  1  0.12341227  0.61816464  0.49476087  1  -0.100603  0  -0.089922  -0.10211  0  4.00406  0
C  C50  1  0.85916062  0.54639826  0.49907540  1  -0.030378  0  -0.079521  -0.137181  0  3.93454  0
C  C51  1  0.13631867  0.44365064  0.50311885  1  0.002427  0  -0.07917  -0.137241  0  3.933603  0
C  C52  1  0.96736640  0.54144846  0.49950690  1  -0.034712  0  -0.005691  0.078303  0  4.004071  0
C  C53  1  0.02815916  0.44858887  0.50455016  1  -0.045599  0  -0.004775  0.079338  0  4.002798  0
C  C54  1  0.49811978  0.58817086  0.09019618  1  -0.041891  0  -0.071568  -0.15683  0  3.909518  0
C  C55  1  0.48000569  0.42310571  0.90605880  1  -0.012815  0  -0.071369  -0.157592  0  3.906552  0
C  C56  1  0.49521709  0.59216943  0.18122483  1  0.094459  0  0.015413  0.053813  0  4.05174  0
C  C57  1  0.47472545  0.42242561  0.81487164  1  0.103234  0  0.015952  0.054013  0  4.044513  0
C  C58  1  0.47544187  0.68675275  0.21710775  1  0.886678  0  0.180064  0.255179  0  4.028059  0
C  C59  1  0.43421760  0.34248322  0.77542255  1  0.863579  0  0.179368  0.260527  0  4.026166  0
N  N60  1  0.49773361  0.25287462  0.49958801  1  -1.245574  0  -0.317334  -0.195601  0  3.510114  0
N  N61  1  0.49561078  0.74857785  0.50134864  1  -1.249433  0  -0.316749  -0.197351  0  3.509718  0
N  N62  1  0.46127418  0.76859132  0.23439500  1  -1.162091  0  -0.329064  -0.392776  0  2.721163  0
N  N63  1  0.39937944  0.27390385  0.75251854  1  -1.145319  0  -0.333322  -0.396964  0  2.710249  0
O  O64  1  0.48630042  0.58716194  0.36501599  1  -1.149125  0  -0.30155  -0.530098  0  2.33615  0
O  O65  1  0.48791481  0.42656183  0.63071359  1  -1.158753  0  -0.300991  -0.528708  0  2.344869  0
O  O66  1  0.51875713  0.42380589  0.36552209  1  -1.168164  0  -0.314867  -0.545511  0  2.312632  0
O  O67  1  0.50674589  0.58551591  0.63472072  1  -1.164715  0  -0.315065  -0.549068  0  2.319139  0
O  O68  1  0.64770010  0.55563996  0.49258073  1  -1.177705  0  -0.320361  -0.554763  0  2.346967  0
O  O69  1  0.34666931  0.43436068  0.48514288  1  -1.177148  0  -0.320417  -0.553039  0  2.353353  0
O  O70  1  0.65685997  0.39397500  0.51136623  1  -1.164251  0  -0.318044  -0.545036  0  2.319362  0
O  O71  1  0.33955162  0.59510880  0.50747012  1  -1.161398  0  -0.316059  -0.541193  0  2.315987  0
