# generated using pymatgen
data_CoH28C40(N5O3)2
_symmetry_space_group_name_H-M   'P 1'
_cell_length_a   8.48641623
_cell_length_b   10.06801274
_cell_length_c   11.75818395
_cell_angle_alpha   93.67308583
_cell_angle_beta   98.89164144
_cell_angle_gamma   91.48685258
_symmetry_Int_Tables_number   1
_chemical_formula_structural   CoH28C40(N5O3)2
_chemical_formula_sum   'Co1 H28 C40 N10 O6'
_cell_volume   989.86790475
_cell_formula_units_Z   1
loop_
 _symmetry_equiv_pos_site_id
 _symmetry_equiv_pos_as_xyz
  1  'x, y, z'
loop_
 _atom_site_type_symbol
 _atom_site_label
 _atom_site_symmetry_multiplicity
 _atom_site_fract_x
 _atom_site_fract_y
 _atom_site_fract_z
 _atom_site_occupancy
 _atom_site_hle17_ddec_charge
 _atom_site_hle17_ddec_spin_density
 _atom_site_hle17_ddec_sum_bond_order
 _atom_site_hle17_magmom
 _atom_site_hse06_10hf_ddec_charge
 _atom_site_hse06_10hf_ddec_spin_density
 _atom_site_hse06_10hf_ddec_sum_bond_order
 _atom_site_hse06_10hf_magmom
 _atom_site_hse06_ddec_charge
 _atom_site_hse06_ddec_spin_density
 _atom_site_hse06_ddec_sum_bond_order
 _atom_site_hse06_magmom
 _atom_site_pbe_cm5_charge
 _atom_site_pbe_ddec_charge
 _atom_site_pbe_ddec_spin_density
 _atom_site_pbe_ddec_sum_bond_order
 _atom_site_pbe_magmom
Co  Co0  1  0.00000021  0.49999813  0.99999813  1  0.619347  1.0692  2.541401  0.973  0.597319  1.012987  2.964195  0.933  0.655493  1.023657  2.903945  0.957  0.677605  0.564031  0.992978  3.002082  0.9
H  H1  1  0.67691423  0.65646406  0.97202649  1  0.097496  2.1e-05  0.95694  0.0  0.107189  -9e-05  1.01905  0.0  0.109012  -5.1e-05  1.017101  0.0  0.137635  0.105666  -0.000129  1.020951  0.0
H  H2  1  0.32308366  0.34353963  0.02797463  1  0.097543  2e-05  0.956896  0.0  0.107213  -9e-05  1.019057  0.0  0.109033  -5.1e-05  1.017116  0.0  0.137685  0.105698  -0.000129  1.020948  0.0
H  H3  1  0.94338492  0.99416584  0.13820971  1  0.130837  -0.000165  0.967295  0.0  0.130914  -5.2e-05  1.042258  0.0  0.135082  -5.5e-05  1.038777  0.0  0.122228  0.127473  3e-05  1.045443  0.0
H  H4  1  0.05662704  0.00583380  0.86179013  1  0.130763  -0.000165  0.967319  0.0  0.130896  -5.2e-05  1.042227  0.0  0.13506  -5.5e-05  1.038751  0.0  0.122236  0.127455  3e-05  1.04541  0.0
H  H5  1  0.14345318  0.77893903  0.13166161  1  0.109178  3.4e-05  0.969294  0.0  0.116834  -1.7e-05  1.031976  0.0  0.118468  -1.6e-05  1.032592  0.0  0.117644  0.115715  -3e-06  1.031653  0.0
H  H6  1  0.85655496  0.22105768  0.86832744  1  0.109095  3.4e-05  0.969362  0.0  0.116775  -1.7e-05  1.032011  0.0  0.118407  -1.6e-05  1.03263  0.0  0.117604  0.115655  -3e-06  1.031689  0.0
H  H7  1  0.79711133  0.87868480  0.84329003  1  0.106986  2.2e-05  0.987804  0.0  0.113019  7.4e-05  1.056475  0.0  0.116189  4.5e-05  1.054884  0.0  0.10277  0.110507  0.000111  1.058095  0.0
H  H8  1  0.20289741  0.12132082  0.15671406  1  0.107101  2.2e-05  0.987735  0.0  0.113048  7.4e-05  1.056499  0.0  0.116216  4.5e-05  1.05491  0.0  0.10279  0.110591  0.000111  1.058061  0.0
H  H9  1  0.72974007  0.96619500  0.65331030  1  0.08992  1e-06  0.937796  0.0  0.104271  -0.0  0.989104  0.0  0.107055  -1e-06  0.988244  0.0  0.104053  0.102318  1e-06  0.989796  0.0
H  H10  1  0.27026277  0.03381265  0.34668988  1  0.089945  1e-06  0.937808  0.0  0.104289  -0.0  0.989115  0.0  0.107072  -1e-06  0.988256  0.0  0.104075  0.102337  1e-06  0.989806  0.0
H  H11  1  0.49174200  0.10587794  0.60824186  1  0.086996  1e-06  0.951253  0.0  0.0993  0.0  1.007792  0.0  0.101637  1e-06  1.007774  0.0  0.099444  0.097715  -1e-06  1.007917  0.0
H  H12  1  0.50825459  0.89412377  0.39175816  1  0.087009  1e-06  0.951265  0.0  0.099318  0.0  1.007791  0.0  0.101655  1e-06  1.007773  0.0  0.099458  0.097735  -1e-06  1.007917  0.0
H  H13  1  0.31847209  0.15473713  0.75531520  1  0.091981  -1.2e-05  0.955929  0.0  0.103741  -1.2e-05  1.012596  0.0  0.106614  -7e-06  1.011766  0.0  0.103198  0.101798  -2.1e-05  1.013114  0.0
H  H14  1  0.68153258  0.84525854  0.24468958  1  0.092021  -1.1e-05  0.955978  0.0  0.103781  -1.2e-05  1.012631  0.0  0.106655  -7e-06  1.011802  0.0  0.103231  0.101841  -2.1e-05  1.013146  0.0
H  H15  1  0.12669991  0.44763631  0.25887182  1  0.121341  -1.6e-05  0.949417  0.0  0.122239  -9.4e-05  1.020564  0.0  0.127157  -7.6e-05  1.013317  0.0  0.13962  0.118495  -0.000114  1.026015  0.0
H  H16  1  0.87329004  0.55235350  0.74112085  1  0.121374  -1.5e-05  0.949425  0.0  0.12226  -9.4e-05  1.020572  0.0  0.127211  -7.6e-05  1.013285  0.0  0.139665  0.118516  -0.000114  1.026023  0.0
H  H17  1  0.34753324  0.62404097  0.00503400  1  0.121316  -4.1e-05  0.985574  0.0  0.120003  -5.8e-05  1.060591  0.0  0.124137  -5.5e-05  1.056856  0.0  0.117393  0.1169  -6.3e-05  1.063498  0.0
H  H18  1  0.65247062  0.37596269  0.99496861  1  0.121291  -3.9e-05  0.985527  0.0  0.119979  -5.8e-05  1.060558  0.0  0.124111  -5.5e-05  1.056824  0.0  0.117391  0.116875  -6.3e-05  1.063465  0.0
H  H19  1  0.57353968  0.61127229  0.20515169  1  0.124643  -0.000191  0.939829  0.0  0.13489  -9e-05  0.996967  0.0  0.1378  -7.2e-05  0.995279  0.0  0.127283  0.132734  -0.000107  0.99844  0.0
H  H20  1  0.42645094  0.38872743  0.79485778  1  0.124687  -0.000198  0.939926  0.0  0.134947  -9e-05  0.99702  0.0  0.137857  -7.2e-05  0.99533  0.0  0.12725  0.132791  -0.000108  0.998493  0.0
H  H21  1  0.22679461  0.71426160  0.35316310  1  0.092687  -5.9e-05  0.969571  0.0  0.10139  -5.2e-05  1.034599  0.0  0.104122  -3.5e-05  1.033946  0.0  0.101029  0.099116  -6.6e-05  1.0358  0.0
H  H22  1  0.77320058  0.28573512  0.64684244  1  0.092738  -6.1e-05  0.969351  0.0  0.101393  -5.2e-05  1.034445  0.0  0.104124  -3.5e-05  1.033795  0.0  0.101038  0.099119  -6.6e-05  1.035645  0.0
H  H23  1  0.15461391  0.86735882  0.50689843  1  0.087234  2e-06  0.935873  0.0  0.101406  1e-06  0.987289  0.0  0.104386  1e-06  0.985947  0.0  0.103022  0.09921  2e-06  0.988349  0.0
H  H24  1  0.84539372  0.13264982  0.49309891  1  0.087226  3e-06  0.935894  0.0  0.101404  1e-06  0.987302  0.0  0.104383  1e-06  0.985961  0.0  0.103016  0.099209  2e-06  0.988361  0.0
H  H25  1  0.27127168  0.84506436  0.71290910  1  0.096832  3e-06  0.974338  0.0  0.103722  1.1e-05  1.039632  0.0  0.106475  -1e-06  1.038869  0.0  0.10148  0.101513  2.7e-05  1.040766  0.0
H  H26  1  0.72873492  0.15494727  0.28709001  1  0.096821  -0.0  0.974496  0.0  0.103729  1.1e-05  1.039758  0.0  0.106483  -1e-06  1.038993  0.0  0.101471  0.101516  2.7e-05  1.040903  0.0
H  H27  1  0.45857600  0.67085664  0.76563881  1  0.097336  1e-06  0.95809  0.0  0.103458  2e-06  1.027389  0.0  0.106585  -1e-06  1.026077  0.0  0.101272  0.101081  9e-06  1.028667  0.0
H  H28  1  0.54141816  0.32914409  0.23436259  1  0.097338  2e-06  0.958093  0.0  0.103462  2e-06  1.027388  0.0  0.106584  -1e-06  1.02609  0.0  0.101256  0.101086  9e-06  1.028666  0.0
C  C29  1  0.77910642  0.71525096  0.01638568  1  0.162609  -0.013726  3.611754  -0.009  0.104507  -0.0048  3.881076  -0.003  0.12104  -0.003583  3.89156  -0.002  0.143781  0.092814  -0.006018  3.875084  -0.004
C  C30  1  0.22089491  0.28475073  0.98361314  1  0.162603  -0.013706  3.611654  -0.009  0.104483  -0.004801  3.881058  -0.003  0.121013  -0.003582  3.891548  -0.002  0.14376  0.092775  -0.006019  3.875061  -0.004
C  C31  1  0.92111483  0.89105743  0.10517618  1  -0.053268  0.001534  3.64163  0.002  -0.091822  0.000173  3.901923  0.0  -0.091362  0.000173  3.919616  0.0  0.006777  -0.091779  0.000235  3.890301  0.0
C  C32  1  0.07889703  0.10894225  0.89481344  1  -0.053329  0.001536  3.641684  0.002  -0.091961  0.000174  3.901995  0.0  -0.091501  0.000173  3.919689  0.0  0.006613  -0.091915  0.000235  3.890366  0.0
C  C33  1  0.01684348  0.78340794  0.10148865  1  -0.005653  -0.005346  3.7067  -0.004  -0.039822  -0.002264  3.978148  -0.002  -0.036716  -0.00191  3.998682  -0.001  -0.004005  -0.041977  -0.002415  3.964572  -0.002
C  C34  1  0.98316363  0.21659176  0.89850217  1  -0.005507  -0.005354  3.70651  -0.004  -0.039656  -0.002265  3.977954  -0.002  -0.03655  -0.001911  3.998486  -0.001  -0.003904  -0.041819  -0.002416  3.964376  -0.002
C  C35  1  0.63305152  0.92329448  0.02525464  1  0.09746  -0.000605  3.693356  0.0  0.079135  -0.000172  3.944152  0.0  0.082703  -9.1e-05  3.964731  0.0  0.101664  0.076755  -0.000188  3.930312  0.0
C  C36  1  0.36695822  0.07670715  0.97475102  1  0.09734  -0.000593  3.69318  0.0  0.079094  -0.000174  3.944028  0.0  0.082662  -8.7e-05  3.964608  0.0  0.101579  0.076718  -0.000188  3.930187  0.0
C  C37  1  0.59754150  0.96824813  0.91375623  1  0.022856  -0.000131  3.744726  0.0  0.032759  -5.9e-05  3.975899  0.0  0.032441  -4.1e-05  3.998661  0.0  0.0073  0.03296  -6e-06  3.960392  0.0
C  C38  1  0.40246737  0.03175947  0.08625139  1  0.023153  -0.000133  3.744579  0.0  0.032858  -5.8e-05  3.975956  0.0  0.032539  -4.2e-05  3.998719  0.0  0.007337  0.033053  -6e-06  3.960457  0.0
C  C39  1  0.69310831  0.93984838  0.82602671  1  -0.103485  -8.8e-05  3.706021  0.0  -0.124252  6.4e-05  3.95473  0.0  -0.126971  5.4e-05  3.976147  0.0  -0.08564  -0.122047  7.1e-05  3.940258  0.0
C  C40  1  0.30689690  0.06015826  0.17397791  1  -0.103739  -8.8e-05  3.70623  0.0  -0.124393  6.4e-05  3.955021  0.0  -0.127111  5.6e-05  3.976444  0.0  -0.085681  -0.122234  7.1e-05  3.940526  0.0
C  C41  1  0.65512225  0.98887086  0.71918375  1  -0.062939  4e-06  3.768981  0.0  -0.075671  6e-06  4.01796  0.0  -0.077919  3e-06  4.040231  0.0  -0.089613  -0.074235  1e-05  4.003185  0.0
C  C42  1  0.34487682  0.01113283  0.28081750  1  -0.062813  6e-06  3.7691  0.0  -0.075521  6e-06  4.018028  0.0  -0.077768  0.0  4.040297  0.0  -0.089558  -0.074088  1e-05  4.003266  0.0
C  C43  1  0.51952398  0.06771194  0.69346757  1  -0.063934  -0.000133  3.791768  0.0  -0.079951  -3.8e-05  4.047933  0.0  -0.081373  -9e-06  4.070346  0.0  -0.089961  -0.079323  -9.5e-05  4.033592  0.0
C  C44  1  0.48047385  0.93229076  0.30653349  1  -0.063932  -0.000132  3.791663  0.0  -0.079958  -3.9e-05  4.047849  0.0  -0.081381  -7e-06  4.070262  0.0  -0.089922  -0.07933  -9.5e-05  4.033507  0.0
C  C45  1  0.42378598  0.09578797  0.77540659  1  -0.11658  -1e-05  3.762141  0.0  -0.137995  -9e-06  4.017754  0.0  -0.141185  -6e-06  4.039233  0.0  -0.090958  -0.135342  -2.2e-05  4.003349  0.0
C  C46  1  0.57622267  0.90421565  0.22459907  1  -0.11659  -1.4e-05  3.762052  0.0  -0.138016  -8e-06  4.017654  0.0  -0.141206  -8e-06  4.039134  0.0  -0.091012  -0.135367  -2.2e-05  4.003244  0.0
C  C47  1  0.54042525  0.95182237  0.11223465  1  0.02467  -7e-05  3.762572  0.0  0.032117  -6.6e-05  3.997123  0.0  0.031919  -3.8e-05  4.019952  0.0  0.006893  0.032103  -0.0001  3.981771  0.0
C  C48  1  0.45958459  0.04818125  0.88777114  1  0.024885  -7.5e-05  3.762544  0.0  0.032217  -6.4e-05  3.997122  0.0  0.032019  -4e-05  4.01995  0.0  0.006911  0.032193  -0.0001  3.981786  0.0
C  C49  1  0.21542031  0.49701131  0.21757482  1  0.164649  -0.009473  3.583512  -0.006  0.102704  -0.00431  3.85785  -0.003  0.119864  -0.003346  3.864564  -0.002  0.147476  0.091135  -0.004971  3.853841  -0.003
C  C50  1  0.78457351  0.50298345  0.78242280  1  0.164655  -0.009515  3.583504  -0.006  0.102725  -0.004309  3.857863  -0.003  0.119861  -0.003344  3.864552  -0.002  0.147455  0.091157  -0.00497  3.853856  -0.003
C  C51  1  0.33815996  0.58472441  0.08752923  1  -0.025507  -0.004124  3.72015  -0.003  -0.057728  -0.00207  3.995174  -0.002  -0.055192  -0.00181  4.012899  -0.001  -0.006605  -0.059313  -0.002217  3.983581  -0.002
C  C52  1  0.66183307  0.41527731  0.91247381  1  -0.025473  -0.004205  3.720178  -0.003  -0.057696  -0.002072  3.995226  -0.002  -0.055159  -0.001811  4.012946  -0.001  -0.006606  -0.059278  -0.002217  3.983634  -0.002
C  C53  1  0.44855090  0.58074777  0.18542677  1  -0.055385  0.000782  3.671351  0.001  -0.097805  3.8e-05  3.934942  0.0  -0.096328  9e-05  3.953133  0.0  0.004951  -0.098641  1.9e-05  3.922761  0.0
C  C54  1  0.55143607  0.41925200  0.81457467  1  -0.055455  0.000833  3.671347  0.001  -0.097885  3.8e-05  3.934904  0.0  -0.096406  8.9e-05  3.953092  0.0  0.004995  -0.098722  1.9e-05  3.922722  0.0
C  C55  1  0.43481580  0.51166600  0.38490128  1  0.082885  -0.000538  3.717573  0.0  0.065236  -0.000138  3.969378  0.0  0.068122  -6.1e-05  3.991813  0.0  0.094949  0.063009  -0.000352  3.95429  0.0
C  C56  1  0.56517075  0.48832478  0.61510470  1  0.082815  -0.000382  3.717816  0.0  0.065188  -0.00014  3.969595  0.0  0.068077  -5.8e-05  3.992026  0.0  0.094916  0.062958  -0.000352  3.95451  0.0
C  C57  1  0.38740191  0.60034943  0.46968525  1  0.006754  -0.000114  3.783599  0.0  0.015606  -0.000119  4.01822  0.0  0.014884  -7.6e-05  4.04239  0.0  -0.002152  0.016177  -0.000168  4.001896  0.0
C  C58  1  0.61258725  0.39964633  0.53031704  1  0.006835  -0.000197  3.783643  0.0  0.015648  -0.000117  4.018293  0.0  0.014924  -7.6e-05  4.042464  0.0  -0.002199  0.01622  -0.000168  4.001968  0.0
C  C59  1  0.27827610  0.70355225  0.44272687  1  -0.117933  -0.000143  3.763988  0.0  -0.137814  -8e-06  4.015427  0.0  -0.141056  8e-06  4.037448  0.0  -0.092825  -0.135799  -3.7e-05  4.000942  0.0
C  C60  1  0.72171665  0.29644450  0.55727245  1  -0.118076  -3.3e-05  3.763815  0.0  -0.137906  -1e-05  4.015285  0.0  -0.141147  8e-06  4.037305  0.0  -0.092792  -0.135891  -3.7e-05  4.0008  0.0
C  C61  1  0.23828551  0.78905947  0.52858995  1  -0.059575  0.0  3.775457  0.0  -0.072505  -3.5e-05  4.02333  0.0  -0.073814  -3.3e-05  4.04441  0.0  -0.087629  -0.071202  -5.2e-05  4.008934  0.0
C  C62  1  0.76171099  0.21094126  0.47140660  1  -0.059455  -9.7e-05  3.775485  0.0  -0.072375  -3.3e-05  4.023324  0.0  -0.073685  -3.5e-05  4.044404  0.0  -0.087599  -0.071072  -5.2e-05  4.008928  0.0
C  C63  1  0.30413008  0.77682091  0.64572094  1  -0.046621  -0.000131  3.753397  0.0  -0.062822  3.5e-05  4.004331  0.0  -0.064652  3.4e-05  4.026753  0.0  -0.088416  -0.061913  8e-06  3.990035  0.0
C  C64  1  0.69586990  0.22317780  0.35427671  1  -0.04675  -3.2e-05  3.753847  0.0  -0.062983  3.5e-05  4.004799  0.0  -0.064812  3.5e-05  4.027221  0.0  -0.088475  -0.062074  9e-06  3.9905  0.0
C  C65  1  0.40942243  0.67902102  0.67529499  1  -0.09786  6e-05  3.71929  0.0  -0.120165  1.8e-05  3.973692  0.0  -0.123273  3e-06  3.995256  0.0  -0.091255  -0.118389  2.4e-05  3.960101  0.0
C  C66  1  0.59057121  0.32096975  0.32470408  1  -0.09781  -1.7e-05  3.719394  0.0  -0.120114  2e-05  3.973813  0.0  -0.12322  2e-06  3.995369  0.0  -0.091171  -0.118339  2.4e-05  3.960219  0.0
C  C67  1  0.54502148  0.41180697  0.41089335  1  0.005818  -6.7e-05  3.784881  0.0  0.015534  -6e-05  4.018009  0.0  0.014977  -3.2e-05  4.041794  0.0  -0.002708  0.015833  -0.000106  4.002295  0.0
C  C68  1  0.45496730  0.58818182  0.58910679  1  0.005727  -0.000149  3.785009  0.0  0.015441  -5.9e-05  4.018107  0.0  0.014885  -3.1e-05  4.041887  0.0  -0.002663  0.01574  -0.000106  4.002396  0.0
N  N69  1  0.77102227  0.84582097  0.05091817  1  -0.09612  -0.001748  3.651041  -0.001  -0.007104  -0.001211  3.863352  -0.001  -0.021351  -0.000859  3.888697  -0.001  -0.233925  0.002237  -0.001487  3.846168  -0.001
N  N70  1  0.22898498  0.15417969  0.94908122  1  -0.096158  -0.001759  3.650936  -0.001  -0.007098  -0.001212  3.863217  -0.001  -0.021341  -0.000859  3.888549  -0.001  -0.233899  0.002243  -0.001487  3.846034  -0.001
N  N71  1  0.92730216  0.67411065  0.04530225  1  -0.281615  -0.011684  3.348926  -0.007  -0.242104  -0.007803  3.651896  -0.006  -0.267932  -0.008295  3.668658  -0.007  -0.354611  -0.225869  -0.006285  3.641147  -0.005
N  N72  1  0.07269906  0.32588905  0.95469474  1  -0.281522  -0.011688  3.348796  -0.007  -0.24203  -0.007803  3.65179  -0.006  -0.267857  -0.008295  3.668554  -0.007  -0.354565  -0.225776  -0.006285  3.641022  -0.005
N  N73  1  0.19359000  0.53171638  0.10890626  1  -0.29151  -0.013298  3.400582  -0.009  -0.245897  -0.008946  3.698878  -0.007  -0.272137  -0.009118  3.715996  -0.007  -0.361661  -0.229102  -0.007933  3.687386  -0.006
N  N74  1  0.80640506  0.46827937  0.89109070  1  -0.291538  -0.013272  3.400728  -0.009  -0.245948  -0.008946  3.699033  -0.007  -0.272195  -0.009117  3.716168  -0.007  -0.361689  -0.229162  -0.007933  3.687551  -0.006
N  N75  1  0.36960646  0.52563580  0.26698602  1  -0.094521  -0.001139  3.635618  -0.001  -0.005375  -0.000989  3.851671  -0.001  -0.019917  -0.000715  3.877088  0.0  -0.232714  0.004497  -0.001159  3.834202  -0.001
N  N76  1  0.63038637  0.47436193  0.73301677  1  -0.094466  -0.001142  3.635469  -0.001  -0.005317  -0.000989  3.851521  -0.001  -0.019862  -0.000715  3.876942  0.0  -0.232674  0.004557  -0.001159  3.834052  -0.001
N  N77  1  0.88069165  0.28418994  0.15110816  1  0.713427  0.004685  4.108619  0.008  0.731721  0.006264  4.426586  0.01  0.760705  0.004045  4.432128  0.007  0.090213  0.71181  0.00875  4.421586  0.013
N  N78  1  0.11931066  0.71580777  0.84888969  1  0.713305  0.00469  4.10869  0.008  0.731613  0.006264  4.426644  0.01  0.760595  0.004044  4.432189  0.007  0.090157  0.711703  0.008749  4.421644  0.013
O  O79  1  0.87772074  0.41123662  0.14300364  1  -0.506152  0.008504  1.794858  0.013  -0.497756  0.006514  2.038003  0.009  -0.516247  0.00381  2.028367  0.006  -0.211092  -0.483997  0.010504  2.043943  0.014
O  O80  1  0.12228149  0.58876010  0.85699074  1  -0.506142  0.008504  1.794793  0.013  -0.497768  0.006514  2.037938  0.009  -0.516263  0.003811  2.02831  0.006  -0.211081  -0.484011  0.010505  2.043876  0.014
O  O81  1  0.99899413  0.23468027  0.21069800  1  -0.489184  0.005492  1.710013  0.01  -0.476848  0.006122  1.922627  0.01  -0.490453  0.00445  1.915596  0.008  -0.204703  -0.466617  0.007992  1.927314  0.013
O  O82  1  0.00100706  0.76531843  0.78930149  1  -0.489097  0.005487  1.709995  0.01  -0.476771  0.006121  1.922597  0.01  -0.490383  0.004449  1.915582  0.008  -0.204673  -0.466536  0.007991  1.927275  0.013
O  O83  1  0.76513028  0.21097023  0.09998677  1  -0.47794  0.00732  1.754024  0.013  -0.46699  0.007747  1.981427  0.013  -0.481305  0.005847  1.978311  0.01  -0.190472  -0.456111  0.009835  1.983136  0.016
O  O84  1  0.23486975  0.78902948  0.90001094  1  -0.477887  0.007319  1.754101  0.013  -0.46695  0.007746  1.981516  0.013  -0.481262  0.005846  1.978403  0.01  -0.190464  -0.456072  0.009834  1.983225  0.016
