# generated using pymatgen
data_Cd2PH20C21NO12
_symmetry_space_group_name_H-M   'P 1'
_cell_length_a   7.02652165
_cell_length_b   13.63504130
_cell_length_c   14.44526253
_cell_angle_alpha   117.36375796
_cell_angle_beta   97.24082605
_cell_angle_gamma   97.85286927
_symmetry_Int_Tables_number   1
_chemical_formula_structural   Cd2PH20C21NO12
_chemical_formula_sum   'Cd4 P2 H40 C42 N2 O24'
_cell_volume   1189.19460157
_cell_formula_units_Z   2
loop_
 _symmetry_equiv_pos_site_id
 _symmetry_equiv_pos_as_xyz
  1  'x, y, z'
loop_
 _atom_site_type_symbol
 _atom_site_label
 _atom_site_symmetry_multiplicity
 _atom_site_fract_x
 _atom_site_fract_y
 _atom_site_fract_z
 _atom_site_occupancy
 _atom_site_hle17_bader_spin_density
 _atom_site_hle17_ddec_charge
 _atom_site_hle17_ddec_spin_density
 _atom_site_hle17_ddec_sum_bond_order
 _atom_site_hle17_magmom
 _atom_site_hse06_10hf_bader_spin_density
 _atom_site_hse06_10hf_ddec_charge
 _atom_site_hse06_10hf_ddec_spin_density
 _atom_site_hse06_10hf_ddec_sum_bond_order
 _atom_site_hse06_10hf_magmom
 _atom_site_hse06_bader_spin_density
 _atom_site_hse06_ddec_charge
 _atom_site_hse06_ddec_spin_density
 _atom_site_hse06_ddec_sum_bond_order
 _atom_site_hse06_magmom
 _atom_site_pbe_bader_spin_density
 _atom_site_pbe_cm5_charge
 _atom_site_pbe_ddec_charge
 _atom_site_pbe_ddec_spin_density
 _atom_site_pbe_ddec_sum_bond_order
 _atom_site_pbe_magmom
Cd  Cd0  1  0.64811444  0.41057573  0.01850827  1  0  1.275196  0  1.608897  0  0  1.107446  0  2.042021  0  0  1.165324  0  1.983408  0  0  0.78634  1.065796  0  2.082366  0
Cd  Cd1  1  0.35188543  0.58942229  0.98149323  1  0  1.275194  0  1.608873  0  0  1.107445  0  2.04203  0  0  1.165323  0  1.983418  0  0  0.786517  1.066015  0  2.082327  0
Cd  Cd2  1  0.09904021  0.60228644  0.21317859  1  0  1.333486  0  1.584328  0  0  1.168762  0  2.03511  0  0  1.223265  0  1.973872  0  0  0.80712  1.129028  0  2.077721  0
Cd  Cd3  1  0.90095604  0.39771330  0.78682205  1  0  1.333488  0  1.584293  0  0  1.168763  0  2.035067  0  0  1.223265  0  1.97383  0  0  0.807289  1.129266  0  2.077634  0
P  P4  1  0.12220580  0.35756924  0.98256403  1  0  1.507318  0  4.854567  0  0  1.34248  0  5.357096  0  0  1.394408  0  5.319909  0  0  0.327222  1.306102  0  5.382075  0
P  P5  1  0.87779231  0.64242794  0.01743561  1  0  1.507454  0  4.854327  0  0  1.342631  0  5.356828  0  0  1.394558  0  5.319637  0  0  0.327317  1.306295  0  5.381839  0
H  H6  1  0.01472540  0.29910926  0.13866962  1  0  0.298517  0  0.887796  0  0  0.27863  0  0.951503  0  0  0.287496  0  0.944897  0  0  0.314256  0.272345  0  0.956215  0
H  H7  1  0.98527305  0.70088878  0.86133042  1  0  0.298556  0  0.887756  0  0  0.278637  0  0.951531  0  0  0.287505  0  0.944921  0  0  0.314263  0.272361  0  0.95623  0
H  H8  1  0.32062835  0.29864190  0.08775222  1  0  0.156038  0  0.966048  0  0  0.16321  0  1.027616  0  0  0.166872  0  1.025884  0  0  0.124786  0.160472  0  1.029004  0
H  H9  1  0.67937186  0.70135699  0.91224760  1  0  0.156054  0  0.966004  0  0  0.163206  0  1.027603  0  0  0.166869  0  1.025868  0  0  0.124874  0.160524  0  1.029011  0
H  H10  1  0.21141499  0.18083054  0.95949016  1  0  0.146212  0  0.920109  0  0  0.155892  0  0.979788  0  0  0.159178  0  0.978015  0  0  0.121641  0.153474  0  0.98122  0
H  H11  1  0.78858489  0.81916748  0.04051065  1  0  0.146147  0  0.920194  0  0  0.155823  0  0.979891  0  0  0.159106  0  0.978118  0  0  0.121639  0.153403  0  0.981316  0
H  H12  1  0.87805536  0.08359122  0.92796028  1  0  0.078984  0  0.914142  0  0  0.098084  0  0.969631  0  0  0.098587  0  0.96991  0  0  0.114527  0.097687  0  0.969591  0
H  H13  1  0.12194848  0.91640593  0.07204246  1  0  0.079032  0  0.914109  0  0  0.098105  0  0.969635  0  0  0.09861  0  0.96991  0  0  0.114524  0.09767  0  0.969625  0
H  H14  1  0.78715736  0.20834863  0.96201320  1  0  0.098841  0  0.973613  0  0  0.109602  0  1.041722  0  0  0.111537  0  1.040013  0  0  0.11759  0.10818  0  1.043015  0
H  H15  1  0.21284119  0.79164602  0.03798535  1  0  0.098814  0  0.973603  0  0  0.109638  0  1.04165  0  0  0.111576  0  1.039936  0  0  0.117556  0.108148  0  1.043012  0
H  H16  1  0.22668040  0.21291111  0.19048960  1  0  0.10276  0  0.908895  0  0  0.119575  0  0.96357  0  0  0.120703  0  0.963328  0  0  0.123717  0.118613  0  0.963935  0
H  H17  1  0.77332047  0.78708944  0.80951377  1  0  0.102812  0  0.908926  0  0  0.119593  0  0.963599  0  0  0.120721  0  0.963357  0  0  0.123709  0.118601  0  0.963983  0
H  H18  1  0.14625698  0.08439216  0.06463720  1  0  0.082168  0  0.958828  0  0  0.091945  0  1.028605  0  0  0.09388  0  1.027494  0  0  0.109756  0.090436  0  1.029512  0
H  H19  1  0.85374819  0.91560838  0.93536574  1  0  0.082193  0  0.958825  0  0  0.09194  0  1.028607  0  0  0.093876  0  1.027495  0  0  0.109771  0.090445  0  1.029523  0
H  H20  1  0.90062234  0.19316023  0.23342180  1  0  0.069858  0  0.929538  0  0  0.081029  0  0.996505  0  0  0.082397  0  0.994892  0  0  0.106842  0.079874  0  0.997836  0
H  H21  1  0.09937787  0.80683864  0.76657940  1  0  0.069927  0  0.92944  0  0  0.081046  0  0.996459  0  0  0.082415  0  0.994844  0  0  0.106869  0.079908  0  0.997797  0
H  H22  1  0.98292651  0.06507058  0.20255479  1  0  0.077579  0  0.90569  0  0  0.095168  0  0.960342  0  0  0.095232  0  0.960167  0  0  0.113927  0.094978  0  0.960679  0
H  H23  1  0.01707799  0.93492827  0.79744805  1  0  0.077524  0  0.905766  0  0  0.095141  0  0.960364  0  0  0.095204  0  0.960189  0  0  0.113893  0.094914  0  0.960717  0
H  H24  1  0.57236543  0.30805092  0.29006973  1  0  0.08337  0  0.958525  0  0  0.092821  0  1.02342  0  0  0.096465  0  1.020727  0  0  0.095671  0.09016  0  1.025472  0
H  H25  1  0.42763291  0.69195049  0.70993316  1  0  0.08331  0  0.958573  0  0  0.092804  0  1.02343  0  0  0.096448  0  1.020736  0  0  0.095711  0.090171  0  1.025469  0
H  H26  1  0.62060744  0.33246233  0.47580508  1  0  0.099521  0  0.943767  0  0  0.110599  0  1.00131  0  0  0.114068  0  0.999384  0  0  0.103044  0.108143  0  1.002706  0
H  H27  1  0.37939586  0.66754075  0.52419955  1  0  0.099486  0  0.943772  0  0  0.110536  0  1.001342  0  0  0.114  0  0.999423  0  0  0.103095  0.108149  0  1.002746  0
H  H28  1  0.85567768  0.65713241  0.41782985  1  0  0.105925  0  0.953659  0  0  0.114667  0  1.017644  0  0  0.118011  0  1.015713  0  0  0.104553  0.112248  0  1.019142  0
H  H29  1  0.14431417  0.34287073  0.58217202  1  0  0.105825  0  0.953699  0  0  0.11458  0  1.017684  0  0  0.11792  0  1.015761  0  0  0.104504  0.112174  0  1.019134  0
H  H30  1  0.90509726  0.68028862  0.60253658  1  0  0.082118  0  0.968548  0  0  0.092353  0  1.031982  0  0  0.09562  0  1.030012  0  0  0.095869  0.090027  0  1.03345  0
H  H31  1  0.09489492  0.31971537  0.39746500  1  0  0.082122  0  0.968571  0  0  0.092362  0  1.031995  0  0  0.09563  0  1.030028  0  0  0.09585  0.090036  0  1.033452  0
H  H32  1  0.43819204  0.25511362  0.62822021  1  0  0.119998  0  0.935324  0  0  0.127802  0  0.997356  0  0  0.131632  0  0.994971  0  0  0.111853  0.125046  0  0.999198  0
H  H33  1  0.56180796  0.74489204  0.37178259  1  0  0.119994  0  0.935263  0  0  0.127785  0  0.997319  0  0  0.131611  0  0.994933  0  0  0.111835  0.124986  0  0.99919  0
H  H34  1  0.37395089  0.01726526  0.74587993  1  0  0.100004  0  0.946665  0  0  0.108602  0  1.007714  0  0  0.112702  0  1.004791  0  0  0.10168  0.105659  0  1.009856  0
H  H35  1  0.62605520  0.98273028  0.25411255  1  0  0.100004  0  0.946591  0  0  0.108611  0  1.007648  0  0  0.112711  0  1.004724  0  0  0.101672  0.10567  0  1.009788  0
H  H36  1  0.26996314  0.10040571  0.44421590  1  0  0.098373  0  0.936405  0  0  0.11075  0  0.992243  0  0  0.114135  0  0.990466  0  0  0.105869  0.108315  0  0.993633  0
H  H37  1  0.73003788  0.89960252  0.55578463  1  0  0.098406  0  0.936275  0  0  0.110774  0  0.992103  0  0  0.114167  0  0.990327  0  0  0.105838  0.108322  0  0.9935  0
H  H38  1  0.55822981  0.06638831  0.98166355  1  0  0.088452  0  0.935833  0  0  0.100343  0  0.997358  0  0  0.101334  0  0.996433  0  0  0.114179  0.099558  0  0.998147  0
H  H39  1  0.44177050  0.93360716  0.01833685  1  0  0.088489  0  0.935885  0  0  0.100358  0  0.997413  0  0  0.101349  0  0.996489  0  0  0.114097  0.099479  0  0.998225  0
H  H40  1  0.65322510  0.19342756  0.10602548  1  0  0.080105  0  0.945774  0  0  0.090749  0  1.009662  0  0  0.09233  0  1.008427  0  0  0.10553  0.089497  0  1.010723  0
H  H41  1  0.34677445  0.80656963  0.89397425  1  0  0.080139  0  0.945679  0  0  0.090771  0  1.009564  0  0  0.092353  0  1.008327  0  0  0.105476  0.089458  0  1.010653  0
H  H42  1  0.21408124  0.86063351  0.55988087  1  0  0.103515  0  0.940463  0  0  0.115027  0  0.996626  0  0  0.11861  0  0.994476  0  0  0.107283  0.112437  0  0.99827  0
H  H43  1  0.78592763  0.13936544  0.44010983  1  0  0.103537  0  0.940424  0  0  0.115045  0  0.996591  0  0  0.118629  0  0.994438  0  0  0.10725  0.112433  0  0.998222  0
H  H44  1  0.05233128  0.82642395  0.23469585  1  0  0.424697  0  0.862256  0  0  0.393748  0  0.93839  0  0  0.406029  0  0.921636  0  0  0.304548  0.385128  0  0.947653  0
H  H45  1  0.94767206  0.17357921  0.76530051  1  0  0.424675  0  0.862245  0  0  0.393705  0  0.938408  0  0  0.405985  0  0.921682  0  0  0.304577  0.385093  0  0.947657  0
C  C46  1  0.18442815  0.25623497  0.02579998  1  0  -0.350567  0  3.503958  0  0  -0.384453  0  3.748161  0  0  -0.390843  0  3.754114  0  0  -0.076376  -0.379986  0  3.744314  0
C  C47  1  0.81557140  0.74376222  0.97419974  1  0  -0.350526  0  3.504031  0  0  -0.384377  0  3.748212  0  0  -0.390772  0  3.754188  0  0  -0.076399  -0.379874  0  3.744383  0
C  C48  1  0.84240645  0.15617329  0.99371736  1  0  -0.038144  0  3.554037  0  0  -0.101803  0  3.80971  0  0  -0.099053  0  3.819638  0  0  -0.066035  -0.103588  0  3.8032  0
C  C49  1  0.15759772  0.84382471  0.00628509  1  0  -0.038156  0  3.554053  0  0  -0.101867  0  3.809734  0  0  -0.099115  0  3.819659  0  0  -0.066145  -0.103713  0  3.803243  0
C  C50  1  0.10004907  0.15611788  0.12567942  1  0  -0.044846  0  3.535324  0  0  -0.106402  0  3.795259  0  0  -0.103581  0  3.804142  0  0  -0.065645  -0.108193  0  3.789266  0
C  C51  1  0.89995291  0.84388183  0.87432226  1  0  -0.044984  0  3.535513  0  0  -0.10644  0  3.795302  0  0  -0.103618  0  3.804181  0  0  -0.065666  -0.108209  0  3.789308  0
C  C52  1  0.93576533  0.11815542  0.16939530  1  0  0.053997  0  3.641275  0  0  -0.004684  0  3.919035  0  0  0.001877  0  3.924306  0  0  -0.068904  -0.009066  0  3.91536  0
C  C53  1  0.06423774  0.88184344  0.83060677  1  0  0.054031  0  3.64136  0  0  -0.00464  0  3.919009  0  0  0.001922  0  3.924279  0  0  -0.068928  -0.009025  0  3.915347  0
C  C54  1  0.71084981  0.48110808  0.34333035  1  0  -0.047205  0  3.741698  0  0  -0.025226  0  3.975941  0  0  -0.031965  0  3.998014  0  0  -0.014879  -0.021088  0  3.961672  0
C  C55  1  0.28914566  0.51889334  0.65667237  1  0  -0.04715  0  3.74165  0  0  -0.025204  0  3.975929  0  0  -0.031942  0  3.997999  0  0  -0.014794  -0.020997  0  3.961512  0
C  C56  1  0.69665246  0.46426874  0.23316475  1  0  0.66595  0  3.87664  0  0  0.610225  0  4.169448  0  0  0.646442  0  4.161398  0  0  0.206558  0.585617  0  4.174048  0
C  C57  1  0.30334267  0.53573184  0.76683758  1  0  0.665849  0  3.876665  0  0  0.6102  0  4.169368  0  0  0.646417  0  4.161316  0  0  0.206455  0.585544  0  4.173891  0
C  C58  1  0.64271180  0.38973930  0.35945602  1  0  -0.071028  0  3.745551  0  0  -0.097434  0  4.003051  0  0  -0.098419  0  4.023332  0  0  -0.086373  -0.096618  0  3.989279  0
C  C59  1  0.35728797  0.61026210  0.64054765  1  0  -0.070959  0  3.745613  0  0  -0.097406  0  4.003129  0  0  -0.09839  0  4.023412  0  0  -0.086356  -0.096576  0  3.989327  0
C  C60  1  0.66958143  0.40286999  0.46178159  1  0  -0.07328  0  3.745166  0  0  -0.094601  0  3.992947  0  0  -0.096216  0  4.014831  0  0  -0.083826  -0.093377  0  3.977938  0
C  C61  1  0.33041470  0.59713312  0.53822192  1  0  -0.073314  0  3.745117  0  0  -0.094602  0  3.992901  0  0  -0.09622  0  4.014788  0  0  -0.083809  -0.093372  0  3.977968  0
C  C62  1  0.80184156  0.58694228  0.43129221  1  0  -0.067239  0  3.708682  0  0  -0.091028  0  3.956953  0  0  -0.092028  0  3.977347  0  0  -0.081444  -0.09021  0  3.943124  0
C  C63  1  0.19815028  0.41306085  0.56871035  1  0  -0.067162  0  3.708607  0  0  -0.090968  0  3.956918  0  0  -0.091968  0  3.977317  0  0  -0.081493  -0.09016  0  3.942983  0
C  C64  1  0.82902719  0.59963883  0.53354385  1  0  -0.071438  0  3.752634  0  0  -0.09203  0  3.998301  0  0  -0.093819  0  4.020276  0  0  -0.084014  -0.090621  0  3.983249  0
C  C65  1  0.17096750  0.40036428  0.46646026  1  0  -0.071545  0  3.752656  0  0  -0.092141  0  3.998323  0  0  -0.093937  0  4.020304  0  0  -0.083934  -0.090685  0  3.983244  0
C  C66  1  0.76562261  0.50782078  0.54966244  1  0  -0.049958  0  3.739705  0  0  -0.026147  0  3.966336  0  0  -0.03289  0  3.990318  0  0  -0.011979  -0.021754  0  3.950279  0
C  C67  1  0.23437815  0.49218317  0.45034104  1  0  -0.049672  0  3.739543  0  0  -0.025901  0  3.966199  0  0  -0.032597  0  3.990089  0  0  -0.01187  -0.021496  0  3.950219  0
C  C68  1  0.81231744  0.51981920  0.65926963  1  0  0.654613  0  3.924243  0  0  0.603096  0  4.223863  0  0  0.637475  0  4.217176  0  0  0.206885  0.579764  0  4.227421  0
C  C69  1  0.18768199  0.48018136  0.34073364  1  0  0.654529  0  3.92448  0  0  0.603062  0  4.224015  0  0  0.637436  0  4.217343  0  0  0.206888  0.579754  0  4.227602  0
C  C70  1  0.51538496  0.23601628  0.80762229  1  0  0.657038  0  3.881786  0  0  0.603737  0  4.173682  0  0  0.639619  0  4.166116  0  0  0.204823  0.579329  0  4.177781  0
C  C71  1  0.48461603  0.76398090  0.19237684  1  0  0.657268  0  3.881763  0  0  0.603974  0  4.173649  0  0  0.639859  0  4.166076  0  0  0.205053  0.579616  0  4.177836  0
C  C72  1  0.41653736  0.14461732  0.69728575  1  0  -0.040638  0  3.718133  0  0  -0.021203  0  3.95522  0  0  -0.027275  0  3.976185  0  0  -0.010415  -0.017455  0  3.941442  0
C  C73  1  0.58346178  0.85538245  0.30271094  1  0  -0.040638  0  3.718402  0  0  -0.021221  0  3.955514  0  0  -0.027293  0  3.976479  0  0  -0.010417  -0.017503  0  3.941864  0
C  C74  1  0.38708312  0.16871440  0.61271687  1  0  -0.059117  0  3.676081  0  0  -0.083367  0  3.929222  0  0  -0.084148  0  3.94849  0  0  -0.075171  -0.08271  0  3.916156  0
C  C75  1  0.61291799  0.83129043  0.38728424  1  0  -0.059098  0  3.676129  0  0  -0.083337  0  3.929251  0  0  -0.084114  0  3.94852  0  0  -0.075217  -0.082705  0  3.916276  0
C  C76  1  0.35134798  0.03380616  0.67876302  1  0  -0.073226  0  3.738759  0  0  -0.09748  0  3.992355  0  0  -0.098349  0  4.011709  0  0  -0.084706  -0.096774  0  3.979143  0
C  C77  1  0.64865557  0.96619022  0.32123037  1  0  -0.073322  0  3.738784  0  0  -0.097597  0  3.992389  0  0  -0.098467  0  4.011742  0  0  -0.084743  -0.096904  0  3.979201  0
C  C78  1  0.29365036  0.08250774  0.51038720  1  0  -0.060708  0  3.71696  0  0  -0.086635  0  3.970084  0  0  -0.087592  0  3.991418  0  0  -0.078604  -0.085852  0  3.955661  0
C  C79  1  0.70634681  0.91749798  0.48961059  1  0  -0.060711  0  3.717014  0  0  -0.086589  0  3.970073  0  0  -0.087561  0  3.991425  0  0  -0.078583  -0.085818  0  3.955635  0
C  C80  1  0.69131435  0.11870874  0.04341656  1  0  0.044613  0  3.617024  0  0  -0.007752  0  3.88348  0  0  -0.001892  0  3.888896  0  0  -0.074478  -0.011685  0  3.87985  0
C  C81  1  0.30868630  0.88128758  0.95658424  1  0  0.04454  0  3.617073  0  0  -0.007791  0  3.883476  0  0  -0.001932  0  3.888891  0  0  -0.074562  -0.011778  0  3.879864  0
C  C82  1  0.23248053  0.97145918  0.49160447  1  0  -0.07754  0  3.77704  0  0  -0.054897  0  4.011548  0  0  -0.06346  0  4.037556  0  0  -0.014914  -0.049262  0  3.994178  0
C  C83  1  0.76752172  0.02854485  0.50839082  1  0  -0.077943  0  3.777375  0  0  -0.055339  0  4.011961  0  0  -0.063906  0  4.037977  0  0  -0.015063  -0.049668  0  3.994483  0
C  C84  1  0.14365888  0.87474367  0.38334825  1  0  0.662382  0  3.803071  0  0  0.610187  0  4.102125  0  0  0.643915  0  4.095272  0  0  0.236341  0.587276  0  4.106191  0
C  C85  1  0.85634867  0.12526289  0.61664779  1  0  0.662659  0  3.802914  0  0  0.610438  0  4.101986  0  0  0.644168  0  4.095127  0  0  0.236418  0.587508  0  4.106034  0
C  C86  1  0.26185590  0.94770391  0.57658542  1  0  -0.067211  0  3.739629  0  0  -0.091566  0  3.989804  0  0  -0.09268  0  4.01084  0  0  -0.081149  -0.090676  0  3.975559  0
C  C87  1  0.73815187  0.05229588  0.42340627  1  0  -0.066922  0  3.739494  0  0  -0.09125  0  3.989614  0  0  -0.09236  0  4.010646  0  0  -0.081016  -0.090388  0  3.975307  0
N  N88  1  0.03052592  0.22220545  0.07388850  1  0  -0.061252  0  3.388157  0  0  0.021181  0  3.599508  0  0  0.008998  0  3.618863  0  0  -0.348884  0.029421  0  3.586354  0
N  N89  1  0.96947572  0.77779341  0.92611279  1  0  -0.061311  0  3.388181  0  0  0.021112  0  3.599539  0  0  0.008926  0  3.618894  0  0  -0.348863  0.02937  0  3.586351  0
O  O90  1  0.99330173  0.42554935  0.05710030  1  0  -0.92862  0  2.068  0  0  -0.831787  0  2.366117  0  0  -0.862952  0  2.340394  0  0  -0.388065  -0.809522  0  2.383161  0
O  O91  1  0.00669816  0.57444869  0.94289844  1  0  -0.928635  0  2.067926  0  0  -0.831835  0  2.366112  0  0  -0.862999  0  2.340389  0  0  -0.388154  -0.809697  0  2.383214  0
O  O92  1  0.00758024  0.29222763  0.86588074  1  0  -0.88614  0  2.029048  0  0  -0.792164  0  2.290278  0  0  -0.822366  0  2.270103  0  0  -0.377037  -0.77067  0  2.302971  0
O  O93  1  0.99242141  0.70777125  0.13411848  1  0  -0.886195  0  2.028996  0  0  -0.792229  0  2.290211  0  0  -0.822444  0  2.270052  0  0  -0.377047  -0.77073  0  2.30293  0
O  O94  1  0.32155553  0.43131179  0.99894004  1  0  -0.88018  0  2.086535  0  0  -0.77753  0  2.374346  0  0  -0.810298  0  2.351986  0  0  -0.384507  -0.754508  0  2.389193  0
O  O95  1  0.67844401  0.56868538  0.00106038  1  0  -0.880223  0  2.086544  0  0  -0.777568  0  2.374347  0  0  -0.810335  0  2.351987  0  0  -0.384408  -0.754431  0  2.389152  0
O  O96  1  0.60724895  0.33150806  0.82219614  1  0  -0.676688  0  2.059649  0  0  -0.60522  0  2.325434  0  0  -0.63688  0  2.312418  0  0  -0.327978  -0.582916  0  2.333369  0
O  O97  1  0.39274982  0.66849080  0.17780635  1  0  -0.676748  0  2.059661  0  0  -0.6053  0  2.325479  0  0  -0.636956  0  2.312448  0  0  -0.327811  -0.58274  0  2.333343  0
O  O98  1  0.60897386  0.36727456  0.15431206  1  0  -0.65174  0  2.009734  0  0  -0.581138  0  2.252523  0  0  -0.611013  0  2.242333  0  0  -0.321471  -0.56002  0  2.258688  0
O  O99  1  0.39102777  0.63272429  0.84569199  1  0  -0.65169  0  2.009726  0  0  -0.581127  0  2.252508  0  0  -0.611  0  2.242315  0  0  -0.321489  -0.560091  0  2.258682  0
O  O100  1  0.77162809  0.54555427  0.21845441  1  0  -0.672391  0  2.025033  0  0  -0.600955  0  2.282689  0  0  -0.631338  0  2.26986  0  0  -0.330099  -0.579268  0  2.290628  0
O  O101  1  0.22836640  0.45444462  0.78154576  1  0  -0.672358  0  2.025021  0  0  -0.60093  0  2.282626  0  0  -0.631313  0  2.269796  0  0  -0.330234  -0.579403  0  2.290588  0
O  O102  1  0.76282189  0.05141769  0.08728079  1  0  -0.314891  0  2.198608  0  0  -0.255589  0  2.453119  0  0  -0.270192  0  2.452183  0  0  -0.238286  -0.24512  0  2.453332  0
O  O103  1  0.23718118  0.94858116  0.91272196  1  0  -0.314915  0  2.198614  0  0  -0.255585  0  2.45307  0  0  -0.270188  0  2.452135  0  0  -0.238299  -0.245173  0  2.4533  0
O  O104  1  0.92229181  0.61154137  0.73315314  1  0  -0.646776  0  2.023535  0  0  -0.600305  0  2.2687  0  0  -0.62587  0  2.261684  0  0  -0.326535  -0.58224  0  2.27271  0
O  O105  1  0.07771269  0.38845748  0.26684970  1  0  -0.646882  0  2.023631  0  0  -0.60042  0  2.268757  0  0  -0.625984  0  2.261735  0  0  -0.326617  -0.582334  0  2.272732  0
O  O106  1  0.50204616  0.21738812  0.88560206  1  0  -0.637221  0  1.94969  0  0  -0.57129  0  2.184155  0  0  -0.600362  0  2.174822  0  0  -0.319484  -0.550921  0  2.18978  0
O  O107  1  0.49794876  0.78260824  0.11439564  1  0  -0.637333  0  1.949659  0  0  -0.571409  0  2.184139  0  0  -0.600481  0  2.174804  0  0  -0.31954  -0.550962  0  2.189764  0
O  O108  1  0.74152264  0.43376498  0.66838538  1  0  -0.6597  0  2.015195  0  0  -0.593843  0  2.27575  0  0  -0.624067  0  2.2636  0  0  -0.332651  -0.572515  0  2.283289  0
O  O109  1  0.25847217  0.56623475  0.33161656  1  0  -0.659676  0  2.015289  0  0  -0.593822  0  2.275805  0  0  -0.624054  0  2.263661  0  0  -0.332516  -0.572352  0  2.283281  0
O  O110  1  0.10852723  0.77618786  0.36880647  1  0  -0.590886  0  2.025675  0  0  -0.537077  0  2.276302  0  0  -0.562015  0  2.265636  0  0  -0.288413  -0.519745  0  2.28316  0
O  O111  1  0.89146896  0.22381534  0.63118808  1  0  -0.591003  0  2.025716  0  0  -0.537156  0  2.276331  0  0  -0.562105  0  2.265691  0  0  -0.288459  -0.519834  0  2.283171  0
O  O112  1  0.10915316  0.90040088  0.30541013  1  0  -0.552947  0  2.055492  0  0  -0.50403  0  2.27039  0  0  -0.526507  0  2.254856  0  0  -0.330226  -0.488397  0  2.278821  0
O  O113  1  0.89085019  0.09960230  0.69458485  1  0  -0.553037  0  2.05536  0  0  -0.504108  0  2.2703  0  0  -0.526587  0  2.25479  0  0  -0.330374  -0.488541  0  2.278708  0
