# generated using pymatgen
data_CuH16C24(NO2)2
_symmetry_space_group_name_H-M   'P 1'
_cell_length_a   9.12731696
_cell_length_b   10.41530159
_cell_length_c   10.43356341
_cell_angle_alpha   90.00015054
_cell_angle_beta   101.17408441
_cell_angle_gamma   90.00001354
_symmetry_Int_Tables_number   1
_chemical_formula_structural   CuH16C24(NO2)2
_chemical_formula_sum   'Cu2 H32 C48 N4 O8'
_cell_volume   973.05109452
_cell_formula_units_Z   2
loop_
 _symmetry_equiv_pos_site_id
 _symmetry_equiv_pos_as_xyz
  1  'x, y, z'
loop_
 _atom_site_type_symbol
 _atom_site_label
 _atom_site_symmetry_multiplicity
 _atom_site_fract_x
 _atom_site_fract_y
 _atom_site_fract_z
 _atom_site_occupancy
 _atom_site_pbe_cm5_charge
 _atom_site_pbe_ddec_charge
 _atom_site_pbe_ddec_spin_density
 _atom_site_pbe_ddec_sum_bond_order
 _atom_site_pbe_magmom
Cu  Cu0  1  0.49999938  0.00000101  0.00000186  1  0.734021  0.734077  -0.715698  2.195714  -0.55
Cu  Cu1  1  0.49999793  0.49999873  0.49999941  1  0.734036  0.73414  -0.715692  2.195701  -0.55
H  H2  1  0.04958884  0.16299039  0.99796160  1  0.100323  0.100925  -0.000424  1.059802  0.0
H  H3  1  0.95041313  0.66298686  0.50203896  1  0.100305  0.100864  -0.000424  1.059811  0.0
H  H4  1  0.95041373  0.83701380  0.00204022  1  0.100311  0.100914  -0.000424  1.059817  0.0
H  H5  1  0.04958609  0.33700676  0.49796135  1  0.100317  0.100931  -0.000424  1.059729  0.0
H  H6  1  0.82207813  0.48244325  0.78550144  1  0.101061  0.10947  5.4e-05  1.038709  0.0
H  H7  1  0.17792071  0.98244397  0.71449464  1  0.101072  0.109517  5.4e-05  1.038704  0.0
H  H8  1  0.17791881  0.51755517  0.21449468  1  0.101083  0.109525  5.4e-05  1.038641  0.0
H  H9  1  0.82207622  0.01755445  0.28550051  1  0.101064  0.109493  5.4e-05  1.038643  0.0
H  H10  1  0.02459127  0.49945546  0.65795121  1  0.09529  0.089627  -0.000103  1.041676  0.0
H  H11  1  0.97541093  0.99945766  0.84204546  1  0.095257  0.089591  -0.000103  1.041723  0.0
H  H12  1  0.97540791  0.50054488  0.34204622  1  0.095288  0.089623  -0.000103  1.041704  0.0
H  H13  1  0.02458599  0.00054365  0.15794970  1  0.095267  0.089611  -0.000103  1.041705  0.0
H  H14  1  0.23536080  0.34212164  0.69438241  1  0.10291  0.110737  -0.000127  1.033755  0.0
H  H15  1  0.76464241  0.84212177  0.80561689  1  0.102897  0.110719  -0.000127  1.033763  0.0
H  H16  1  0.76464065  0.65788255  0.30561923  1  0.102916  0.110757  -0.000127  1.033731  0.0
H  H17  1  0.23535791  0.15787570  0.19438265  1  0.102894  0.110693  -0.000127  1.033773  0.0
H  H18  1  0.76684317  0.10083855  0.92821840  1  0.118106  0.094976  -0.00082  1.01623  -0.002
H  H19  1  0.23315761  0.60083697  0.57178085  1  0.118053  0.094893  -0.00082  1.016256  -0.002
H  H20  1  0.23315381  0.89916180  0.07178251  1  0.118088  0.09495  -0.00082  1.016278  -0.002
H  H21  1  0.76684158  0.39916145  0.42821755  1  0.118085  0.094916  -0.00082  1.016253  -0.002
H  H22  1  0.47283370  0.24596625  0.15014603  1  0.118145  0.10442  -0.000861  1.026409  -0.002
H  H23  1  0.52717161  0.74596069  0.34985429  1  0.118155  0.104401  -0.000861  1.026424  -0.002
H  H24  1  0.52716890  0.75403794  0.84985867  1  0.118159  0.104444  -0.00086  1.02645  -0.002
H  H25  1  0.47282983  0.25403774  0.65014543  1  0.118155  0.104405  -0.000861  1.026439  -0.002
H  H26  1  0.57987918  0.46399355  0.14963376  1  0.112476  0.122284  -0.000626  0.990274  -0.001
H  H27  1  0.42012739  0.96398797  0.35036349  1  0.112448  0.122239  -0.000626  0.990278  -0.001
H  H28  1  0.42012672  0.53601063  0.85036572  1  0.112476  0.122279  -0.000626  0.990244  -0.001
H  H29  1  0.57987404  0.03601046  0.64963623  1  0.112486  0.122271  -0.000626  0.990248  -0.001
H  H30  1  0.78551999  0.50424572  0.02413880  1  0.109326  0.111346  -7.1e-05  1.014153  0.0
H  H31  1  0.21448506  0.00424250  0.47585607  1  0.10933  0.111276  -7.1e-05  1.014187  0.0
H  H32  1  0.21448140  0.49575559  0.97585708  1  0.109328  0.111314  -7.1e-05  1.014178  0.0
H  H33  1  0.78551301  0.99575592  0.52414119  1  0.109322  0.111252  -7.1e-05  1.014196  0.0
C  C34  1  0.15637330  0.24412179  0.84994171  1  -0.018298  -0.020892  -0.005552  3.974034  -0.006
C  C35  1  0.84363093  0.74411960  0.65005655  1  -0.018373  -0.021111  -0.005553  3.974129  -0.006
C  C36  1  0.84362927  0.75588335  0.15006011  1  -0.018295  -0.020997  -0.005552  3.973931  -0.006
C  C37  1  0.15637050  0.25587498  0.34994317  1  -0.018391  -0.021121  -0.005552  3.974251  -0.006
C  C38  1  0.04191154  0.23500836  0.92142899  1  -0.086001  -0.152455  -0.000337  3.943165  0.0
C  C39  1  0.95809049  0.73500793  0.57857272  1  -0.086035  -0.152435  -0.000337  3.943363  0.0
C  C40  1  0.95808990  0.76499390  0.07857169  1  -0.08602  -0.152431  -0.000337  3.943334  0.0
C  C41  1  0.04190763  0.26498858  0.42143029  1  -0.086038  -0.152591  -0.000337  3.94347  0.0
C  C42  1  0.91998585  0.31913561  0.89744429  1  -0.008887  0.064257  -0.000602  4.021  -0.001
C  C43  1  0.08001507  0.81913409  0.60255074  1  -0.008817  0.064391  -0.000601  4.02087  -0.001
C  C44  1  0.08001222  0.68086569  0.10255392  1  -0.008841  0.064281  -0.000602  4.021047  -0.001
C  C45  1  0.91998299  0.18086050  0.39744555  1  -0.008831  0.064479  -0.000602  4.021127  -0.001
C  C46  1  0.91620247  0.41613316  0.80353526  1  -0.085229  -0.117989  6e-06  3.935524  0.0
C  C47  1  0.08379967  0.91613380  0.69646215  1  -0.08528  -0.118193  5e-06  3.935535  0.0
C  C48  1  0.08379672  0.58386815  0.19646314  1  -0.085266  -0.118102  5e-06  3.935528  0.0
C  C49  1  0.91619840  0.08386462  0.30353511  1  -0.085226  -0.118086  5e-06  3.935476  0.0
C  C50  1  0.02961389  0.42440061  0.73146541  1  -0.093087  -0.081191  -0.000466  4.025915  -0.001
C  C51  1  0.97038939  0.92439780  0.76853315  1  -0.093053  -0.081067  -0.000466  4.026  -0.001
C  C52  1  0.97038532  0.57560166  0.26853490  1  -0.093105  -0.081156  -0.000466  4.025981  -0.001
C  C53  1  0.02961090  0.07559870  0.23146350  1  -0.093073  -0.081177  -0.000466  4.025932  -0.001
C  C54  1  0.14834815  0.33777906  0.75262366  1  -0.085475  -0.103945  -0.000719  3.960921  -0.001
C  C55  1  0.85165507  0.83778097  0.74737659  1  -0.085415  -0.103862  -0.00072  3.960858  -0.001
C  C56  1  0.85165330  0.66222225  0.24737702  1  -0.085479  -0.103941  -0.000719  3.960793  -0.001
C  C57  1  0.14834638  0.16221938  0.25262505  1  -0.085434  -0.103815  -0.000719  3.960936  -0.001
C  C58  1  0.28763423  0.15484454  0.87605474  1  0.194709  0.550841  0.002334  4.224909  0.004
C  C59  1  0.71236444  0.65484033  0.62395197  1  0.194816  0.551085  0.002334  4.224814  0.004
C  C60  1  0.71236614  0.84516060  0.12395056  1  0.194724  0.550903  0.002334  4.224785  0.004
C  C61  1  0.28763371  0.34515521  0.37605392  1  0.194771  0.551127  0.002334  4.224913  0.004
C  C62  1  0.79601938  0.30478181  0.96883177  1  0.001935  0.038108  -0.003567  3.980574  -0.004
C  C63  1  0.20398491  0.80478012  0.53116761  1  0.001962  0.038073  -0.003567  3.980302  -0.004
C  C64  1  0.20397981  0.69521949  0.03116663  1  0.001975  0.038176  -0.003568  3.980358  -0.004
C  C65  1  0.79601539  0.19521926  0.46883096  1  0.001972  0.038042  -0.003567  3.980346  -0.004
C  C66  1  0.72967284  0.18456638  0.97575538  1  0.048286  0.038419  0.001161  3.905771  0.0
C  C67  1  0.27032911  0.68456373  0.52424235  1  0.048356  0.038561  0.001161  3.905747  0.0
C  C68  1  0.27032748  0.81543492  0.02424511  1  0.048265  0.038377  0.001161  3.905863  0.0
C  C69  1  0.72966895  0.31543374  0.47575394  1  0.048346  0.038587  0.001161  3.905762  0.0
C  C70  1  0.56450781  0.26430843  0.09971707  1  0.046314  0.090255  0.000525  3.900576  0.0
C  C71  1  0.43549526  0.76430203  0.40028102  1  0.046397  0.090388  0.000526  3.900421  0.0
C  C72  1  0.43549473  0.73569671  0.90028187  1  0.04633  0.090244  0.000526  3.900389  0.0
C  C73  1  0.56450393  0.23569544  0.59971738  1  0.046348  0.090332  0.000526  3.90051  0.0
C  C74  1  0.62450474  0.38702020  0.09781656  1  -0.079869  -0.115823  -0.004006  3.96619  -0.005
C  C75  1  0.37550067  0.88701570  0.40218221  1  -0.079934  -0.115923  -0.004006  3.966179  -0.005
C  C76  1  0.37549672  0.61298207  0.90218603  1  -0.079942  -0.115917  -0.004006  3.966239  -0.005
C  C77  1  0.62449853  0.11298272  0.59781618  1  -0.079936  -0.115935  -0.004006  3.966208  -0.005
C  C78  1  0.73874190  0.40852598  0.02918365  1  -0.059668  -0.067489  0.003454  3.909838  0.002
C  C79  1  0.26126689  0.90852452  0.47081669  1  -0.059668  -0.067325  0.003454  3.909633  0.002
C  C80  1  0.26126063  0.59147629  0.97081433  1  -0.059651  -0.067423  0.003454  3.909836  0.002
C  C81  1  0.73873567  0.09147582  0.52918417  1  -0.059647  -0.067277  0.003454  3.90963  0.002
N  N82  1  0.61489140  0.16544612  0.03700021  1  -0.345817  -0.222625  -0.059185  3.638799  -0.076
N  N83  1  0.38511160  0.66544275  0.46299953  1  -0.345869  -0.222743  -0.059184  3.638936  -0.076
N  N84  1  0.38510783  0.83455711  0.96300203  1  -0.345789  -0.22257  -0.059186  3.638638  -0.076
N  N85  1  0.61488871  0.33455567  0.53699905  1  -0.34587  -0.222732  -0.059184  3.638894  -0.076
O  O86  1  0.31012288  0.09615509  0.98828785  1  -0.329294  -0.544191  -0.073004  2.335513  -0.102
O  O87  1  0.68987458  0.59615345  0.51171372  1  -0.329347  -0.544297  -0.073014  2.33537  -0.102
O  O88  1  0.68987524  0.90384718  0.01171420  1  -0.329324  -0.544215  -0.073008  2.335422  -0.102
O  O89  1  0.31012243  0.40384401  0.48829007  1  -0.329288  -0.544264  -0.073006  2.335345  -0.102
O  O90  1  0.36863141  0.13995289  0.79296603  1  -0.324279  -0.566105  0.000786  2.159316  -0.001
O  O91  1  0.63137614  0.63994985  0.70703729  1  -0.324267  -0.566104  0.000788  2.159509  -0.001
O  O92  1  0.63137342  0.86005130  0.20703807  1  -0.324227  -0.566063  0.000787  2.159335  -0.001
O  O93  1  0.36862647  0.36004474  0.29296837  1  -0.324323  -0.566234  0.000787  2.159618  -0.001
