# generated using pymatgen
data_ZnH14C20N4O5
_symmetry_space_group_name_H-M   'P 1'
_cell_length_a   9.50970069
_cell_length_b   10.17758066
_cell_length_c   10.30393207
_cell_angle_alpha   87.11922287
_cell_angle_beta   87.49426395
_cell_angle_gamma   63.20389062
_symmetry_Int_Tables_number   1
_chemical_formula_structural   ZnH14C20N4O5
_chemical_formula_sum   'Zn2 H28 C40 N8 O10'
_cell_volume   888.80982666
_cell_formula_units_Z   2
loop_
 _symmetry_equiv_pos_site_id
 _symmetry_equiv_pos_as_xyz
  1  'x, y, z'
loop_
 _atom_site_type_symbol
 _atom_site_label
 _atom_site_symmetry_multiplicity
 _atom_site_fract_x
 _atom_site_fract_y
 _atom_site_fract_z
 _atom_site_occupancy
 _atom_site_hle17_bader_spin_density
 _atom_site_hle17_ddec_charge
 _atom_site_hle17_ddec_spin_density
 _atom_site_hle17_ddec_sum_bond_order
 _atom_site_hle17_magmom
 _atom_site_hse06_10hf_bader_spin_density
 _atom_site_hse06_10hf_ddec_charge
 _atom_site_hse06_10hf_ddec_spin_density
 _atom_site_hse06_10hf_ddec_sum_bond_order
 _atom_site_hse06_10hf_magmom
 _atom_site_hse06_bader_spin_density
 _atom_site_hse06_ddec_charge
 _atom_site_hse06_ddec_spin_density
 _atom_site_hse06_ddec_sum_bond_order
 _atom_site_hse06_magmom
 _atom_site_pbe_bader_spin_density
 _atom_site_pbe_cm5_charge
 _atom_site_pbe_ddec_charge
 _atom_site_pbe_ddec_spin_density
 _atom_site_pbe_ddec_sum_bond_order
 _atom_site_pbe_magmom
Zn  Zn0  1  0.05484720  0.32477684  0.37696559  1  0  1.041762  0  1.825072  0  0  0.858252  0  2.281876  0  0  0.908866  0  2.225935  0  0  0.682639  0.820059  0  2.322814  0
Zn  Zn1  1  0.94515026  0.67522096  0.62303401  1  0  1.041808  0  1.825005  0  0  0.858288  0  2.281808  0  0  0.908901  0  2.225866  0  0  0.682655  0.820096  0  2.322744  0
H  H2  1  0.91245999  0.55837930  0.15330158  1  0  0.085361  0  0.963165  0  0  0.091753  0  1.03171  0  0  0.094157  0  1.030207  0  0  0.11544  0.089943  0  1.03284  0
H  H3  1  0.08754229  0.44162393  0.84669662  1  0  0.085337  0  0.963272  0  0  0.09172  0  1.031813  0  0  0.094122  0  1.030311  0  0  0.115413  0.089909  0  1.032945  0
H  H4  1  0.44386077  0.61391141  0.08591608  1  0  0.098961  0  0.981037  0  0  0.107646  0  1.04703  0  0  0.109523  0  1.047207  0  0  0.106775  0.106047  0  1.047135  0
H  H5  1  0.55614364  0.38608739  0.91407742  1  0  0.099004  0  0.981145  0  0  0.107658  0  1.047178  0  0  0.109536  0  1.047355  0  0  0.106808  0.10606  0  1.047284  0
H  H6  1  0.49190108  0.41352955  0.25540992  1  0  0.105833  0  0.950218  0  0  0.115844  0  1.008523  0  0  0.118723  0  1.008114  0  0  0.10751  0.113406  0  1.009771  0
H  H7  1  0.50810178  0.58647255  0.74458249  1  0  0.105862  0  0.950069  0  0  0.115888  0  1.008362  0  0  0.118768  0  1.007953  0  0  0.107519  0.113449  0  1.009613  0
H  H8  1  0.75166095  0.29822561  0.36889925  1  0  0.091625  0  0.932421  0  0  0.099434  0  0.995609  0  0  0.102451  0  0.99254  0  0  0.120828  0.097267  0  0.997854  0
H  H9  1  0.24833654  0.70177437  0.63109927  1  0  0.091644  0  0.932384  0  0  0.099446  0  0.995578  0  0  0.102465  0  0.992504  0  0  0.120819  0.097273  0  0.997839  0
H  H10  1  0.19035565  0.07632252  0.58294728  1  0  0.103164  0  0.944308  0  0  0.108353  0  1.011758  0  0  0.111639  0  1.008515  0  0  0.124999  0.105757  0  1.014324  0
H  H11  1  0.80964552  0.92367854  0.41705397  1  0  0.103174  0  0.944333  0  0  0.10836  0  1.011778  0  0  0.111645  0  1.00854  0  0  0.124994  0.105765  0  1.014342  0
H  H12  1  0.62978761  0.88832753  0.82395920  1  0  0.287442  0  0.947812  0  0  0.266155  0  1.018797  0  0  0.274498  0  1.012872  0  0  0.306314  0.260338  0  1.022938  0
H  H13  1  0.37021518  0.11167680  0.17604185  1  0  0.287496  0  0.94781  0  0  0.266236  0  1.01875  0  0  0.274575  0  1.012825  0  0  0.306332  0.26042  0  1.022891  0
H  H14  1  0.08733920  0.85272461  0.40549965  1  0  0.11841  0  0.955156  0  0  0.124314  0  1.025213  0  0  0.128875  0  1.020515  0  0  0.108382  0.120918  0  1.028887  0
H  H15  1  0.91266140  0.14727317  0.59450276  1  0  0.118437  0  0.955086  0  0  0.124339  0  1.025151  0  0  0.128897  0  1.020455  0  0  0.108385  0.120949  0  1.028817  0
H  H16  1  0.17452716  0.99184925  0.02137874  1  0  0.103301  0  0.949578  0  0  0.110073  0  1.015472  0  0  0.113934  0  1.012595  0  0  0.103496  0.107316  0  1.017355  0
H  H17  1  0.82547871  0.00814408  0.97862177  1  0  0.103325  0  0.949442  0  0  0.110054  0  1.015394  0  0  0.113912  0  1.012523  0  0  0.103497  0.107299  0  1.017273  0
H  H18  1  0.14614019  0.58282010  0.07956812  1  0  0.084079  0  0.98716  0  0  0.091659  0  1.056531  0  0  0.094448  0  1.05495  0  0  0.095474  0.089888  0  1.057213  0
H  H19  1  0.85385986  0.41717659  0.92043533  1  0  0.084156  0  0.987145  0  0  0.091709  0  1.05653  0  0  0.09449  0  1.054959  0  0  0.095482  0.089941  0  1.05721  0
H  H20  1  0.35291872  0.36300848  0.41793385  1  0  0.077978  0  0.963156  0  0  0.08684  0  1.027109  0  0  0.089206  0  1.024575  0  0  0.116085  0.084919  0  1.029483  0
H  H21  1  0.64707878  0.63699150  0.58206369  1  0  0.078004  0  0.963123  0  0  0.086864  0  1.027076  0  0  0.08923  0  1.024542  0  0  0.116098  0.084945  0  1.029448  0
H  H22  1  0.59051464  0.09261014  0.75000188  1  0  0.095432  0  0.975796  0  0  0.104437  0  1.041058  0  0  0.106547  0  1.040053  0  0  0.110545  0.102591  0  1.042483  0
H  H23  1  0.40948447  0.90739751  0.24999912  1  0  0.095457  0  0.975769  0  0  0.104463  0  1.041029  0  0  0.106574  0  1.040022  0  0  0.110562  0.102618  0  1.042454  0
H  H24  1  0.57238519  0.27856759  0.57703932  1  0  0.105967  0  0.944681  0  0  0.117832  0  1.000093  0  0  0.120286  0  1.001087  0  0  0.109728  0.116193  0  0.999512  0
H  H25  1  0.42760865  0.72143572  0.42295721  1  0  0.105933  0  0.94469  0  0  0.117827  0  1.000073  0  0  0.120271  0  1.001079  0  0  0.109729  0.116187  0  0.999496  0
H  H26  1  0.76252923  0.73421746  0.98267779  1  0  0.095685  0  0.926724  0  0  0.106602  0  0.988365  0  0  0.110445  0  0.984256  0  0  0.119615  0.104056  0  0.99059  0
H  H27  1  0.23747300  0.26578358  0.01732246  1  0  0.095704  0  0.926745  0  0  0.106583  0  0.988437  0  0  0.110429  0  0.984328  0  0  0.119608  0.104038  0  0.99066  0
H  H28  1  0.18122593  0.77004590  0.93036347  1  0  0.103155  0  0.962609  0  0  0.110161  0  1.026404  0  0  0.113107  0  1.026254  0  0  0.101406  0.107829  0  1.027107  0
H  H29  1  0.81877833  0.22994856  0.06963995  1  0  0.103186  0  0.962645  0  0  0.110189  0  1.026433  0  0  0.113135  0  1.026282  0  0  0.10144  0.107857  0  1.027137  0
C  C30  1  0.81488044  0.53131432  0.17369504  1  0  0.082081  0  3.659104  0  0  0.044217  0  3.904497  0  0  0.049458  0  3.923852  0  0  0.048763  0.040847  0  3.891466  0
C  C31  1  0.18512340  0.46868560  0.82630327  1  0  0.082102  0  3.659281  0  0  0.044257  0  3.904659  0  0  0.049497  0  3.924013  0  0  0.048797  0.040884  0  3.891627  0
C  C32  1  0.67452914  0.60234080  0.10510898  1  0  -0.001597  0  3.831557  0  0  0.023564  0  4.066772  0  0  0.017819  0  4.092005  0  0  -0.005708  0.026885  0  4.050465  0
C  C33  1  0.32547733  0.39765800  0.89488930  1  0  -0.001652  0  3.8318  0  0  0.023541  0  4.067001  0  0  0.0178  0  4.092229  0  0  -0.00575  0.026861  0  4.050693  0
C  C34  1  0.55458473  0.56064804  0.13695868  1  0  -0.034507  0  3.666867  0  0  -0.062271  0  3.910804  0  0  -0.05916  0  3.930016  0  0  -0.059797  -0.063968  0  3.898049  0
C  C35  1  0.44541968  0.43935296  0.86303665  1  0  -0.034532  0  3.667298  0  0  -0.062311  0  3.911257  0  0  -0.059201  0  3.930469  0  0  -0.059835  -0.064009  0  3.8985  0
C  C36  1  0.58066981  0.45134404  0.23219961  1  0  -0.114069  0  3.737698  0  0  -0.126984  0  3.997729  0  0  -0.133842  0  4.017841  0  0  -0.080159  -0.122591  0  3.984922  0
C  C37  1  0.41933349  0.54865699  0.76779963  1  0  -0.114039  0  3.737728  0  0  -0.12695  0  3.997747  0  0  -0.13381  0  4.017861  0  0  -0.080134  -0.122556  0  3.984937  0
C  C38  1  0.72426487  0.38658673  0.29555987  1  0  0.138867  0  3.665849  0  0  0.102245  0  3.922508  0  0  0.110634  0  3.938246  0  0  0.052447  0.096303  0  3.912568  0
C  C39  1  0.27573631  0.61341432  0.70444042  1  0  0.138818  0  3.66589  0  0  0.102206  0  3.922549  0  0  0.110597  0  3.938285  0  0  0.05245  0.096262  0  3.912605  0
C  C40  1  0.10846684  0.58665854  0.33933989  1  0  0.657829  0  3.898253  0  0  0.604736  0  4.191191  0  0  0.640513  0  4.18212  0  0  0.210841  0.580177  0  4.197267  0
C  C41  1  0.89153268  0.41333705  0.66066265  1  0  0.657879  0  3.898094  0  0  0.604801  0  4.191011  0  0  0.640583  0  4.181934  0  0  0.210835  0.580244  0  4.197089  0
C  C42  1  0.12752445  0.93730467  0.21850442  1  0  -0.073491  0  3.759586  0  0  -0.043464  0  3.988109  0  0  -0.053149  0  4.010681  0  0  -0.019379  -0.03689  0  3.972741  0
C  C43  1  0.87247669  0.06269420  0.78149792  1  0  -0.073448  0  3.759487  0  0  -0.04352  0  3.988146  0  0  -0.053143  0  4.010632  0  0  -0.019388  -0.036959  0  3.9728  0
C  C44  1  0.27653011  0.11923690  0.58445687  1  0  0.129459  0  3.642954  0  0  0.089523  0  3.887591  0  0  0.097836  0  3.905698  0  0  0.060503  0.084795  0  3.875114  0
C  C45  1  0.72347055  0.88076525  0.41554338  1  0  0.129466  0  3.642898  0  0  0.089545  0  3.887536  0  0  0.097846  0  3.90563  0  0  0.060538  0.08482  0  3.875065  0
C  C46  1  0.39457065  0.06514795  0.67739021  1  0  -0.105799  0  3.75027  0  0  -0.080489  0  3.986944  0  0  -0.092121  0  4.011002  0  0  -0.010251  -0.073718  0  3.97203  0
C  C47  1  0.60542842  0.93485312  0.32260917  1  0  -0.105797  0  3.750264  0  0  -0.080578  0  3.987008  0  0  -0.092161  0  4.011009  0  0  -0.010285  -0.07382  0  3.972121  0
C  C48  1  0.10973100  0.83251610  0.30189711  1  0  -0.062395  0  3.677274  0  0  -0.100131  0  3.924875  0  0  -0.095906  0  3.941847  0  0  -0.075366  -0.102576  0  3.913587  0
C  C49  1  0.89026435  0.16748612  0.69810524  1  0  -0.062544  0  3.677281  0  0  -0.100261  0  3.924925  0  0  -0.096056  0  3.941884  0  0  -0.075431  -0.102706  0  3.913641  0
C  C50  1  0.15693041  0.91198832  0.08543558  1  0  -0.035201  0  3.689498  0  0  -0.067105  0  3.94337  0  0  -0.063237  0  3.959435  0  0  -0.071191  -0.069136  0  3.932301  0
C  C51  1  0.84307281  0.08800833  0.91456776  1  0  -0.035117  0  3.689328  0  0  -0.066944  0  3.943205  0  0  -0.063097  0  3.959259  0  0  -0.071103  -0.068971  0  3.932138  0
C  C52  1  0.11329809  0.07699230  0.27063313  1  0  0.6306  0  3.91375  0  0  0.580051  0  4.204127  0  0  0.613555  0  4.198385  0  0  0.199458  0.557416  0  4.207052  0
C  C53  1  0.88669782  0.92301100  0.72936722  1  0  0.630575  0  3.913659  0  0  0.580033  0  4.204068  0  0  0.613524  0  4.198315  0  0  0.199418  0.557401  0  4.206991  0
C  C54  1  0.14129035  0.68282524  0.11700977  1  0  -0.064148  0  3.732183  0  0  -0.090221  0  3.978846  0  0  -0.087558  0  3.997931  0  0  -0.086266  -0.091955  0  3.966281  0
C  C55  1  0.85870603  0.31717478  0.88299364  1  0  -0.064247  0  3.732193  0  0  -0.090321  0  3.978884  0  0  -0.087647  0  3.997962  0  0  -0.086268  -0.092059  0  3.96632  0
C  C56  1  0.36900946  0.27841230  0.49260763  1  0  0.144582  0  3.683549  0  0  0.107821  0  3.939897  0  0  0.116835  0  3.956497  0  0  0.050665  0.102113  0  3.928907  0
C  C57  1  0.63098699  0.72158989  0.50739081  1  0  0.144471  0  3.683443  0  0  0.107711  0  3.93979  0  0  0.116723  0  3.956388  0  0  0.050585  0.102005  0  3.928799  0
C  C58  1  0.50105236  0.12533280  0.67644344  1  0  -0.014808  0  3.694268  0  0  -0.047122  0  3.945802  0  0  -0.041475  0  3.964632  0  0  -0.060978  -0.050754  0  3.934346  0
C  C59  1  0.49894882  0.87466826  0.32355684  1  0  -0.014829  0  3.694223  0  0  -0.047126  0  3.945786  0  0  -0.041493  0  3.964601  0  0  -0.060964  -0.050756  0  3.934337  0
C  C60  1  0.39294547  0.95029792  0.77363446  1  0  0.499816  0  3.865359  0  0  0.451489  0  4.153446  0  0  0.480528  0  4.155291  0  0  0.237329  0.43221  0  4.151654  0
C  C61  1  0.60705042  0.04970099  0.22636416  1  0  0.499687  0  3.86558  0  0  0.451462  0  4.153543  0  0  0.480479  0  4.155392  0  0  0.237269  0.432185  0  4.151756  0
C  C62  1  0.48986523  0.23122301  0.58095733  1  0  -0.117103  0  3.728714  0  0  -0.125933  0  3.980681  0  0  -0.135109  0  4.003692  0  0  -0.081571  -0.120221  0  3.965574  0
C  C63  1  0.51013226  0.76877697  0.41904119  1  0  -0.116968  0  3.728641  0  0  -0.125821  0  3.980598  0  0  -0.134989  0  4.003617  0  0  -0.081531  -0.120108  0  3.96549  0
C  C64  1  0.66053193  0.71224273  0.00363495  1  0  0.037657  0  3.672132  0  0  -0.00101  0  3.94281  0  0  0.004721  0  3.954628  0  0  0.055632  -0.004838  0  3.935117  0
C  C65  1  0.33947086  0.28775720  0.99636242  1  0  0.037637  0  3.67226  0  0  -0.001033  0  3.942976  0  0  0.004694  0  3.954798  0  0  0.055621  -0.00486  0  3.935283  0
C  C66  1  0.11986077  0.70331170  0.25155375  1  0  -0.095679  0  3.784448  0  0  -0.068827  0  4.018417  0  0  -0.080273  0  4.043673  0  0  -0.028733  -0.061649  0  4.002621  0
C  C67  1  0.88013823  0.29668720  0.74845059  1  0  -0.095604  0  3.784391  0  0  -0.068729  0  4.018315  0  0  -0.080179  0  4.043578  0  0  -0.028702  -0.061554  0  4.002521  0
C  C68  1  0.16034609  0.78628810  0.03430358  1  0  -0.071153  0  3.74723  0  0  -0.082682  0  4.00543  0  0  -0.086844  0  4.024699  0  0  -0.088347  -0.07993  0  3.992225  0
C  C69  1  0.83965557  0.21370967  0.96569879  1  0  -0.071217  0  3.747369  0  0  -0.082708  0  4.005477  0  0  -0.086869  0  4.024747  0  0  -0.08838  -0.079956  0  3.992275  0
N  N70  1  0.83900878  0.42695915  0.26699909  1  0  -0.304452  0  3.266515  0  0  -0.225083  0  3.52965  0  0  -0.243648  0  3.547939  0  0  -0.315444  -0.212277  0  3.517592  0
N  N71  1  0.16099238  0.57303971  0.73300130  1  0  -0.304417  0  3.266596  0  0  -0.225063  0  3.529735  0  0  -0.243628  0  3.548022  0  0  -0.315431  -0.212256  0  3.517675  0
N  N72  1  0.26265410  0.22484600  0.49529747  1  0  -0.321667  0  3.261058  0  0  -0.243759  0  3.531876  0  0  -0.263446  0  3.548232  0  0  -0.317148  -0.230702  0  3.52077  0
N  N73  1  0.73734287  0.77515509  0.50470101  1  0  -0.321699  0  3.260996  0  0  -0.243774  0  3.531797  0  0  -0.263462  0  3.548158  0  0  -0.317149  -0.230716  0  3.520693  0
N  N74  1  0.52656925  0.87902494  0.84651227  1  0  -0.308709  0  3.397942  0  0  -0.251268  0  3.645148  0  0  -0.274628  0  3.660453  0  0  -0.28786  -0.235175  0  3.634306  0
N  N75  1  0.47342933  0.12097723  0.15348514  1  0  -0.308778  0  3.39828  0  0  -0.251384  0  3.645437  0  0  -0.274729  0  3.660735  0  0  -0.287904  -0.235292  0  3.6346  0
N  N76  1  0.53107159  0.77915260  0.94015499  1  0  -0.115717  0  3.07339  0  0  -0.096548  0  3.356828  0  0  -0.09979  0  3.374269  0  0  -0.1968  -0.094257  0  3.344866  0
N  N77  1  0.46893015  0.22084734  0.05984145  1  0  -0.115625  0  3.073467  0  0  -0.09644  0  3.356885  0  0  -0.099689  0  3.374331  0  0  -0.19672  -0.09415  0  3.344926  0
O  O78  1  0.09117701  0.60483676  0.46061557  1  0  -0.657217  0  2.136713  0  0  -0.597056  0  2.425467  0  0  -0.623572  0  2.409986  0  0  -0.326245  -0.577345  0  2.434899  0
O  O79  1  0.90882410  0.39515992  0.53938784  1  0  -0.657194  0  2.136739  0  0  -0.59705  0  2.425506  0  0  -0.62356  0  2.410012  0  0  -0.326194  -0.577337  0  2.434939  0
O  O80  1  0.12328543  0.46998980  0.28524432  1  0  -0.639577  0  2.077182  0  0  -0.569829  0  2.34599  0  0  -0.596976  0  2.330964  0  0  -0.318845  -0.550436  0  2.357631  0
O  O81  1  0.87672148  0.53000353  0.71475810  1  0  -0.63965  0  2.077046  0  0  -0.56991  0  2.345858  0  0  -0.597059  0  2.330825  0  0  -0.318893  -0.550514  0  2.3575  0
O  O82  1  0.04283086  0.11943617  0.37999183  1  0  -0.614078  0  2.005668  0  0  -0.548342  0  2.253161  0  0  -0.576227  0  2.242953  0  0  -0.310376  -0.528241  0  2.259221  0
O  O83  1  0.95716605  0.88056054  0.62000881  1  0  -0.614082  0  2.005672  0  0  -0.548309  0  2.25312  0  0  -0.576202  0  2.242924  0  0  -0.310352  -0.528206  0  2.259178  0
O  O84  1  0.17075117  0.15239526  0.20465503  1  0  -0.661461  0  1.990297  0  0  -0.607694  0  2.236759  0  0  -0.632409  0  2.225895  0  0  -0.329456  -0.588773  0  2.243475  0
O  O85  1  0.82924052  0.84761248  0.79534718  1  0  -0.661446  0  1.990252  0  0  -0.607664  0  2.236702  0  0  -0.632373  0  2.22582  0  0  -0.329443  -0.588751  0  2.243432  0
O  O86  1  0.27816953  0.92405930  0.78526054  1  0  -0.506279  0  1.935785  0  0  -0.467253  0  2.158325  0  0  -0.489311  0  2.156012  0  0  -0.274985  -0.451906  0  2.159368  0
O  O87  1  0.72182950  0.07593519  0.21473723  1  0  -0.506215  0  1.935744  0  0  -0.467215  0  2.158205  0  0  -0.489272  0  2.155903  0  0  -0.274966  -0.451869  0  2.159247  0
