# generated using pymatgen
data_CuH18C24(NO2)6
_symmetry_space_group_name_H-M   'P 1'
_cell_length_a   7.04339338
_cell_length_b   8.04266270
_cell_length_c   12.15016982
_cell_angle_alpha   106.33122086
_cell_angle_beta   97.76135781
_cell_angle_gamma   97.46368102
_symmetry_Int_Tables_number   1
_chemical_formula_structural   CuH18C24(NO2)6
_chemical_formula_sum   'Cu1 H18 C24 N6 O12'
_cell_volume   644.17701449
_cell_formula_units_Z   1
loop_
 _symmetry_equiv_pos_site_id
 _symmetry_equiv_pos_as_xyz
  1  'x, y, z'
loop_
 _atom_site_type_symbol
 _atom_site_label
 _atom_site_symmetry_multiplicity
 _atom_site_fract_x
 _atom_site_fract_y
 _atom_site_fract_z
 _atom_site_occupancy
 _atom_site_hle17_ddec_charge
 _atom_site_hle17_ddec_spin_density
 _atom_site_hle17_ddec_sum_bond_order
 _atom_site_hle17_magmom
 _atom_site_hse06_10hf_ddec_charge
 _atom_site_hse06_10hf_ddec_spin_density
 _atom_site_hse06_10hf_ddec_sum_bond_order
 _atom_site_hse06_10hf_magmom
 _atom_site_hse06_ddec_charge
 _atom_site_hse06_ddec_spin_density
 _atom_site_hse06_ddec_sum_bond_order
 _atom_site_hse06_magmom
 _atom_site_pbe_cm5_charge
 _atom_site_pbe_ddec_charge
 _atom_site_pbe_ddec_spin_density
 _atom_site_pbe_ddec_sum_bond_order
 _atom_site_pbe_magmom
Cu  Cu0  1  0.00000455  0.00000133  0.00000061  1  0.836186  0.689948  1.799771  0.516  0.799354  0.772024  2.195454  0.622  0.890753  0.83365  2.125301  0.702  0.751934  0.740886  0.729952  2.247142  0.571
H  H1  1  0.03603264  0.11895921  0.43922811  1  0.118356  -6e-06  0.981198  0.0  0.122747  -9e-06  1.050842  0.0  0.127021  -1e-05  1.046482  0.0  0.113252  0.119634  -6e-06  1.053918  0.0
H  H2  1  0.96396729  0.88104192  0.56077119  1  0.118368  -1.1e-05  0.981179  0.0  0.122747  -9e-06  1.050848  0.0  0.127019  -9e-06  1.046489  0.0  0.113243  0.119633  -7e-06  1.05392  0.0
H  H3  1  0.02617059  0.10941102  0.70364142  1  0.417374  -5.2e-05  0.875933  0.0  0.386179  -3.3e-05  0.950625  0.0  0.399741  -2.8e-05  0.9313  0.0  0.304312  0.376681  -2.9e-05  0.964086  0.0
H  H4  1  0.97383458  0.89058750  0.29635451  1  0.417373  -5.2e-05  0.876052  0.0  0.386204  -3.3e-05  0.950614  0.0  0.399768  -2.8e-05  0.931286  0.0  0.304323  0.376709  -2.8e-05  0.964119  0.0
H  H5  1  0.31754628  0.63788714  0.65316933  1  0.119994  0.0  0.925628  0.0  0.125375  -1.9e-05  0.991279  0.0  0.129941  -1.5e-05  0.986905  0.0  0.115099  0.122036  -2.2e-05  0.994421  0.0
H  H6  1  0.68244773  0.36212053  0.34683567  1  0.119964  2e-06  0.92577  0.0  0.12534  -1.9e-05  0.991422  0.0  0.129905  -1.5e-05  0.987053  0.0  0.115099  0.122006  -2.1e-05  0.994571  0.0
H  H7  1  0.25824216  0.49922407  0.27906217  1  0.119284  0.000403  0.930057  0.0  0.126736  0.00038  0.993066  0.0  0.131472  0.000266  0.988367  0.0  0.113668  0.123252  0.000483  0.996535  0.0
H  H8  1  0.74176375  0.50077839  0.72094197  1  0.119275  0.000414  0.929978  0.0  0.12671  0.00038  0.993013  0.0  0.131445  0.000265  0.988316  0.0  0.113643  0.123221  0.000482  0.996474  0.0
H  H9  1  0.48976794  0.93193289  0.40212310  1  0.400963  2e-06  0.898504  0.0  0.36962  1e-06  0.975028  0.0  0.382856  2e-06  0.95665  0.0  0.303248  0.360361  2e-06  0.985125  0.0
H  H10  1  0.51022843  0.06807216  0.59788242  1  0.400952  4e-06  0.898525  0.0  0.36961  0.0  0.975055  0.0  0.382846  2e-06  0.956676  0.0  0.30323  0.36035  2e-06  0.985149  0.0
H  H11  1  0.34103812  0.09052303  0.82821948  1  0.120454  0.000389  0.945229  0.001  0.127937  0.000263  1.008953  0.0  0.130454  0.0002  1.00632  0.0  0.142083  0.125949  0.00031  1.011079  0.0
H  H12  1  0.65896840  0.90946760  0.17177673  1  0.120427  0.000391  0.945197  0.001  0.127884  0.000263  1.008962  0.0  0.1304  0.0002  1.006329  0.0  0.142052  0.125898  0.00031  1.011096  0.0
H  H13  1  0.81410301  0.34808720  0.10367089  1  0.128858  -0.000306  0.951899  0.0  0.137486  -0.000223  1.012169  0.0  0.140953  -0.00019  1.007683  0.0  0.144737  0.134822  -0.000241  1.015507  0.0
H  H14  1  0.18589355  0.65191129  0.89632601  1  0.128828  -0.000297  0.951914  0.0  0.137474  -0.000223  1.012167  0.0  0.140942  -0.000191  1.007678  0.0  0.144725  0.134798  -0.000241  1.015498  0.0
H  H15  1  0.45028870  0.44929882  0.10748318  1  0.101909  -3.8e-05  0.912462  0.0  0.116726  1.3e-05  0.971991  0.0  0.117999  -6e-06  0.970895  0.0  0.120976  0.115699  3.6e-05  0.972904  0.0
H  H16  1  0.54971167  0.55069706  0.89251189  1  0.10196  -2.3e-05  0.912327  0.0  0.116759  1.3e-05  0.971888  0.0  0.118033  -6e-06  0.970788  0.0  0.120972  0.115727  3.5e-05  0.972797  0.0
H  H17  1  0.29831758  0.38025588  0.96638915  1  0.099425  8.8e-05  0.912976  0.0  0.112555  2e-06  0.975716  0.0  0.113931  -3.8e-05  0.974095  0.0  0.122211  0.111284  4.7e-05  0.97727  0.0
H  H18  1  0.70168902  0.61974265  0.03360607  1  0.099419  9.7e-05  0.91297  0.0  0.11257  2e-06  0.975683  0.0  0.113947  -3.9e-05  0.974057  0.0  0.122225  0.111298  4.7e-05  0.977237  0.0
C  C19  1  0.06997160  0.16136599  0.22797693  1  0.652256  -0.009411  3.862165  -0.009  0.604045  -0.003523  4.163396  -0.004  0.641772  -0.004035  4.157422  -0.004  0.212864  0.578626  -0.002935  4.166452  -0.004
C  C20  1  0.93003002  0.83863646  0.77202193  1  0.652248  -0.009393  3.862087  -0.009  0.604042  -0.003523  4.163297  -0.004  0.641772  -0.004035  4.157321  -0.004  0.212854  0.578617  -0.002935  4.166341  -0.004
C  C21  1  0.14244380  0.29301497  0.34579035  1  -0.066476  0.008009  3.734243  0.009  -0.038333  0.004901  3.969017  0.006  -0.049959  0.00358  3.991172  0.004  -0.012447  -0.031056  0.005929  3.954162  0.007
C  C22  1  0.85755351  0.70698746  0.65420982  1  -0.066609  0.008013  3.734194  0.009  -0.038455  0.004902  3.968993  0.006  -0.050085  0.003581  3.991151  0.004  -0.012476  -0.031172  0.00593  3.954114  0.007
C  C23  1  0.11178754  0.24882050  0.44599613  1  -0.034582  -0.001365  3.643124  0.0  -0.078579  -0.00018  3.894415  0.0  -0.072654  -0.000467  3.910931  0.0  -0.064891  -0.081993  1.7e-05  3.8831  0.0
C  C24  1  0.88821096  0.75118062  0.55400141  1  -0.034531  -0.001346  3.643051  0.0  -0.078545  -0.00018  3.894358  0.0  -0.072632  -0.000469  3.910906  0.0  -0.064895  -0.081947  1.7e-05  3.883017  0.0
C  C25  1  0.17643635  0.37106981  0.55686116  1  -0.089894  0.001056  3.7723  0.001  -0.064264  0.000391  4.011795  0.001  -0.076863  0.000328  4.037378  0.0  -0.017907  -0.056335  0.000474  3.994657  0.001
C  C26  1  0.82356189  0.62892999  0.44314023  1  -0.089872  0.001061  3.772373  0.001  -0.064181  0.000391  4.011878  0.001  -0.07678  0.000328  4.037465  0.0  -0.017875  -0.056259  0.000474  3.994751  0.001
C  C27  1  0.14679081  0.31899016  0.66297375  1  0.66162  5.5e-05  3.833805  0.0  0.611782  4.9e-05  4.133292  0.0  0.645505  2.8e-05  4.124742  0.0  0.22928  0.588853  8.3e-05  4.138644  0.0
C  C28  1  0.85319683  0.68099911  0.33701496  1  0.661616  5.7e-05  3.834072  0.0  0.611661  4.8e-05  4.133741  0.0  0.645381  2.9e-05  4.125194  0.0  0.229209  0.58874  8.3e-05  4.139102  0.0
C  C29  1  0.26776566  0.54081506  0.56757198  1  -0.035851  -0.002024  3.672773  -0.001  -0.076099  -0.000753  3.924564  0.0  -0.07065  -0.000828  3.943093  0.0  -0.058898  -0.079066  -0.000729  3.911693  0.0
C  C30  1  0.73222760  0.45918867  0.43242975  1  -0.035897  -0.002049  3.672859  -0.001  -0.076152  -0.000752  3.924672  0.0  -0.070713  -0.000829  3.943207  0.0  -0.058921  -0.079125  -0.000729  3.911817  0.0
C  C31  1  0.29522054  0.58691161  0.46716425  1  -0.098672  0.000484  3.786847  0.001  -0.07349  6.6e-05  4.028221  0.0  -0.087187  0.000137  4.055114  0.0  -0.01907  -0.064886  2.5e-05  4.010199  0.0
C  C32  1  0.70477895  0.41309476  0.53284423  1  -0.098612  0.000504  3.786886  0.001  -0.073443  6.6e-05  4.028324  0.0  -0.087117  0.000138  4.055184  0.0  -0.019133  -0.064847  2.5e-05  4.010303  0.0
C  C33  1  0.38491405  0.77025807  0.48076000  1  0.668288  2.1e-05  3.802622  0.0  0.614389  -1e-05  4.104071  0.0  0.648308  -2e-06  4.096835  0.0  0.240633  0.591388  -1e-06  4.108569  0.0
C  C34  1  0.61507577  0.22973515  0.51923292  1  0.667933  1e-06  3.803129  0.0  0.613992  -1e-05  4.104636  0.0  0.6479  -2e-06  4.09741  0.0  0.240432  0.591002  -1e-06  4.10913  0.0
C  C35  1  0.23558152  0.46305326  0.35673507  1  -0.028733  -0.001751  3.64256  -0.001  -0.070693  -0.000219  3.893635  0.0  -0.063892  -0.000448  3.908815  0.0  -0.060961  -0.074622  -7e-05  3.883152  0.0
C  C36  1  0.76442009  0.53694919  0.64326544  1  -0.028681  -0.001812  3.642814  -0.001  -0.070627  -0.000217  3.893898  0.0  -0.063831  -0.00045  3.909081  0.0  -0.060921  -0.07455  -7.1e-05  3.88339  0.0
C  C37  1  0.48188004  0.11865289  0.88484820  1  0.154485  0.001977  3.620249  0.004  0.096919  0.00144  3.895271  0.003  0.107769  0.000947  3.906703  0.002  0.159819  0.089755  0.001836  3.887619  0.003
C  C38  1  0.51812268  0.88134036  0.11514902  1  0.154511  0.001961  3.620394  0.004  0.096976  0.001439  3.895425  0.003  0.107827  0.000948  3.906856  0.002  0.159836  0.089811  0.001835  3.887789  0.003
C  C39  1  0.72387828  0.25145647  0.02736657  1  0.160382  -0.008082  3.606902  -0.003  0.10214  -0.002463  3.864309  0.001  0.117922  -0.00408  3.877151  -0.001  0.16223  0.092106  -0.001263  3.855669  0.002
C  C40  1  0.27612301  0.74853677  0.97263219  1  0.160332  -0.008125  3.606639  -0.003  0.102093  -0.002462  3.864034  0.001  0.117874  -0.00408  3.876875  -0.001  0.162177  0.092078  -0.001263  3.855372  0.002
C  C41  1  0.44900334  0.41971885  0.01358183  1  -0.012425  0.00041  3.588421  0.001  -0.079684  0.000298  3.851253  0.0  -0.075314  0.000218  3.86085  0.0  -0.040206  -0.082459  0.000372  3.844812  0.0
C  C42  1  0.55099989  0.58027703  0.98641346  1  -0.012523  0.000363  3.588397  0.0  -0.079786  0.000299  3.851207  0.0  -0.075409  0.000218  3.860797  0.0  -0.040259  -0.082569  0.000372  3.84478  0.0
N  N43  1  0.76159585  0.09667907  0.96976247  1  -0.255948  0.065977  3.320544  0.085  -0.218495  0.047014  3.650055  0.064  -0.247493  0.039015  3.670729  0.057  -0.270171  -0.200937  0.051457  3.638062  0.067
N  N44  1  0.23841050  0.90331814  0.03023578  1  -0.255737  0.065975  3.32032  0.085  -0.218301  0.04701  3.649837  0.064  -0.247299  0.039012  3.670513  0.057  -0.270117  -0.200744  0.051453  3.637838  0.067
N  N45  1  0.60898343  0.01159261  0.87954684  1  -0.209106  0.003241  2.916775  0.004  -0.192933  0.00293  3.203246  0.004  -0.198951  0.001349  3.219848  0.002  -0.229608  -0.188401  0.004471  3.192026  0.005
N  N46  1  0.39102217  0.98840065  0.12044979  1  -0.209252  0.00326  2.916994  0.004  -0.193092  0.00293  3.203483  0.004  -0.199108  0.001351  3.220084  0.002  -0.229661  -0.18856  0.004472  3.192277  0.005
N  N47  1  0.54749139  0.27002511  0.97618914  1  -0.073619  0.000503  3.521489  0.001  0.021169  0.000478  3.743671  0.001  0.004629  0.000253  3.767297  0.001  -0.227107  0.032029  0.000628  3.727481  0.001
N  N48  1  0.45251015  0.72996945  0.02380906  1  -0.073578  0.00052  3.521458  0.001  0.021216  0.000478  3.743597  0.001  0.004672  0.000253  3.767225  0.001  -0.227002  0.032078  0.000628  3.727403  0.001
O  O49  1  0.09575602  0.21328565  0.13952349  1  -0.57079  0.096091  2.034258  0.132  -0.548003  0.064142  2.313863  0.096  -0.590677  0.049022  2.307034  0.079  -0.311847  -0.519299  0.074112  2.318391  0.105
O  O50  1  0.90424205  0.78672073  0.86047583  1  -0.570716  0.096109  2.034233  0.132  -0.547925  0.064149  2.313833  0.096  -0.590601  0.049028  2.307007  0.079  -0.311833  -0.519215  0.07413  2.318344  0.105
O  O51  1  0.98301730  0.00702309  0.21610807  1  -0.635684  -0.00115  2.017883  0.002  -0.595856  -0.001091  2.259036  0.001  -0.623504  -0.002093  2.24533  0.0  -0.315416  -0.576751  -0.000232  2.268201  0.002
O  O52  1  0.01699148  0.99297938  0.78389465  1  -0.635719  -0.001155  2.017796  0.002  -0.5959  -0.001091  2.258992  0.001  -0.623546  -0.002093  2.245286  0.0  -0.315418  -0.576801  -0.000232  2.268143  0.002
O  O53  1  0.03314758  0.16278012  0.63614680  1  -0.559459  4.3e-05  2.14233  0.0  -0.502848  -3.3e-05  2.359799  0.0  -0.526087  -7.7e-05  2.341105  0.0  -0.326594  -0.48657  -7e-06  2.372169  0.0
O  O54  1  0.96685422  0.83721576  0.36384920  1  -0.55944  4.1e-05  2.142191  0.0  -0.502869  -3.4e-05  2.359668  0.0  -0.52611  -7.9e-05  2.340976  0.0  -0.326604  -0.486581  -7e-06  2.372071  0.0
O  O55  1  0.22051119  0.41122475  0.76324066  1  -0.573145  0.000408  1.924478  0.0  -0.536908  0.000165  2.14691  0.0  -0.557509  0.000122  2.137622  0.0  -0.299528  -0.522638  0.000271  2.153016  0.0
O  O56  1  0.77948518  0.58878030  0.23676568  1  -0.573116  0.000409  1.925197  0.0  -0.536777  0.000166  2.147648  0.0  -0.557371  0.000123  2.13836  0.0  -0.299406  -0.522509  0.000272  2.15376  0.0
O  O57  1  0.42765794  0.79970401  0.38505756  1  -0.540669  7e-06  2.100128  0.0  -0.492443  -1.5e-05  2.3174  0.0  -0.515341  -5e-06  2.301004  0.0  -0.321798  -0.476586  -2.5e-05  2.326283  0.0
O  O58  1  0.57233793  0.20029840  0.61495236  1  -0.540732  0.0  2.099991  0.0  -0.492482  -1.4e-05  2.317254  0.0  -0.515385  -6e-06  2.300872  0.0  -0.321875  -0.476622  -2.5e-05  2.32613  0.0
O  O59  1  0.41464716  0.88476611  0.57826440  1  -0.556675  6.8e-05  1.989754  0.0  -0.506847  2.5e-05  2.204535  0.0  -0.529554  2.9e-05  2.194669  0.0  -0.283893  -0.491337  2.4e-05  2.210382  0.0
O  O60  1  0.58534649  0.11525469  0.42175372  1  -0.556298  8.6e-05  1.990375  0.0  -0.506426  2.4e-05  2.205141  0.0  -0.529138  3.1e-05  2.195302  0.0  -0.283628  -0.490893  2.5e-05  2.210921  0.0
