# generated using pymatgen
data_ZnH14C18S2N6O7
_symmetry_space_group_name_H-M   'P 1'
_cell_length_a   8.35617212
_cell_length_b   11.26272997
_cell_length_c   12.18226131
_cell_angle_alpha   108.36677308
_cell_angle_beta   95.13534957
_cell_angle_gamma   103.29176942
_symmetry_Int_Tables_number   1
_chemical_formula_structural   ZnH14C18S2N6O7
_chemical_formula_sum   'Zn2 H28 C36 S4 N12 O14'
_cell_volume   1042.55390519
_cell_formula_units_Z   2
loop_
 _symmetry_equiv_pos_site_id
 _symmetry_equiv_pos_as_xyz
  1  'x, y, z'
loop_
 _atom_site_type_symbol
 _atom_site_label
 _atom_site_symmetry_multiplicity
 _atom_site_fract_x
 _atom_site_fract_y
 _atom_site_fract_z
 _atom_site_occupancy
 _atom_site_hle17_bader_spin_density
 _atom_site_hle17_ddec_charge
 _atom_site_hle17_ddec_spin_density
 _atom_site_hle17_ddec_sum_bond_order
 _atom_site_hle17_magmom
 _atom_site_hse06_10hf_bader_spin_density
 _atom_site_hse06_10hf_ddec_charge
 _atom_site_hse06_10hf_ddec_spin_density
 _atom_site_hse06_10hf_ddec_sum_bond_order
 _atom_site_hse06_10hf_magmom
 _atom_site_hse06_bader_spin_density
 _atom_site_hse06_ddec_charge
 _atom_site_hse06_ddec_spin_density
 _atom_site_hse06_ddec_sum_bond_order
 _atom_site_hse06_magmom
 _atom_site_pbe_bader_spin_density
 _atom_site_pbe_cm5_charge
 _atom_site_pbe_ddec_charge
 _atom_site_pbe_ddec_spin_density
 _atom_site_pbe_ddec_sum_bond_order
 _atom_site_pbe_magmom
Zn  Zn0  1  0.25082441  0.15719198  0.48404386  1  0  1.081397  0  1.744926  0  0  0.894188  0  2.19918  0  0  0.944036  0  2.142877  0  0  0.686264  0.859238  0  2.237774  0
Zn  Zn1  1  0.74917699  0.84281097  0.51595385  1  0  1.081456  0  1.744848  0  0  0.894214  0  2.199107  0  0  0.944067  0  2.142804  0  0  0.68629  0.859268  0  2.237706  0
H  H2  1  0.30388896  0.94294450  0.51857584  1  0  0.435296  0  0.871868  0  0  0.402391  0  0.938492  0  0  0.414319  0  0.92121  0  0  0.28963  0.393963  0  0.95068  0
H  H3  1  0.69611149  0.05705930  0.48142374  1  0  0.435352  0  0.871791  0  0  0.402378  0  0.938497  0  0  0.414302  0  0.921222  0  0  0.289651  0.393952  0  0.950682  0
H  H4  1  0.10585911  0.90543595  0.47732017  1  0  0.428371  0  0.879316  0  0  0.396843  0  0.943586  0  0  0.408033  0  0.927469  0  0  0.289905  0.388901  0  0.955023  0
H  H5  1  0.89414318  0.09456213  0.52267765  1  0  0.428386  0  0.879275  0  0  0.396895  0  0.943482  0  0  0.408081  0  0.92737  0  0  0.289922  0.388955  0  0.954912  0
H  H6  1  0.36781739  0.80125948  0.12803776  1  0  0.128364  0  0.97302  0  0  0.128137  0  1.048873  0  0  0.132976  0  1.044846  0  0  0.109597  0.12459  0  1.051982  0
H  H7  1  0.63218621  0.19873137  0.87196763  1  0  0.128327  0  0.973004  0  0  0.128159  0  1.048741  0  0  0.132994  0  1.04471  0  0  0.109607  0.124614  0  1.05185  0
H  H8  1  0.56011836  0.91529336  0.31881836  1  0  0.086571  0  0.965252  0  0  0.091313  0  1.034689  0  0  0.094266  0  1.032162  0  0  0.117576  0.089171  0  1.036534  0
H  H9  1  0.43989761  0.08471003  0.68117960  1  0  0.08653  0  0.965239  0  0  0.091279  0  1.034662  0  0  0.094231  0  1.032137  0  0  0.117618  0.089142  0  1.036506  0
H  H10  1  0.59813629  0.56729574  0.35454955  1  0  0.090771  0  0.964421  0  0  0.096103  0  1.031655  0  0  0.099442  0  1.028547  0  0  0.113534  0.093699  0  1.033875  0
H  H11  1  0.40187418  0.43270961  0.64546350  1  0  0.090745  0  0.964404  0  0  0.096007  0  1.031698  0  0  0.099344  0  1.028592  0  0  0.113506  0.093601  0  1.033918  0
H  H12  1  0.40689622  0.43781957  0.16270076  1  0  0.106361  0  0.971028  0  0  0.108968  0  1.044594  0  0  0.112815  0  1.042463  0  0  0.100704  0.105978  0  1.046673  0
H  H13  1  0.59309534  0.56217915  0.83731549  1  0  0.1064  0  0.970957  0  0  0.109001  0  1.0445  0  0  0.112849  0  1.042368  0  0  0.100748  0.10601  0  1.046578  0
H  H14  1  0.85905824  0.29707345  0.68209583  1  0  0.133814  0  0.931402  0  0  0.143278  0  0.994964  0  0  0.145839  0  0.993912  0  0  0.109949  0.141402  0  0.995946  0
H  H15  1  0.14092453  0.70292769  0.31790669  1  0  0.133789  0  0.931449  0  0  0.143258  0  0.995001  0  0  0.145817  0  0.993955  0  0  0.109961  0.141384  0  0.995984  0
H  H16  1  0.80756749  0.37911149  0.58617049  1  0  0.140885  0  0.91916  0  0  0.160599  0  0.965971  0  0  0.16235  0  0.965906  0  0  0.116666  0.159355  0  0.966133  0
H  H17  1  0.19243774  0.62090002  0.41383439  1  0  0.140899  0  0.919051  0  0  0.16062  0  0.965854  0  0  0.162373  0  0.965782  0  0  0.116669  0.159376  0  0.966019  0
H  H18  1  0.04081121  0.79862188  0.89160392  1  0  0.114131  0  0.955806  0  0  0.119625  0  1.024224  0  0  0.123593  0  1.021841  0  0  0.104497  0.116413  0  1.026724  0
H  H19  1  0.95918321  0.20137795  0.10839315  1  0  0.114183  0  0.955807  0  0  0.119695  0  1.024202  0  0  0.123662  0  1.021825  0  0  0.104489  0.116494  0  1.026691  0
H  H20  1  0.83672021  0.73913606  0.70538012  1  0  0.089761  0  0.934667  0  0  0.097071  0  0.999994  0  0  0.100496  0  0.996482  0  0  0.115131  0.094509  0  1.002712  0
H  H21  1  0.16328247  0.26086320  0.29461400  1  0  0.089771  0  0.934508  0  0  0.097077  0  0.999833  0  0  0.100509  0  0.996316  0  0  0.115119  0.094512  0  1.002558  0
H  H22  1  0.99349803  0.11278065  0.69603877  1  0  0.082695  0  0.963896  0  0  0.086854  0  1.035293  0  0  0.090139  0  1.031862  0  0  0.116157  0.084249  0  1.038227  0
H  H23  1  0.00649710  0.88722139  0.30395414  1  0  0.082694  0  0.963965  0  0  0.086879  0  1.035321  0  0  0.090161  0  1.031897  0  0  0.116169  0.084328  0  1.038198  0
H  H24  1  0.20065645  0.18626592  0.87836987  1  0  0.12588  0  0.975737  0  0  0.126987  0  1.049418  0  0  0.131479  0  1.046164  0  0  0.110664  0.123668  0  1.052028  0
H  H25  1  0.79933429  0.81372594  0.12162764  1  0  0.125822  0  0.975756  0  0  0.12694  0  1.049438  0  0  0.131427  0  1.046201  0  0  0.110656  0.123619  0  1.052049  0
H  H26  1  0.75115889  0.17358772  0.31671938  1  0  0.128965  0  0.940361  0  0  0.139258  0  1.001585  0  0  0.140971  0  1.00228  0  0  0.105141  0.138076  0  1.001106  0
H  H27  1  0.24883569  0.82642026  0.68327216  1  0  0.129025  0  0.94026  0  0  0.139297  0  1.001445  0  0  0.141011  0  1.00214  0  0  0.105152  0.138116  0  1.00097  0
H  H28  1  0.77445025  0.34022107  0.40262639  1  0  0.1487  0  0.934368  0  0  0.160071  0  0.995122  0  0  0.163333  0  0.992852  0  0  0.112949  0.157673  0  0.996961  0
H  H29  1  0.22554425  0.65979059  0.59736964  1  0  0.148767  0  0.934386  0  0  0.160078  0  0.995202  0  0  0.163339  0  0.992936  0  0  0.11295  0.157679  0  0.997044  0
C  C30  1  0.37392263  0.60934928  0.12908784  1  0  0.031041  0  3.823344  0  0  0.04248  0  4.063389  0  0  0.04348  0  4.084539  0  0  0.005518  0.041867  0  4.048941  0
C  C31  1  0.62608734  0.39064660  0.87091878  1  0  0.031134  0  3.823298  0  0  0.042504  0  4.063418  0  0  0.043498  0  4.084585  0  0  0.005548  0.041895  0  4.048966  0
C  C32  1  0.41685294  0.74546457  0.17459974  1  0  -0.130543  0  3.645116  0  0  -0.152459  0  3.894171  0  0  -0.157764  0  3.911794  0  0  -0.079069  -0.148904  0  3.882334  0
C  C33  1  0.58316130  0.25452954  0.82540575  1  0  -0.130602  0  3.644857  0  0  -0.152462  0  3.893911  0  0  -0.157758  0  3.91153  0  0  -0.079017  -0.148907  0  3.882076  0
C  C34  1  0.52557975  0.80952729  0.28166706  1  0  0.147206  0  3.664029  0  0  0.119219  0  3.912454  0  0  0.125864  0  3.929567  0  0  0.053308  0.114878  0  3.900753  0
C  C35  1  0.47442427  0.19047259  0.71833475  1  0  0.147211  0  3.663956  0  0  0.119162  0  3.912508  0  0  0.125805  0  3.929621  0  0  0.053185  0.114817  0  3.900817  0
C  C36  1  0.54556513  0.61517129  0.30096198  1  0  0.122357  0  3.69285  0  0  0.091847  0  3.945805  0  0  0.097962  0  3.963547  0  0  0.039904  0.08782  0  3.933729  0
C  C37  1  0.45443565  0.38482995  0.69904911  1  0  0.122257  0  3.692902  0  0  0.091855  0  3.945819  0  0  0.097971  0  3.963561  0  0  0.039886  0.08783  0  3.93374  0
C  C38  1  0.43942338  0.54353191  0.19464723  1  0  -0.148009  0  3.74112  0  0  -0.172904  0  4.000811  0  0  -0.179443  0  4.022507  0  0  -0.086021  -0.168558  0  3.986316  0
C  C39  1  0.56058540  0.45646398  0.80535850  1  0  -0.148048  0  3.741096  0  0  -0.172922  0  4.000834  0  0  -0.179452  0  4.022514  0  0  -0.086061  -0.168575  0  3.986337  0
C  C40  1  0.26444966  0.53478600  0.01721873  1  0  0.333794  0  3.697992  0  0  0.299249  0  3.983891  0  0  0.3153  0  3.991075  0  0  0.213033  0.288547  0  3.978719  0
C  C41  1  0.73555578  0.46521077  0.98278707  1  0  0.333775  0  3.697869  0  0  0.299198  0  3.983817  0  0  0.315247  0  3.990998  0  0  0.212968  0.288509  0  3.978646  0
C  C42  1  0.09372090  0.49528916  0.85927883  1  0  0.292693  0  3.783197  0  0  0.262789  0  4.099801  0  0  0.281236  0  4.107546  0  0  0.205752  0.250351  0  4.094336  0
C  C43  1  0.90628906  0.50470282  0.14072733  1  0  0.292804  0  3.782913  0  0  0.262869  0  4.099515  0  0  0.28131  0  4.107257  0  0  0.205742  0.250448  0  4.094045  0
C  C44  1  0.90931125  0.37220118  0.64538588  1  0  -0.290971  0  3.585365  0  0  -0.326238  0  3.841189  0  0  -0.33016  0  3.846301  0  0  -0.142591  -0.323611  0  3.837537  0
C  C45  1  0.09068740  0.62779680  0.35461167  1  0  -0.290874  0  3.585539  0  0  -0.326145  0  3.841394  0  0  -0.330069  0  3.84651  0  0  -0.142561  -0.323543  0  3.837771  0
C  C46  1  0.05132275  0.34272086  0.57816510  1  0  0.705332  0  3.862097  0  0  0.654121  0  4.17216  0  0  0.687083  0  4.165691  0  0  0.205767  0.631771  0  4.175677  0
C  C47  1  0.94869249  0.65729165  0.42182677  1  0  0.705242  0  3.861831  0  0  0.653975  0  4.171938  0  0  0.686941  0  4.165468  0  0  0.205622  0.631632  0  4.175459  0
C  C48  1  0.13994151  0.99657509  0.89788636  1  0  0.036066  0  3.81352  0  0  0.048428  0  4.050468  0  0  0.049219  0  4.072022  0  0  0.009181  0.047898  0  4.035656  0
C  C49  1  0.86004852  0.00341819  0.10210253  1  0  0.036045  0  3.813421  0  0  0.048517  0  4.050244  0  0  0.049354  0  4.071729  0  0  0.009176  0.047895  0  4.035561  0
C  C50  1  0.03302347  0.86972579  0.84957110  1  0  -0.150334  0  3.721745  0  0  -0.174266  0  3.97977  0  0  -0.180447  0  4.000645  0  0  -0.083768  -0.170036  0  3.966003  0
C  C51  1  0.96698326  0.13026706  0.15041706  1  0  -0.150543  0  3.722099  0  0  -0.174518  0  3.980095  0  0  -0.180719  0  4.000966  0  0  -0.083767  -0.17027  0  3.966343  0
C  C52  1  0.92059815  0.83687660  0.74672347  1  0  0.122477  0  3.698014  0  0  0.090303  0  3.956813  0  0  0.096694  0  3.973824  0  0  0.041273  0.086077  0  3.945369  0
C  C53  1  0.07939896  0.16311616  0.25326077  1  0  0.122365  0  3.698133  0  0  0.090246  0  3.956919  0  0  0.096632  0  3.973943  0  0  0.041189  0.086022  0  3.945461  0
C  C54  1  0.00666511  0.04448280  0.74030080  1  0  0.150127  0  3.669986  0  0  0.121612  0  3.920134  0  0  0.128755  0  3.935642  0  0  0.054044  0.116825  0  3.910065  0
C  C55  1  0.99332213  0.95551706  0.25969171  1  0  0.150058  0  3.670046  0  0  0.121562  0  3.920233  0  0  0.128708  0  3.935739  0  0  0.054032  0.116734  0  3.910133  0
C  C56  1  0.12386154  0.08597564  0.84262169  1  0  -0.128279  0  3.654201  0  0  -0.15105  0  3.903367  0  0  -0.156447  0  3.921939  0  0  -0.077417  -0.147383  0  3.891057  0
C  C57  1  0.87611760  0.91402541  0.15738056  1  0  -0.128165  0  3.654302  0  0  -0.150987  0  3.903471  0  0  -0.1564  0  3.922025  0  0  -0.077467  -0.147296  0  3.891204  0
C  C58  1  0.26490326  0.03237675  0.00153239  1  0  0.328654  0  3.719734  0  0  0.29605  0  4.00315  0  0  0.31156  0  4.011883  0  0  0.21298  0.285776  0  3.996891  0
C  C59  1  0.73508946  0.96762138  0.99845908  1  0  0.328749  0  3.719635  0  0  0.296067  0  4.003103  0  0  0.311571  0  4.011815  0  0  0.213002  0.285822  0  3.996856  0
C  C60  1  0.47036282  0.15355879  0.14006711  1  0  0.305733  0  3.76321  0  0  0.276995  0  4.077351  0  0  0.295934  0  4.08413  0  0  0.210343  0.264296  0  4.072553  0
C  C61  1  0.52963512  0.84644060  0.85992183  1  0  0.305592  0  3.763578  0  0  0.276921  0  4.077596  0  0  0.29586  0  4.084376  0  0  0.210349  0.264219  0  4.072803  0
C  C62  1  0.68522701  0.24868605  0.34420111  1  0  -0.301732  0  3.604973  0  0  -0.330914  0  3.85711  0  0  -0.335608  0  3.861846  0  0  -0.145519  -0.327882  0  3.854048  0
C  C63  1  0.31476778  0.75131878  0.65579434  1  0  -0.301973  0  3.604929  0  0  -0.330993  0  3.856891  0  0  -0.33569  0  3.861629  0  0  -0.145529  -0.327961  0  3.853829  0
C  C64  1  0.54361363  0.20466637  0.40590726  1  0  0.696229  0  3.890177  0  0  0.643261  0  4.197698  0  0  0.67681  0  4.191661  0  0  0.201546  0.620534  0  4.200916  0
C  C65  1  0.45638209  0.79533371  0.59408587  1  0  0.696469  0  3.889907  0  0  0.643409  0  4.197496  0  0  0.67696  0  4.191456  0  0  0.201589  0.620684  0  4.200714  0
S  S66  1  0.97061148  0.53026719  0.75946498  1  0  0.076568  0  2.460719  0  0  0.070231  0  2.805501  0  0  0.065042  0  2.804129  0  0  0.079172  0.074145  0  2.806835  0
S  S67  1  0.02938909  0.46972968  0.24055451  1  0  0.076607  0  2.460674  0  0  0.070255  0  2.805446  0  0  0.065068  0  2.804076  0  0  0.079254  0.074177  0  2.806782  0
S  S68  1  0.62036712  0.29439007  0.22181206  1  0  0.083765  0  2.49086  0  0  0.06761  0  2.847846  0  0  0.064392  0  2.844536  0  0  0.071476  0.069751  0  2.85047  0
S  S69  1  0.37963073  0.70561300  0.77818136  1  0  0.083827  0  2.49103  0  0  0.067616  0  2.847915  0  0  0.064396  0  2.844606  0  0  0.071476  0.069758  0  2.850541  0
N  N70  1  0.58983332  0.74644672  0.34400089  1  0  -0.318043  0  3.235938  0  0  -0.241564  0  3.498488  0  0  -0.258883  0  3.514734  0  0  -0.314921  -0.229808  0  3.487367  0
N  N71  1  0.41016663  0.25355564  0.65600722  1  0  -0.317867  0  3.235925  0  0  -0.241406  0  3.498447  0  0  -0.258725  0  3.514696  0  0  -0.314847  -0.229649  0  3.487325  0
N  N72  1  0.23359827  0.41074383  0.95716627  1  0  -0.251544  0  2.907798  0  0  -0.234356  0  3.195929  0  0  -0.241996  0  3.207317  0  0  -0.216786  -0.228825  0  3.188205  0
N  N73  1  0.76641195  0.58925679  0.04284356  1  0  -0.251496  0  2.907639  0  0  -0.234292  0  3.195748  0  0  -0.241935  0  3.207142  0  0  -0.216727  -0.22876  0  3.188027  0
N  N74  1  0.12316761  0.38418237  0.85453384  1  0  -0.270557  0  2.905349  0  0  -0.252087  0  3.19289  0  0  -0.262833  0  3.20627  0  0  -0.229906  -0.244827  0  3.18396  0
N  N75  1  0.87684568  0.61581259  0.14547351  1  0  -0.270653  0  2.905282  0  0  -0.252189  0  3.192844  0  0  -0.262935  0  3.206224  0  0  -0.229976  -0.244928  0  3.183908  0
N  N76  1  0.90805165  0.92198045  0.69143474  1  0  -0.319515  0  3.221605  0  0  -0.245045  0  3.485082  0  0  -0.261542  0  3.500244  0  0  -0.314161  -0.233853  0  3.474705  0
N  N77  1  0.09193184  0.07802290  0.30856362  1  0  -0.319303  0  3.221468  0  0  -0.244911  0  3.484967  0  0  -0.261406  0  3.500128  0  0  -0.314045  -0.233721  0  3.474602  0
N  N78  1  0.30097271  0.96044835  0.06073496  1  0  -0.251426  0  2.9053  0  0  -0.237018  0  3.196083  0  0  -0.24467  0  3.207834  0  0  -0.216351  -0.231609  0  3.188129  0
N  N79  1  0.69901998  0.03954968  0.93925813  1  0  -0.251543  0  2.905265  0  0  -0.237137  0  3.196083  0  0  -0.244792  0  3.207835  0  0  -0.216434  -0.231727  0  3.188126  0
N  N80  1  0.43448482  0.03816438  0.15070934  1  0  -0.274653  0  2.897542  0  0  -0.256392  0  3.185898  0  0  -0.267827  0  3.199605  0  0  -0.231249  -0.248666  0  3.176349  0
N  N81  1  0.56551189  0.96183494  0.84928031  1  0  -0.274442  0  2.897347  0  0  -0.256204  0  3.185677  0  0  -0.267639  0  3.199383  0  0  -0.231161  -0.248479  0  3.176135  0
O  O82  1  0.05459331  0.22203624  0.54862840  1  0  -0.682651  0  2.10837  0  0  -0.598835  0  2.369591  0  0  -0.630535  0  2.356804  0  0  -0.319  -0.576509  0  2.377594  0
O  O83  1  0.94541652  0.77796291  0.45137188  1  0  -0.68255  0  2.108525  0  0  -0.598645  0  2.369709  0  0  -0.630343  0  2.356921  0  0  -0.318969  -0.576312  0  2.377686  0
O  O84  1  0.14897919  0.42964039  0.55583896  1  0  -0.597452  0  1.896308  0  0  -0.556138  0  2.1174  0  0  -0.577845  0  2.109164  0  0  -0.319495  -0.540976  0  2.122497  0
O  O85  1  0.85101787  0.57036054  0.44417589  1  0  -0.59766  0  1.895685  0  0  -0.55631  0  2.116732  0  0  -0.578028  0  2.108503  0  0  -0.319509  -0.54113  0  2.121806  0
O  O86  1  0.17826267  0.59558608  0.95988003  1  0  -0.257514  0  2.304364  0  0  -0.187985  0  2.528645  0  0  -0.204541  0  2.52909  0  0  -0.105224  -0.176997  0  2.528622  0
O  O87  1  0.82174128  0.40440973  0.04012453  1  0  -0.257598  0  2.30445  0  0  -0.187974  0  2.528639  0  0  -0.204509  0  2.529066  0  0  -0.105198  -0.177027  0  2.528645  0
O  O88  1  0.55326485  0.11912178  0.45081054  1  0  -0.626856  0  2.001967  0  0  -0.56441  0  2.22907  0  0  -0.591133  0  2.220371  0  0  -0.306528  -0.545658  0  2.234533  0
O  O89  1  0.44674706  0.88088413  0.54919292  1  0  -0.626918  0  2.00189  0  0  -0.564518  0  2.229083  0  0  -0.591247  0  2.220379  0  0  -0.306568  -0.545768  0  2.234548  0
O  O90  1  0.42338461  0.25722858  0.41055302  1  0  -0.640371  0  2.036426  0  0  -0.578011  0  2.298398  0  0  -0.606743  0  2.287055  0  0  -0.320602  -0.557964  0  2.305473  0
O  O91  1  0.57661192  0.74276255  0.58944297  1  0  -0.64047  0  2.036203  0  0  -0.578089  0  2.29821  0  0  -0.606814  0  2.286847  0  0  -0.320616  -0.558041  0  2.305283  0
O  O92  1  0.36829441  0.15776840  0.04751050  1  0  -0.250888  0  2.287199  0  0  -0.179169  0  2.50648  0  0  -0.195575  0  2.506292  0  0  -0.102406  -0.168211  0  2.506794  0
O  O93  1  0.63169403  0.84223145  0.95248291  1  0  -0.250897  0  2.287399  0  0  -0.179178  0  2.506658  0  0  -0.195588  0  2.506472  0  0  -0.102403  -0.168219  0  2.506967  0
O  O94  1  0.20945698  0.97908866  0.49984599  1  0  -0.862642  0  1.924975  0  0  -0.797043  0  2.156805  0  0  -0.819421  0  2.117839  0  0  -0.590635  -0.781158  0  2.183804  0
O  O95  1  0.79054711  0.02091524  0.50015385  1  0  -0.862705  0  1.924887  0  0  -0.797053  0  2.15681  0  0  -0.819446  0  2.117878  0  0  -0.590677  -0.781165  0  2.183801  0
