# generated using pymatgen
data_CuH24C26(NO3)2
_symmetry_space_group_name_H-M   'P 1'
_cell_length_a   9.56950139
_cell_length_b   10.65289135
_cell_length_c   12.21222075
_cell_angle_alpha   110.24074702
_cell_angle_beta   89.99911964
_cell_angle_gamma   90.00042401
_symmetry_Int_Tables_number   1
_chemical_formula_structural   CuH24C26(NO3)2
_chemical_formula_sum   'Cu2 H48 C52 N4 O12'
_cell_volume   1168.06964899
_cell_formula_units_Z   2
loop_
 _symmetry_equiv_pos_site_id
 _symmetry_equiv_pos_as_xyz
  1  'x, y, z'
loop_
 _atom_site_type_symbol
 _atom_site_label
 _atom_site_symmetry_multiplicity
 _atom_site_fract_x
 _atom_site_fract_y
 _atom_site_fract_z
 _atom_site_occupancy
 _atom_site_hle17_ddec_charge
 _atom_site_hle17_ddec_spin_density
 _atom_site_hle17_ddec_sum_bond_order
 _atom_site_hle17_magmom
 _atom_site_hse06_10hf_ddec_charge
 _atom_site_hse06_10hf_ddec_spin_density
 _atom_site_hse06_10hf_ddec_sum_bond_order
 _atom_site_hse06_10hf_magmom
 _atom_site_hse06_ddec_charge
 _atom_site_hse06_ddec_spin_density
 _atom_site_hse06_ddec_sum_bond_order
 _atom_site_hse06_magmom
 _atom_site_pbe_cm5_charge
 _atom_site_pbe_ddec_charge
 _atom_site_pbe_ddec_spin_density
 _atom_site_pbe_ddec_sum_bond_order
 _atom_site_pbe_magmom
Cu  Cu0  1  0.99999773  0.50000049  0.00000104  1  0.839076  -0.726523  1.809345  -0.492  0.813399  -0.802262  2.19385  -0.607  0.904768  -0.882687  2.127406  -0.694  0.738884  0.759706  -0.74591  2.238508  -0.552
Cu  Cu1  1  0.49999945  0.99999894  0.99999921  1  0.838861  0.726401  1.809165  0.492  0.813482  0.802267  2.193767  0.607  0.904828  0.882685  2.12723  0.694  0.738916  0.7598  0.745918  2.238375  0.552
H  H2  1  0.10001498  0.34518009  0.10726195  1  0.370954  0.000128  0.935345  0.0  0.340916  0.000107  1.017064  0.0  0.353053  0.000121  1.004505  0.0  0.289338  0.332288  8.6e-05  1.025893  0.0
H  H3  1  0.60001269  0.15481969  0.89274086  1  0.370983  -0.000127  0.935361  0.0  0.340951  -0.000107  1.017069  0.0  0.353087  -0.000121  1.004511  0.0  0.289352  0.332321  -8.6e-05  1.0259  0.0
H  H4  1  0.89998544  0.65481740  0.89273545  1  0.370921  0.000127  0.935385  0.0  0.340882  0.000107  1.017102  0.0  0.35302  0.000121  1.004542  0.0  0.289325  0.332252  8.6e-05  1.025933  0.0
H  H5  1  0.39998251  0.84518180  0.10726021  1  0.370942  -0.000129  0.935387  0.0  0.340896  -0.000107  1.017121  0.0  0.353032  -0.000121  1.004564  0.0  0.289327  0.332266  -8.6e-05  1.025956  0.0
H  H6  1  0.28747347  0.70278512  0.31823786  1  0.114162  -0.000563  0.923704  -0.001  0.131412  -0.000409  0.979705  -0.001  0.132832  -0.000244  0.97926  0.0  0.106774  0.130353  -0.000588  0.9801  -0.001
H  H7  1  0.78747857  0.79722384  0.68176290  1  0.114157  0.000555  0.923706  0.001  0.131404  0.000409  0.97971  0.001  0.132823  0.000244  0.979265  0.0  0.106763  0.13034  0.000588  0.980106  0.001
H  H8  1  0.71252486  0.29721337  0.68176230  1  0.11414  -0.000559  0.923761  -0.001  0.131401  -0.000409  0.979745  -0.001  0.132823  -0.000244  0.9793  0.0  0.106778  0.130338  -0.000588  0.980141  -0.001
H  H9  1  0.21252498  0.20278466  0.31824191  1  0.114108  0.000565  0.92366  0.001  0.131373  0.000409  0.979641  0.001  0.132794  0.000244  0.979195  0.0  0.106768  0.130312  0.000588  0.980036  0.001
H  H10  1  0.11670381  0.76787752  0.35022072  1  0.116072  0.000308  0.92558  0.0  0.131165  -9.1e-05  0.982189  0.0  0.133803  -5.4e-05  0.980568  0.0  0.103695  0.129145  -0.000108  0.98371  0.0
H  H11  1  0.61671110  0.73212607  0.64978130  1  0.116012  -0.000312  0.925533  0.0  0.131107  9.1e-05  0.98215  0.0  0.133743  5.4e-05  0.980528  0.0  0.10366  0.129083  0.000108  0.983668  0.0
H  H12  1  0.88329452  0.23211997  0.64977833  1  0.116076  0.000314  0.925533  0.0  0.131158  -9.1e-05  0.982166  0.0  0.133799  -5.4e-05  0.980543  0.0  0.103691  0.129133  -0.000108  0.983688  0.0
H  H13  1  0.38329350  0.26787842  0.35022230  1  0.116042  -0.00031  0.925542  0.0  0.131111  9.1e-05  0.982182  0.0  0.13375  5.4e-05  0.980559  0.0  0.103679  0.129089  0.000108  0.983699  0.0
H  H14  1  0.97423379  0.72291138  0.49811338  1  0.084351  0.000161  0.974014  0.0  0.094521  2.4e-05  1.039533  0.0  0.096576  1.7e-05  1.040245  0.0  0.094909  0.092908  3e-05  1.039483  0.0
H  H15  1  0.47423823  0.77709201  0.50189165  1  0.084368  -0.000168  0.974046  0.0  0.094531  -2.4e-05  1.039575  0.0  0.096585  -1.7e-05  1.04029  0.0  0.094876  0.092914  -3e-05  1.039529  0.0
H  H16  1  0.02576558  0.27708911  0.50188575  1  0.084322  0.000165  0.973999  0.0  0.094515  2.3e-05  1.039498  0.0  0.096564  1.7e-05  1.040218  0.0  0.094908  0.092896  3e-05  1.039451  0.0
H  H17  1  0.52576846  0.22290648  0.49810688  1  0.084332  -0.000172  0.973932  0.0  0.094487  -2.4e-05  1.039492  0.0  0.096543  -1.7e-05  1.040204  0.0  0.094859  0.092867  -3e-05  1.039446  0.0
H  H18  1  0.96566290  0.65445996  0.67369992  1  0.083922  -5.2e-05  0.971786  0.0  0.093097  1.5e-05  1.035867  0.0  0.096012  6e-06  1.034321  0.0  0.095349  0.090972  4e-05  1.037212  0.0
H  H19  1  0.46566612  0.84553741  0.32630340  1  0.083953  5.5e-05  0.971711  0.0  0.093083  -1.5e-05  1.035845  0.0  0.096  -6e-06  1.034296  0.0  0.095328  0.090954  -4e-05  1.037196  0.0
H  H20  1  0.03433752  0.34554254  0.32630145  1  0.083967  -5.4e-05  0.9718  0.0  0.093132  1.5e-05  1.035881  0.0  0.096048  6e-06  1.034335  0.0  0.095372  0.091002  4e-05  1.037233  0.0
H  H21  1  0.53434161  0.15445608  0.67369280  1  0.083924  5.8e-05  0.971841  0.0  0.093088  -1.5e-05  1.035951  0.0  0.096004  -6e-06  1.0344  0.0  0.095343  0.090958  -4e-05  1.037302  0.0
H  H22  1  0.16851173  0.54034599  0.72401025  1  0.086174  0.000297  0.972567  0.0  0.096261  6.1e-05  1.034446  0.0  0.098209  5.9e-05  1.035093  0.0  0.094546  0.095005  5.9e-05  1.033786  0.0
H  H23  1  0.66851778  0.95964971  0.27598468  1  0.086167  -0.000296  0.972607  0.0  0.09629  -6.1e-05  1.034435  0.0  0.098236  -5.9e-05  1.035084  0.0  0.09457  0.095037  -5.9e-05  1.033773  0.0
H  H24  1  0.83148973  0.45965850  0.27599007  1  0.086198  0.000297  0.972493  0.0  0.096282  6.1e-05  1.034379  0.0  0.098231  5.9e-05  1.035026  0.0  0.094547  0.095025  5.9e-05  1.033727  0.0
H  H25  1  0.33149414  0.04034278  0.72401122  1  0.086248  -0.000294  0.972503  0.0  0.096333  -6.1e-05  1.034371  0.0  0.09828  -6e-05  1.035018  0.0  0.094575  0.095076  -5.9e-05  1.033719  0.0
H  H26  1  0.37489135  0.48120715  0.59227173  1  0.076741  -6.8e-05  0.973199  0.0  0.086559  -9e-06  1.037848  0.0  0.088602  -8e-06  1.037813  0.0  0.092944  0.084848  -2e-06  1.038455  0.0
H  H27  1  0.87490164  0.01878719  0.40771632  1  0.076732  6.8e-05  0.973292  0.0  0.086537  9e-06  1.037932  0.0  0.088597  8e-06  1.037882  0.0  0.092917  0.084828  2e-06  1.038531  0.0
H  H28  1  0.62510698  0.51879434  0.40772852  1  0.076717  -7.3e-05  0.973191  0.0  0.086543  -9e-06  1.037829  0.0  0.088585  -8e-06  1.037794  0.0  0.092932  0.084828  -2e-06  1.038442  0.0
H  H29  1  0.12510923  0.98120730  0.59228182  1  0.07673  6e-05  0.973293  0.0  0.086577  9e-06  1.037887  0.0  0.088628  8e-06  1.037843  0.0  0.092928  0.084862  2e-06  1.038499  0.0
H  H30  1  0.38028549  0.54306793  0.41327450  1  0.082921  0.000167  0.960856  0.0  0.094977  5e-06  1.023532  0.0  0.097805  4e-06  1.021808  0.0  0.096011  0.092744  5e-06  1.025408  0.0
H  H31  1  0.88029273  0.95693522  0.58671849  1  0.082943  -0.000161  0.960931  0.0  0.095037  -5e-06  1.023549  0.0  0.097866  -4e-06  1.021822  0.0  0.096041  0.092803  -5e-06  1.025421  0.0
H  H32  1  0.61971075  0.45692956  0.58672291  1  0.082887  0.000162  0.960901  0.0  0.094975  5e-06  1.02354  0.0  0.097803  4e-06  1.021814  0.0  0.096009  0.092739  5e-06  1.025413  0.0
H  H33  1  0.11971082  0.04307028  0.41328624  1  0.083041  -0.000162  0.960831  0.0  0.095101  -5e-06  1.023485  0.0  0.09793  -4e-06  1.021759  0.0  0.096069  0.092862  -5e-06  1.025363  0.0
H  H34  1  0.29655995  0.21202033  0.07943094  1  0.107796  0.000998  0.953608  0.002  0.115613  0.000807  1.016199  0.001  0.118679  0.000583  1.013579  0.001  0.121276  0.113284  0.000988  1.018312  0.002
H  H35  1  0.79655716  0.28797886  0.92056852  1  0.107806  -0.001005  0.953692  -0.002  0.11562  -0.000807  1.016289  -0.001  0.118687  -0.000583  1.013668  -0.001  0.121262  0.113289  -0.000988  1.018403  -0.002
H  H36  1  0.70344256  0.78797915  0.92056461  1  0.107847  0.001005  0.953583  0.002  0.115642  0.000807  1.01621  0.001  0.118708  0.000583  1.01359  0.001  0.121241  0.113314  0.000988  1.01832  0.002
H  H37  1  0.20343594  0.71202362  0.07943039  1  0.107775  -0.001  0.95364  -0.002  0.115587  -0.000806  1.016252  -0.001  0.118654  -0.000583  1.01363  -0.001  0.121271  0.113257  -0.000988  1.01837  -0.002
H  H38  1  0.92682278  0.08455790  0.86680333  1  0.124463  0.000307  0.941285  0.001  0.134545  -2e-06  1.000584  0.0  0.138314  -2.8e-05  0.997813  0.0  0.110104  0.131655  2.2e-05  1.003077  0.0
H  H39  1  0.42681470  0.41544258  0.13319658  1  0.124435  -0.000304  0.941182  -0.001  0.134522  2e-06  1.000492  0.0  0.138293  2.8e-05  0.997716  0.0  0.110109  0.13163  -2.2e-05  1.002989  0.0
H  H40  1  0.07317554  0.91543860  0.13319787  1  0.124457  0.000308  0.941267  0.001  0.134531  -2e-06  1.000574  0.0  0.1383  -2.8e-05  0.997802  0.0  0.110097  0.131647  2.2e-05  1.003066  0.0
H  H41  1  0.57318050  0.58455791  0.86680582  1  0.124495  -0.000301  0.941322  -0.001  0.134572  2e-06  1.000623  0.0  0.13834  2.8e-05  0.997856  0.0  0.110119  0.131685  -2.2e-05  1.003112  0.0
H  H42  1  0.05067476  0.86714623  0.76513200  1  0.091973  0.000714  0.98205  0.001  0.10221  0.000586  1.043905  0.001  0.104593  0.000417  1.043867  0.0  0.102437  0.100248  0.000762  1.044388  0.001
H  H43  1  0.55066953  0.63285321  0.23486711  1  0.09203  -0.000713  0.982032  -0.001  0.102267  -0.000586  1.043874  -0.001  0.104647  -0.000417  1.043838  0.0  0.102469  0.100302  -0.000762  1.044357  -0.001
H  H44  1  0.94932147  0.13284926  0.23486972  1  0.092021  0.000721  0.981982  0.001  0.102249  0.000586  1.043844  0.001  0.104631  0.000417  1.043806  0.0  0.10244  0.100285  0.000762  1.044329  0.001
H  H45  1  0.44932671  0.36714728  0.76513284  1  0.092011  -0.000712  0.982032  -0.001  0.102249  -0.000586  1.043874  -0.001  0.10463  -0.000416  1.043839  0.0  0.102449  0.100284  -0.000762  1.044357  -0.001
H  H46  1  0.29175868  0.83247590  0.82674464  1  0.091695  0.00088  0.943811  0.002  0.097961  0.000699  1.010373  0.001  0.100511  0.000505  1.008285  0.001  0.117039  0.095917  0.000843  1.012106  0.002
H  H47  1  0.79175807  0.66752408  0.17325746  1  0.091698  -0.000874  0.943798  -0.002  0.097951  -0.0007  1.010383  -0.001  0.100511  -0.000505  1.008268  -0.001  0.117031  0.095906  -0.000843  1.012115  -0.002
H  H48  1  0.70823860  0.16752059  0.17325492  1  0.091757  0.000876  0.943793  0.002  0.097949  0.000699  1.010424  0.001  0.100499  0.000505  1.008338  0.001  0.11705  0.095906  0.000843  1.012156  0.002
H  H49  1  0.20823817  0.33247741  0.82674114  1  0.091692  -0.000874  0.943811  -0.002  0.097942  -0.0007  1.010391  -0.001  0.100505  -0.000505  1.00827  -0.001  0.117021  0.095895  -0.000843  1.01212  -0.002
C  C50  1  0.12958365  0.56767713  0.22820211  1  0.704005  0.003566  3.805421  0.007  0.664258  -0.000442  4.109445  0.002  0.70078  0.000192  4.10228  0.002  0.220421  0.639801  -0.001051  4.113067  0.002
C  C51  1  0.62958287  0.93232049  0.77179878  1  0.704011  -0.00357  3.805472  -0.007  0.664186  0.000438  4.109595  -0.002  0.700704  -0.000192  4.102432  -0.002  0.220388  0.639727  0.001051  4.113215  -0.002
C  C52  1  0.87041677  0.43232136  0.77179642  1  0.703945  0.003569  3.805503  0.007  0.664133  -0.000441  4.109632  0.002  0.700656  0.000191  4.102465  0.002  0.220375  0.639678  -0.001051  4.113245  0.002
C  C53  1  0.37041755  0.06768200  0.22820258  1  0.703982  -0.003566  3.805483  -0.007  0.664136  0.000441  4.109625  -0.002  0.700656  -0.000194  4.102461  -0.002  0.220375  0.639681  0.001051  4.113246  -0.002
C  C54  1  0.18055956  0.67868311  0.33803170  1  -0.299975  -0.010677  3.688606  -0.011  -0.345377  -0.00649  3.928411  -0.007  -0.351181  -0.004495  3.935476  -0.005  -0.155643  -0.34109  -0.007835  3.923296  -0.008
C  C55  1  0.68056421  0.82132163  0.66196908  1  -0.299966  0.010718  3.688564  0.011  -0.345366  0.006494  3.928408  0.007  -0.35116  0.004494  3.935459  0.005  -0.155648  -0.341078  0.007835  3.923289  0.008
C  C56  1  0.81943773  0.32131538  0.66196765  1  -0.299857  -0.0107  3.688672  -0.011  -0.345263  -0.006492  3.928499  -0.007  -0.351071  -0.004495  3.935565  -0.005  -0.155582  -0.340975  -0.007835  3.923379  -0.008
C  C57  1  0.31943935  0.17868187  0.33803341  1  -0.299845  0.010695  3.688545  0.011  -0.345198  0.006491  3.928338  0.007  -0.351  0.004496  3.935395  0.005  -0.155597  -0.340911  0.007835  3.923218  0.008
C  C58  1  0.17947469  0.64059734  0.44572091  1  0.115505  0.000595  3.764457  0.001  0.137273  0.000152  3.997236  0.0  0.137655  0.000402  4.022666  0.001  -0.011454  0.136787  -0.000187  3.980078  0.0
C  C59  1  0.67948072  0.85940738  0.55427823  1  0.115729  -0.000591  3.764487  -0.001  0.137513  -0.00015  3.997238  0.0  0.137898  -0.000409  4.022662  -0.001  -0.011334  0.137028  0.000187  3.980076  0.0
C  C60  1  0.82052364  0.35939915  0.55427865  1  0.115502  0.000579  3.764395  0.001  0.137315  0.00015  3.997138  0.0  0.137701  0.000406  4.022563  0.001  -0.011439  0.136831  -0.000187  3.979974  0.0
C  C61  1  0.32052596  0.14059611  0.44572343  1  0.115528  -0.000595  3.764468  -0.001  0.137283  -0.000152  3.997227  0.0  0.137667  -0.000404  4.022653  -0.001  -0.011406  0.136794  0.000187  3.980065  0.0
C  C62  1  0.06312007  0.67174806  0.51989362  1  -0.129369  -0.004173  3.748867  -0.004  -0.148571  -0.000869  3.992436  -0.001  -0.152526  -0.000646  4.015907  -0.001  -0.094999  -0.145561  -0.001131  3.976769  -0.001
C  C63  1  0.56312521  0.82825542  0.48011065  1  -0.129479  0.004191  3.74902  0.004  -0.148683  0.000866  3.992546  0.001  -0.152641  0.000653  4.016015  0.001  -0.095051  -0.145672  0.001131  3.976878  0.001
C  C64  1  0.93687722  0.32825243  0.48010633  1  -0.129388  -0.004175  3.748891  -0.004  -0.148631  -0.000867  3.992447  -0.001  -0.152585  -0.00065  4.015917  -0.001  -0.095077  -0.14562  -0.001131  3.976778  -0.001
C  C65  1  0.43688043  0.17174607  0.51988959  1  -0.12928  0.004212  3.748727  0.004  -0.148471  0.000869  3.992285  0.001  -0.15243  0.000648  4.015755  0.001  -0.094992  -0.145458  0.001131  3.976611  0.001
C  C66  1  0.05879897  0.63501252  0.61893086  1  -0.070702  0.003187  3.799258  0.003  -0.082684  0.000405  4.050024  0.0  -0.084363  0.000418  4.072101  0.0  -0.095537  -0.081209  0.000464  4.034696  0.001
C  C67  1  0.55880531  0.86499195  0.38107212  1  -0.070707  -0.003182  3.799263  -0.003  -0.082643  -0.000402  4.050012  0.0  -0.084323  -0.000423  4.072089  0.0  -0.095506  -0.081162  -0.000464  4.034684  -0.001
C  C68  1  0.94120040  0.36499097  0.38106999  1  -0.070768  0.003182  3.799342  0.003  -0.082745  0.000404  4.050116  0.0  -0.084424  0.000421  4.072193  0.0  -0.095536  -0.081267  0.000464  4.034791  0.001
C  C69  1  0.44120451  0.13500754  0.61892916  1  -0.070771  -0.003199  3.799291  -0.003  -0.082777  -0.000404  4.050088  0.0  -0.084453  -0.000419  4.072163  0.0  -0.095553  -0.081294  -0.000464  4.034754  -0.001
C  C70  1  0.17172908  0.56833690  0.64629030  1  -0.072393  -0.007143  3.766906  -0.006  -0.088813  -0.001364  4.015806  -0.001  -0.091534  -0.000879  4.038703  -0.001  -0.097579  -0.086565  -0.001968  3.999254  -0.002
C  C71  1  0.67173128  0.93166181  0.35370795  1  -0.072369  0.007121  3.766974  0.006  -0.088838  0.001362  4.015888  0.001  -0.091559  0.000884  4.038793  0.001  -0.097537  -0.086595  0.001968  3.999346  0.002
C  C72  1  0.82827030  0.43166459  0.35371158  1  -0.072376  -0.007134  3.766944  -0.006  -0.088794  -0.001362  4.015827  -0.001  -0.091515  -0.000883  4.038725  -0.001  -0.097569  -0.086549  -0.001968  3.999284  -0.002
C  C73  1  0.32827436  0.06833468  0.64629243  1  -0.072446  0.007111  3.766899  0.006  -0.088859  0.001363  4.015795  0.001  -0.091582  0.00088  4.038697  0.001  -0.097578  -0.086617  0.001968  3.999252  0.002
C  C74  1  0.28761763  0.53550894  0.57228227  1  -0.074151  0.003241  3.797382  0.003  -0.083791  0.000388  4.043654  0.0  -0.085853  0.000413  4.066965  0.0  -0.096465  -0.081894  0.00038  4.02768  0.0
C  C75  1  0.78762178  0.96449001  0.42770975  1  -0.074164  -0.003212  3.797439  -0.003  -0.083768  -0.000387  4.043722  0.0  -0.085848  -0.000418  4.067031  0.0  -0.096498  -0.081873  -0.000379  4.027759  0.0
C  C76  1  0.71238174  0.46449055  0.42771655  1  -0.074133  0.003235  3.797417  0.003  -0.083776  0.000387  4.043701  0.0  -0.08584  0.000417  4.067018  0.0  -0.096481  -0.081883  0.00038  4.027731  0.0
C  C77  1  0.21238177  0.03550848  0.57228878  1  -0.074144  -0.003185  3.797426  -0.003  -0.083795  -0.000387  4.043698  0.0  -0.085868  -0.000414  4.067012  0.0  -0.096485  -0.081901  -0.000379  4.02773  0.0
C  C78  1  0.29083418  0.57065040  0.47222032  1  -0.127569  -0.00531  3.758076  -0.005  -0.148846  -0.001288  4.005018  -0.001  -0.151709  -0.000895  4.026444  -0.001  -0.09627  -0.147043  -0.001708  3.990984  -0.002
C  C79  1  0.79084026  0.92935256  0.52777369  1  -0.127667  0.005274  3.758263  0.005  -0.148991  0.001287  4.005189  0.001  -0.151858  0.0009  4.026627  0.001  -0.096285  -0.147183  0.001708  3.991151  0.002
C  C80  1  0.70916206  0.42934808  0.52777657  1  -0.127551  -0.005275  3.757986  -0.005  -0.148862  -0.001287  4.004912  -0.001  -0.151727  -0.000898  4.026341  -0.001  -0.096261  -0.147054  -0.001709  3.990868  -0.002
C  C81  1  0.20916538  0.07065193  0.47222746  1  -0.127729  0.005274  3.758085  0.005  -0.149015  0.001288  4.005032  0.001  -0.151881  0.000896  4.026463  0.001  -0.096316  -0.147206  0.001708  3.990994  0.002
C  C82  1  0.23800659  0.13810444  0.01063395  1  -0.022439  -0.00721  3.673034  -0.008  -0.056391  -0.00074  3.92631  -0.002  -0.051957  -0.001786  3.945081  -0.003  0.023216  -0.059329  0.000103  3.914826  -0.001
C  C83  1  0.73800828  0.36189263  0.98936557  1  -0.022515  0.007237  3.672957  0.008  -0.056528  0.000742  3.92624  0.002  -0.05208  0.001787  3.945012  0.003  0.023187  -0.059466  -0.000103  3.914746  0.001
C  C84  1  0.76199069  0.86189404  0.98936211  1  -0.022444  -0.007244  3.672933  -0.008  -0.056385  -0.000743  3.926211  -0.002  -0.051947  -0.001785  3.944983  -0.003  0.023244  -0.05932  0.000103  3.914721  -0.001
C  C85  1  0.26198900  0.63810986  0.01063416  1  -0.022323  0.007213  3.672865  0.008  -0.056321  0.000741  3.926162  0.002  -0.051879  0.001787  3.944923  0.003  0.023212  -0.059263  -0.000102  3.914686  0.001
C  C86  1  0.10195978  0.16538852  0.98256773  1  0.30324  0.00935  3.851133  0.01  0.304101  0.003593  4.103609  0.004  0.311121  0.003275  4.121831  0.004  0.088205  0.299074  0.00383  4.091251  0.005
C  C87  1  0.60195211  0.33461225  0.01743454  1  0.303314  -0.009336  3.851279  -0.01  0.304283  -0.003591  4.103621  -0.004  0.311275  -0.003276  4.121876  -0.004  0.088287  0.299268  -0.00383  4.091245  -0.005
C  C88  1  0.89804169  0.83460996  0.01743080  1  0.303333  0.009345  3.851271  0.01  0.304182  0.003593  4.103725  0.004  0.311196  0.003274  4.121958  0.004  0.088238  0.299151  0.003831  4.091373  0.005
C  C89  1  0.39803995  0.66538924  0.98256816  1  0.303208  -0.009336  3.851273  -0.01  0.30414  -0.003592  4.103655  -0.004  0.311158  -0.003277  4.121875  -0.004  0.088217  0.299114  -0.00383  4.091297  -0.005
C  C90  1  0.03268393  0.06708684  0.89135208  1  -0.133824  -0.009756  3.67838  -0.009  -0.15747  -0.002834  3.922436  -0.003  -0.157404  -0.003154  3.939134  -0.003  -0.082293  -0.157694  -0.00257  3.911494  -0.002
C  C91  1  0.53268259  0.43291278  0.10864658  1  -0.133855  0.009726  3.678586  0.009  -0.157526  0.002831  3.922617  0.003  -0.157454  0.003156  3.939327  0.003  -0.082377  -0.157753  0.002569  3.911672  0.002
C  C92  1  0.96731231  0.93291065  0.10864696  1  -0.133924  -0.009745  3.678505  -0.009  -0.157542  -0.002835  3.922542  -0.003  -0.157475  -0.003152  3.939243  -0.003  -0.082337  -0.157771  -0.002569  3.911607  -0.002
C  C93  1  0.46731992  0.56708972  0.89135642  1  -0.133873  0.009726  3.678579  0.009  -0.157509  0.002832  3.922582  0.003  -0.157444  0.003158  3.93928  0.003  -0.082338  -0.157742  0.00257  3.911641  0.002
C  C94  1  0.10082957  0.94671866  0.83552316  1  -0.090386  0.010622  3.779203  0.011  -0.100786  0.003958  4.027449  0.005  -0.105143  0.003636  4.046852  0.004  -0.083886  -0.097794  0.004145  4.014424  0.005
C  C95  1  0.60082089  0.55327989  0.16447754  1  -0.09045  -0.010604  3.77926  -0.011  -0.100841  -0.003958  4.02752  -0.005  -0.105197  -0.003639  4.046923  -0.004  -0.083902  -0.097845  -0.004146  4.014493  -0.005
C  C96  1  0.89916875  0.05327783  0.16447723  1  -0.090365  0.010588  3.779082  0.011  -0.100759  0.003959  4.027301  0.005  -0.105115  0.003634  4.046704  0.004  -0.083847  -0.097765  0.004145  4.014282  0.005
C  C97  1  0.39917222  0.44672060  0.83552486  1  -0.090421  -0.010603  3.779309  -0.011  -0.10081  -0.003957  4.02753  -0.005  -0.105169  -0.00364  4.046936  -0.004  -0.083881  -0.097818  -0.004145  4.014504  -0.005
C  C98  1  0.23527608  0.92527925  0.86921898  1  0.089883  -0.007233  3.696894  -0.007  0.057049  -0.00042  3.959371  -0.001  0.066643  -0.001671  3.974149  -0.002  0.029611  0.050396  0.000508  3.950552  0.0
C  C99  1  0.73527345  0.57471860  0.13077907  1  0.089898  0.007184  3.69699  0.007  0.05707  0.000421  3.959438  0.001  0.066667  0.001673  3.974221  0.002  0.029645  0.05042  -0.000507  3.950612  0.0
C  C100  1  0.76472225  0.07471924  0.13077873  1  0.089849  -0.007202  3.697035  -0.007  0.057064  -0.00042  3.959512  -0.001  0.066657  -0.001669  3.974291  -0.002  0.029545  0.050411  0.000508  3.95069  0.0
C  C101  1  0.26472592  0.42528189  0.86922087  1  0.089882  0.00719  3.697195  0.007  0.057054  0.00042  3.959649  0.001  0.066654  0.001673  3.974433  0.002  0.029633  0.050411  -0.000508  3.950818  0.0
N  N102  1  0.30198241  0.02097490  0.95544513  1  -0.277563  0.080172  3.39987  0.096  -0.227872  0.0548  3.695673  0.071  -0.256107  0.046398  3.718675  0.063  -0.352551  -0.211621  0.058938  3.682906  0.074
N  N103  1  0.80197957  0.47902632  0.04455814  1  -0.277549  -0.080137  3.4001  -0.096  -0.227799  -0.054802  3.695821  -0.071  -0.256044  -0.046396  3.718848  -0.063  -0.352548  -0.211546  -0.058938  3.683056  -0.074
N  N104  1  0.69801696  0.97902459  0.04455288  1  -0.277629  0.080184  3.400173  0.096  -0.227939  0.054804  3.695959  0.071  -0.256175  0.046399  3.718962  0.063  -0.352502  -0.211684  0.058941  3.683185  0.074
N  N105  1  0.19801562  0.52097417  0.95544262  1  -0.277632  -0.080132  3.400124  -0.096  -0.227903  -0.054801  3.695875  -0.071  -0.25615  -0.046398  3.718905  -0.063  -0.352547  -0.211655  -0.058938  3.683118  -0.074
O  O106  1  0.17655763  0.45020721  0.20434517  1  -0.612723  -0.00068  1.973141  -0.002  -0.565653  -0.000123  2.198704  -0.001  -0.591679  0.000441  2.190424  0.0  -0.313339  -0.547462  -0.000695  2.203851  -0.002
O  O107  1  0.67655743  0.04979673  0.79565961  1  -0.612773  0.000674  1.972976  0.002  -0.565698  0.000123  2.198596  0.001  -0.591726  -0.000441  2.190321  0.0  -0.313366  -0.547507  0.000695  2.203744  0.002
O  O108  1  0.82344383  0.54979227  0.79565365  1  -0.61273  -0.000676  1.97318  -0.002  -0.565625  -0.000121  2.198772  -0.001  -0.591648  0.000441  2.190492  0.0  -0.313324  -0.547439  -0.000695  2.203918  -0.002
O  O109  1  0.32344195  0.95020676  0.20434451  1  -0.612765  0.000676  1.97299  0.002  -0.56566  0.000124  2.198621  0.001  -0.591686  -0.000442  2.190344  0.0  -0.313355  -0.54747  0.000695  2.203772  0.002
O  O110  1  0.04296026  0.60570088  0.16573564  1  -0.604154  -0.094228  2.074119  -0.119  -0.575593  -0.062489  2.354827  -0.088  -0.618313  -0.048497  2.346808  -0.072  -0.3225  -0.547623  -0.071107  2.359922  -0.097
O  O111  1  0.54296421  0.89429756  0.83426736  1  -0.6041  0.094244  2.074266  0.119  -0.575533  0.062486  2.355043  0.088  -0.618244  0.048498  2.347005  0.072  -0.32248  -0.547566  0.071105  2.360126  0.097
O  O112  1  0.95703703  0.39429661  0.83426505  1  -0.604113  -0.09423  2.074102  -0.119  -0.575535  -0.062489  2.354808  -0.088  -0.618264  -0.048496  2.346808  -0.072  -0.322504  -0.547567  -0.07111  2.359899  -0.097
O  O113  1  0.45703516  0.10570293  0.16573340  1  -0.604052  0.094253  2.074182  0.119  -0.575542  0.062484  2.35495  0.088  -0.618253  0.048497  2.346914  0.072  -0.322494  -0.547576  0.071102  2.360035  0.097
O  O114  1  0.03770281  0.28119682  0.04175388  1  -0.548116  0.003479  2.204679  0.003  -0.506781  0.002017  2.441398  0.002  -0.529812  0.001907  2.433124  0.002  -0.352778  -0.490389  0.002047  2.447178  0.002
O  O115  1  0.53770081  0.21880082  0.95824659  1  -0.548108  -0.003477  2.204726  -0.003  -0.506845  -0.002019  2.441486  -0.002  -0.529865  -0.001908  2.433212  -0.002  -0.3528  -0.490464  -0.002047  2.447272  -0.002
O  O116  1  0.96229447  0.71880267  0.95824495  1  -0.548148  0.003484  2.204894  0.003  -0.506787  0.002018  2.441569  0.002  -0.529818  0.001907  2.433303  0.002  -0.352775  -0.490393  0.002047  2.447349  0.002
O  O117  1  0.46229543  0.78120167  0.04175314  1  -0.548139  -0.00347  2.204726  -0.003  -0.506841  -0.002017  2.441484  -0.002  -0.52987  -0.001908  2.433203  -0.002  -0.352793  -0.49045  -0.002047  2.447265  -0.002
