# generated using pymatgen
data_CdH13C20N10O
_symmetry_space_group_name_H-M   'P 1'
_cell_length_a   8.04641956
_cell_length_b   10.69174577
_cell_length_c   12.58042943
_cell_angle_alpha   79.37432657
_cell_angle_beta   73.60427630
_cell_angle_gamma   69.30208127
_symmetry_Int_Tables_number   1
_chemical_formula_structural   CdH13C20N10O
_chemical_formula_sum   'Cd2 H26 C40 N20 O2'
_cell_volume   966.94381422
_cell_formula_units_Z   2
loop_
 _symmetry_equiv_pos_site_id
 _symmetry_equiv_pos_as_xyz
  1  'x, y, z'
loop_
 _atom_site_type_symbol
 _atom_site_label
 _atom_site_symmetry_multiplicity
 _atom_site_fract_x
 _atom_site_fract_y
 _atom_site_fract_z
 _atom_site_occupancy
 _atom_site_hle17_bader_spin_density
 _atom_site_hle17_ddec_charge
 _atom_site_hle17_ddec_spin_density
 _atom_site_hle17_ddec_sum_bond_order
 _atom_site_hle17_magmom
 _atom_site_hse06_10hf_bader_charge
 _atom_site_hse06_10hf_bader_spin_density
 _atom_site_hse06_10hf_ddec_charge
 _atom_site_hse06_10hf_ddec_spin_density
 _atom_site_hse06_10hf_ddec_sum_bond_order
 _atom_site_hse06_10hf_magmom
 _atom_site_hse06_bader_spin_density
 _atom_site_hse06_ddec_charge
 _atom_site_hse06_ddec_spin_density
 _atom_site_hse06_ddec_sum_bond_order
 _atom_site_hse06_magmom
 _atom_site_pbe_bader_spin_density
 _atom_site_pbe_cm5_charge
 _atom_site_pbe_ddec_charge
 _atom_site_pbe_ddec_spin_density
 _atom_site_pbe_ddec_sum_bond_order
 _atom_site_pbe_magmom
Cd  Cd0  1  0.72784864  0.59209843  0.96036582  1  0  0.958369  0  1.78553  0  1.257056  0  0.719297  0  2.248371  0  0  0.770398  0  2.206159  0  0  0.828407  0.68229  0  2.278754  0
Cd  Cd1  1  0.27215208  0.40790180  0.03963485  1  0  0.958405  0  1.785537  0  1.257051  0  0.719328  0  2.248393  0  0  0.770427  0  2.206183  0  0  0.828418  0.682321  0  2.278775  0
H  H2  1  0.46920243  0.74628226  0.38623657  1  0  0.085594  0  0.978043  0  0.053057  0  0.094492  0  1.045637  0  0  0.097415  0  1.043609  0  0  0.096572  0.092401  0  1.047205  0
H  H3  1  0.53079268  0.25371901  0.61376177  1  0  0.085586  0  0.978015  0  0.053085  0  0.094474  0  1.045628  0  0  0.097398  0  1.043602  0  0  0.096579  0.092383  0  1.047189  0
H  H4  1  0.35272923  0.80635290  0.58105823  1  0  0.09777  0  0.993817  0  0.085  0  0.105489  0  1.060897  0  0  0.107443  0  1.06259  0  0  0.095524  0.104263  0  1.059506  0
H  H5  1  0.64726935  0.19364934  0.41894012  1  0  0.097783  0  0.993838  0  0.085023  0  0.1055  0  1.060933  0  0  0.107447  0  1.062635  0  0  0.095521  0.104276  0  1.059538  0
H  H6  1  0.05023103  0.52669216  0.65860047  1  0  0.119071  0  0.940861  0  0.100816  0  0.127433  0  1.003301  0  0  0.131141  0  1.001261  0  0  0.105785  0.124501  0  1.00544  0
H  H7  1  0.94977227  0.47330504  0.34140101  1  0  0.119091  0  0.940829  0  0.100819  0  0.127443  0  1.003293  0  0  0.13115  0  1.001253  0  0  0.105794  0.124509  0  1.005438  0
H  H8  1  0.16410950  0.46982582  0.46121901  1  0  0.089313  0  0.96634  0  0.083143  0  0.099577  0  1.031095  0  0  0.102055  0  1.029847  0  0  0.099768  0.098053  0  1.03144  0
H  H9  1  0.83588993  0.53017442  0.53878189  1  0  0.089314  0  0.966367  0  0.083174  0  0.099577  0  1.031125  0  0  0.102055  0  1.029878  0  0  0.099785  0.098056  0  1.031468  0
H  H10  1  0.94881627  0.93625920  0.65758361  1  0  0.107169  0  0.94755  0  0.066723  0  0.118497  0  1.004644  0  0  0.121361  0  1.004059  0  0  0.103165  0.116437  0  1.005148  0
H  H11  1  0.05118446  0.06374103  0.34241627  1  0  0.107143  0  0.947572  0  0.066709  0  0.118469  0  1.00467  0  0  0.121333  0  1.004084  0  0  0.103152  0.116409  0  1.005171  0
H  H12  1  0.28507603  0.72396439  0.88743500  1  0  0.111267  0  0.964587  0  0.093553  0  0.114044  0  1.038725  0  0  0.11686  0  1.037888  0  0  0.102089  0.112033  0  1.039344  0
H  H13  1  0.71492729  0.27603582  0.11256600  1  0  0.111242  0  0.96454  0  0.093598  0  0.114003  0  1.038693  0  0  0.116817  0  1.037855  0  0  0.102042  0.111994  0  1.039309  0
H  H14  1  0.24510058  0.94132866  0.95317232  1  0  0.096282  0  0.952044  0  0.094575  0  0.10898  0  1.009937  0  0  0.11121  0  1.009587  0  0  0.104742  0.107384  0  1.010241  0
H  H15  1  0.75489885  0.05867157  0.04682937  1  0  0.096309  0  0.95203  0  0.094648  0  0.109011  0  1.009915  0  0  0.111243  0  1.009567  0  0  0.104765  0.107418  0  1.010218  0
H  H16  1  0.90601100  0.15359562  0.72424618  1  0  0.102104  0  0.948984  0  0.116667  0  0.111976  0  1.010022  0  0  0.114484  0  1.009312  0  0  0.103031  0.110108  0  1.010688  0
H  H17  1  0.09399145  0.84640359  0.27575434  1  0  0.102041  0  0.949037  0  0.116615  0  0.11193  0  1.010065  0  0  0.114444  0  1.009347  0  0  0.103031  0.110064  0  1.01073  0
H  H18  1  0.67630717  0.70943694  0.70342015  1  0  0.093091  0  1.008485  0  0.226067  0  0.091069  0  1.090982  0  0  0.09513  0  1.085999  0  0  0.129736  0.08775  0  1.095082  0
H  H19  1  0.32369269  0.29056230  0.29657844  1  0  0.093063  0  1.008499  0  0.226078  0  0.09104  0  1.090996  0  0  0.095109  0  1.086005  0  0  0.129746  0.087723  0  1.095094  0
H  H20  1  0.63476772  0.93514072  0.95580187  1  0  0.102886  0  0.992514  0  0.151841  0  0.10755  0  1.061856  0  0  0.110502  0  1.059946  0  0  0.115747  0.105387  0  1.063307  0
H  H21  1  0.36523386  0.06485750  0.04419737  1  0  0.102887  0  0.992481  0  0.151717  0  0.107539  0  1.06184  0  0  0.110492  0  1.059927  0  0  0.115745  0.105367  0  1.063299  0
H  H22  1  0.52214465  0.11413132  0.77932621  1  0  0.124192  0  0.967855  0  0.158964  0  0.125182  0  1.044423  0  0  0.128738  0  1.04142  0  0  0.121747  0.12136  0  1.048441  0
H  H23  1  0.47785348  0.88586893  0.22067493  1  0  0.124238  0  0.967943  0  0.158938  0  0.12522  0  1.044511  0  0  0.128775  0  1.041507  0  0  0.121767  0.121399  0  1.048534  0
H  H24  1  0.78277803  0.81128426  0.51963110  1  0  0.111089  0  0.938384  0  0.097169  0  0.124107  0  0.993274  0  0  0.126483  0  0.993053  0  0  0.113086  0.122393  0  0.993392  0
H  H25  1  0.21722053  0.18871499  0.48036852  1  0  0.111092  0  0.938382  0  0.097148  0  0.124117  0  0.993271  0  0  0.126495  0  0.993047  0  0  0.113083  0.122399  0  0.993387  0
H  H26  1  0.30451978  0.12757888  0.66193533  1  0  0.113544  0  0.952158  0  0.114784  0  0.125739  0  1.007052  0  0  0.128115  0  1.0068  0  0  0.113966  0.123976  0  1.007442  0
H  H27  1  0.69547663  0.87242238  0.33806437  1  0  0.113564  0  0.952119  0  0.114785  0  0.125752  0  1.007023  0  0  0.128128  0  1.006771  0  0  0.113975  0.12399  0  1.007416  0
C  C28  1  0.38815311  0.57423418  0.29405272  1  0  0.259831  0  3.812238  0  0.968345  0  0.240279  0  4.093017  0  0  0.249037  0  4.107965  0  0  0.210041  0.234373  0  4.08294  0
C  C29  1  0.61184287  0.42576808  0.70594769  1  0  0.259916  0  3.812207  0  0.968454  0  0.240358  0  4.092982  0  0  0.24911  0  4.107941  0  0  0.210103  0.234445  0  4.082907  0
C  C30  1  0.32165359  0.60641346  0.40951079  1  0  -0.01093  0  3.813958  0  0.020775  0  0.005282  0  4.045047  0  0  0.00217  0  4.068902  0  0  -0.015149  0.007235  0  4.028899  0
C  C31  1  0.67834282  0.39358780  0.59048890  1  0  -0.011091  0  3.813987  0  0.02078  0  0.005143  0  4.04506  0  0  0.002031  0  4.068914  0  0  -0.015171  0.007101  0  4.028907  0
C  C32  1  0.37409555  0.70058101  0.44508924  1  0  -0.068041  0  3.75914  0  0.035075  0  -0.088574  0  4.003669  0  0  -0.088481  0  4.024135  0  0  -0.089594  -0.08826  0  3.989366  0
C  C33  1  0.62590346  0.29942023  0.55490919  1  0  -0.068007  0  3.759187  0  0.035051  0  -0.088546  0  4.003722  0  0  -0.088454  0  4.024182  0  0  -0.089635  -0.08823  0  3.989411  0
C  C34  1  0.31020961  0.73364006  0.55432418  1  0  -0.198269  0  3.781971  0  -0.084296  0  -0.216377  0  4.031423  0  0  -0.222423  0  4.053145  0  0  -0.111683  -0.212285  0  4.016269  0
C  C35  1  0.68978810  0.26636119  0.44567528  1  0  -0.198261  0  3.782049  0  -0.084329  0  -0.216371  0  4.031493  0  0  -0.22241  0  4.053213  0  0  -0.111663  -0.212289  0  4.016338  0
C  C36  1  0.19302207  0.67099910  0.63060966  1  0  0.281883  0  3.793813  0  0.376524  0  0.27048  0  4.056402  0  0  0.281816  0  4.07153  0  0  0.083124  0.262855  0  4.046143  0
C  C37  1  0.80697736  0.32900114  0.36939044  1  0  0.281796  0  3.793945  0  0.376442  0  0.270383  0  4.056539  0  0  0.281746  0  4.071663  0  0  0.083092  0.262771  0  4.046267  0
C  C38  1  0.14022580  0.57544262  0.59757253  1  0  -0.187406  0  3.749832  0  0.036082  0  -0.208207  0  4.005625  0  0  -0.213641  0  4.024764  0  0  -0.105859  -0.20469  0  3.993102  0
C  C39  1  0.85977665  0.42455660  0.40242799  1  0  -0.18737  0  3.749853  0  0.036071  0  -0.208164  0  4.005632  0  0  -0.213594  0  4.024764  0  0  -0.105826  -0.20465  0  3.993116  0
C  C40  1  0.20464800  0.54398160  0.48760847  1  0  -0.075038  0  3.751555  0  -0.061139  0  -0.094977  0  3.996125  0  0  -0.095057  0  4.017102  0  0  -0.088084  -0.094522  0  3.981213  0
C  C41  1  0.79534970  0.45601965  0.51239099  1  0  -0.074997  0  3.751622  0  -0.061129  0  -0.094949  0  3.996195  0  0  -0.095028  0  4.017172  0  0  -0.088107  -0.094497  0  3.981287  0
C  C42  1  0.01375148  0.93839491  0.72211029  1  0  -0.183281  0  3.785564  0  -0.007489  0  -0.20337  0  4.037806  0  0  -0.208675  0  4.059072  0  0  -0.104677  -0.19964  0  4.023319  0
C  C43  1  0.98624925  0.06160532  0.27789037  1  0  -0.183307  0  3.785539  0  -0.007494  0  -0.203388  0  4.037785  0  0  -0.208691  0  4.059047  0  0  -0.104661  -0.199651  0  4.023291  0
C  C44  1  0.11906455  0.81837022  0.76940381  1  0  0.269321  0  3.776349  0  0.37056  0  0.261638  0  4.038146  0  0  0.271614  0  4.053829  0  0  0.081285  0.254662  0  4.027382  0
C  C45  1  0.88093791  0.18162899  0.23059591  1  0  0.269402  0  3.776076  0  0.370519  0  0.261699  0  4.037875  0  0  0.2717  0  4.05355  0  0  0.081264  0.254718  0  4.02712  0
C  C46  1  0.20358888  0.81867031  0.85193123  1  0  -0.157558  0  3.720381  0  0.033664  0  -0.182181  0  3.980747  0  0  -0.186826  0  4.00115  0  0  -0.101034  -0.179043  0  3.967023  0
C  C47  1  0.79641269  0.18132791  0.14806960  1  0  -0.157623  0  3.72028  0  0.03362  0  -0.182215  0  3.980645  0  0  -0.186855  0  4.001037  0  0  -0.100989  -0.179076  0  3.966924  0
C  C48  1  0.18132775  0.94034535  0.88788599  1  0  -0.066775  0  3.73874  0  -0.05554  0  -0.090533  0  3.990962  0  0  -0.091156  0  4.012482  0  0  -0.08455  -0.089962  0  3.976443  0
C  C49  1  0.81867340  0.05965387  0.11211555  1  0  -0.066774  0  3.738708  0  -0.055559  0  -0.090525  0  3.990944  0  0  -0.091154  0  4.012469  0  0  -0.084578  -0.089958  0  3.976428  0
C  C50  1  0.07523288  0.06207665  0.84205478  1  0  -0.012623  0  3.814701  0  -0.003352  0  0.003424  0  4.049509  0  0  0.001044  0  4.071893  0  0  -0.012673  0.004932  0  4.034535  0
C  C51  1  0.92476785  0.93792357  0.15794668  1  0  -0.012613  0  3.814684  0  -0.003762  0  0.003373  0  4.049564  0  0  0.000991  0  4.071951  0  0  -0.012675  0.004887  0  4.034601  0
C  C52  1  0.99048087  0.05960413  0.75924775  1  0  -0.079865  0  3.745453  0  -0.030144  0  -0.099116  0  3.990318  0  0  -0.099523  0  4.010443  0  0  -0.087504  -0.098734  0  3.976747  0
C  C53  1  0.00952028  0.94039510  0.24075300  1  0  -0.079713  0  3.745403  0  -0.030128  0  -0.098966  0  3.990283  0  0  -0.099375  0  4.010407  0  0  -0.087469  -0.098587  0  3.976712  0
C  C54  1  0.05455542  0.18903395  0.88013338  1  0  0.241648  0  3.821501  0  0.940713  0  0.227506  0  4.095258  0  0  0.235092  0  4.111354  0  0  0.205601  0.222294  0  4.084461  0
C  C55  1  0.94544486  0.81096428  0.11986768  1  0  0.241559  0  3.82167  0  0.941248  0  0.227464  0  4.095384  0  0  0.23505  0  4.111478  0  0  0.205605  0.222233  0  4.084616  0
C  C56  1  0.65625510  0.79484757  0.74652244  1  0  0.161395  0  3.649337  0  0.946719  0  0.097128  0  3.921156  0  0  0.111214  0  3.932826  0  0  0.137226  0.08797  0  3.913727  0
C  C57  1  0.34374476  0.20515166  0.25347615  1  0  0.161508  0  3.649489  0  0.946566  0  0.097247  0  3.921298  0  0  0.111326  0  3.932962  0  0  0.137259  0.088084  0  3.913873  0
C  C58  1  0.62265961  0.91697965  0.87689122  1  0  0.014081  0  3.719257  0  0.420807  0  -0.018852  0  3.978714  0  0  -0.016707  0  3.998056  0  0  0.002171  -0.020227  0  3.965293  0
C  C59  1  0.37734373  0.08302056  0.12310580  1  0  0.014096  0  3.719132  0  0.420744  0  -0.018828  0  3.978589  0  0  -0.016682  0  3.997927  0  0  0.002185  -0.020193  0  3.965184  0
C  C60  1  0.56960299  0.00516997  0.78940274  1  0  -0.047935  0  3.6341  0  0.296023  0  -0.088042  0  3.898402  0  0  -0.086529  0  3.915659  0  0  0.008951  -0.08837  0  3.887267  0
C  C61  1  0.43039730  0.99482826  0.21059673  1  0  -0.047953  0  3.634107  0  0.296084  0  -0.088052  0  3.8984  0  0  -0.086537  0  3.915655  0  0  0.008949  -0.08838  0  3.887274  0
C  C62  1  0.65782220  0.89291946  0.51119599  1  0  -0.125563  0  3.720751  0  -0.029595  0  -0.143348  0  3.966456  0  0  -0.145949  0  3.985614  0  0  -0.078127  -0.141556  0  3.953122  0
C  C63  1  0.34217463  0.10708080  0.48880379  1  0  -0.125573  0  3.720748  0  -0.029149  0  -0.14337  0  3.966481  0  0  -0.145969  0  3.985638  0  0  -0.078149  -0.141572  0  3.953137  0
C  C64  1  0.54854726  0.96636273  0.60166149  1  0  0.173684  0  3.778086  0  0.330767  0  0.165642  0  4.025264  0  0  0.170789  0  4.046863  0  0  0.098447  0.162214  0  4.010706  0
C  C65  1  0.45145390  0.03363650  0.39833767  1  0  0.1736  0  3.778142  0  0.33042  0  0.165543  0  4.025344  0  0  0.170689  0  4.046944  0  0  0.09841  0.162114  0  4.010788  0
C  C66  1  0.39137474  0.07366989  0.59034999  1  0  -0.118777  0  3.732981  0  -0.010463  0  -0.138282  0  3.981868  0  0  -0.140586  0  4.001428  0  0  -0.07981  -0.136823  0  3.968552  0
C  C67  1  0.60862209  0.92633036  0.40965058  1  0  -0.118802  0  3.733033  0  -0.010068  0  -0.138303  0  3.981933  0  0  -0.140607  0  4.001495  0  0  -0.079848  -0.136851  0  3.968631  0
N  N68  1  0.49530097  0.63272769  0.21277520  1  0  -0.277936  0  2.909135  0  -0.649272  0  -0.269471  0  3.188801  0  0  -0.275393  0  3.200656  0  0  -0.219154  -0.265121  0  3.181438  0
N  N69  1  0.50469632  0.36727456  0.78722418  1  0  -0.277883  0  2.909112  0  -0.64928  0  -0.269407  0  3.188772  0  0  -0.275327  0  3.20063  0  0  -0.219132  -0.265052  0  3.181405  0
N  N70  1  0.51955718  0.57396927  0.12237829  1  0  -0.126167  0  3.255628  0  -0.234941  0  -0.066177  0  3.561767  0  0  -0.075481  0  3.575975  0  0  -0.128712  -0.059257  0  3.551257  0
N  N71  1  0.48044096  0.42603097  0.87762125  1  0  -0.126228  0  3.255711  0  -0.234924  0  -0.066245  0  3.561873  0  0  -0.075549  0  3.576081  0  0  -0.128756  -0.059328  0  3.551363  0
N  N72  1  0.43265191  0.48297204  0.14691571  1  0  -0.133509  0  3.156047  0  -0.187503  0  -0.093128  0  3.451045  0  0  -0.098712  0  3.465996  0  0  -0.118733  -0.088602  0  3.440335  0
N  N73  1  0.56734925  0.51702719  0.85308345  1  0  -0.133511  0  3.156049  0  -0.18751  0  -0.093132  0  3.451046  0  0  -0.098717  0  3.465997  0  0  -0.118738  -0.088602  0  3.440331  0
N  N74  1  0.34875358  0.48171973  0.25445121  1  0  -0.296581  0  3.004625  0  -0.69787  0  -0.274042  0  3.284621  0  0  -0.283118  0  3.297449  0  0  -0.219165  -0.267411  0  3.275848  0
N  N75  1  0.65124498  0.51827952  0.74554921  1  0  -0.296583  0  3.004736  0  -0.697971  0  -0.274046  0  3.284734  0  0  -0.283119  0  3.297561  0  0  -0.219176  -0.267417  0  3.275963  0
N  N76  1  0.17215909  0.20684323  0.93004107  1  0  -0.277719  0  2.95795  0  -0.639043  0  -0.258539  0  3.233858  0  0  -0.26626  0  3.248288  0  0  -0.208379  -0.252776  0  3.223826  0
N  N77  1  0.82784251  0.79315800  0.06995928  1  0  -0.277718  0  2.957978  0  -0.639107  0  -0.258562  0  3.233908  0  0  -0.266284  0  3.248336  0  0  -0.208412  -0.252796  0  3.223888  0
N  N78  1  0.10083264  0.33378965  0.95381124  1  0  -0.116929  0  3.178599  0  -0.209495  0  -0.069046  0  3.473097  0  0  -0.075753  0  3.488336  0  0  -0.120567  -0.063959  0  3.462659  0
N  N79  1  0.89916939  0.66621057  0.04618761  1  0  -0.116886  0  3.17858  0  -0.20953  0  -0.069001  0  3.473073  0  0  -0.075709  0  3.488312  0  0  -0.120532  -0.063907  0  3.462628  0
N  N80  1  0.94631526  0.39132890  0.91893396  1  0  -0.132487  0  3.237346  0  -0.248422  0  -0.070561  0  3.534378  0  0  -0.080748  0  3.551156  0  0  -0.126801  -0.063606  0  3.523782  0
N  N81  1  0.05368505  0.60867233  0.08106584  1  0  -0.132475  0  3.237363  0  -0.248431  0  -0.070544  0  3.534392  0  0  -0.08073  0  3.551168  0  0  -0.126788  -0.063588  0  3.523792  0
N  N82  1  0.91392594  0.30283343  0.87226138  1  0  -0.266489  0  2.949584  0  -0.628239  0  -0.25777  0  3.224577  0  0  -0.264859  0  3.24107  0  0  -0.217196  -0.252925  0  3.213307  0
N  N83  1  0.08607349  0.69716680  0.12773952  1  0  -0.266491  0  2.94966  0  -0.628261  0  -0.25778  0  3.224636  0  0  -0.26487  0  3.241129  0  0  -0.217214  -0.252929  0  3.213373  0
N  N84  1  0.67413709  0.78681740  0.84947963  1  0  -0.356842  0  3.253279  0  -1.257423  0  -0.270299  0  3.533001  0  0  -0.291226  0  3.549503  0  0  -0.357415  -0.25573  0  3.521657  0
N  N85  1  0.32586234  0.21318284  0.15051889  1  0  -0.35689  0  3.253355  0  -1.257262  0  -0.270348  0  3.533079  0  0  -0.291275  0  3.549583  0  0  -0.357432  -0.255777  0  3.521731  0
N  N86  1  0.59344778  0.92612465  0.70665430  1  0  -0.099324  0  3.617791  0  -1.316105  0  -0.009644  0  3.830291  0  0  -0.024692  0  3.85639  0  0  -0.228237  0.000287  0  3.812375  0
N  N87  1  0.40654863  0.07387661  0.29334539  1  0  -0.099379  0  3.617841  0  -1.315745  0  -0.009696  0  3.830355  0  0  -0.024744  0  3.856454  0  0  -0.22827  0.00024  0  3.812437  0
O  O88  1  0.13273055  0.69459397  0.74139345  1  0  -0.29753  0  2.331449  0  -1.125499  0  -0.234241  0  2.561423  0  0  -0.25228  0  2.564184  0  0  -0.157081  -0.221631  0  2.560075  0
O  O89  1  0.86727366  0.30540723  0.25860564  1  0  -0.297518  0  2.331283  0  -1.125385  0  -0.234207  0  2.561245  0  0  -0.252309  0  2.564047  0  0  -0.157076  -0.221597  0  2.559896  0
