# generated using pymatgen
data_CdH14C15(NO)4
_symmetry_space_group_name_H-M   'P 1'
_cell_length_a   11.55276120
_cell_length_b   13.69631082
_cell_length_c   13.99633551
_cell_angle_alpha   105.48263207
_cell_angle_beta   90.03277423
_cell_angle_gamma   114.91984452
_symmetry_Int_Tables_number   1
_chemical_formula_structural   CdH14C15(NO)4
_chemical_formula_sum   'Cd4 H56 C60 N16 O16'
_cell_volume   1919.31108674
_cell_formula_units_Z   4
loop_
 _symmetry_equiv_pos_site_id
 _symmetry_equiv_pos_as_xyz
  1  'x, y, z'
loop_
 _atom_site_type_symbol
 _atom_site_label
 _atom_site_symmetry_multiplicity
 _atom_site_fract_x
 _atom_site_fract_y
 _atom_site_fract_z
 _atom_site_occupancy
 _atom_site_pbe_bader_charge
 _atom_site_pbe_bader_spin_density
 _atom_site_pbe_cm5_charge
 _atom_site_pbe_ddec_charge
 _atom_site_pbe_ddec_spin_density
 _atom_site_pbe_ddec_sum_bond_order
 _atom_site_pbe_magmom
Cd  Cd0  1  0.05514335  0.55915448  0.14414080  1  1.274721  0  0.765268  0.866385  0  2.189145  0
Cd  Cd1  1  0.49639612  0.44112136  0.35575747  1  1.27841  0  0.764296  0.866758  0  2.186554  0
Cd  Cd2  1  0.94485745  0.44084522  0.85585753  1  1.274793  0  0.765275  0.866378  0  2.189232  0
Cd  Cd3  1  0.50360768  0.55888087  0.64424366  1  1.27832  0  0.764297  0.866725  0  2.1866  0
H  H4  1  0.82461916  0.82350343  0.11145851  1  0.096936  0  0.118708  0.13154  0  0.977178  0
H  H5  1  0.00153173  0.17638283  0.38824025  1  0.085763  0  0.118361  0.131054  0  0.978542  0
H  H6  1  0.17537605  0.17649373  0.88853488  1  0.096941  0  0.118742  0.131625  0  0.977204  0
H  H7  1  0.99847421  0.82362193  0.61176225  1  0.085572  0  0.118371  0.131044  0  0.978538  0
H  H8  1  0.23889058  0.99076512  0.14024135  1  0.124758  0  0.111956  0.117202  0  1.032982  0
H  H9  1  0.24860391  0.00912902  0.35905201  1  0.117493  0  0.112399  0.117855  0  1.032657  0
H  H10  1  0.76110508  0.00923123  0.85976112  1  0.124655  0  0.111992  0.117314  0  1.032995  0
H  H11  1  0.75139860  0.99087236  0.64094533  1  0.117319  0  0.112369  0.11782  0  1.032713  0
H  H12  1  0.30443426  0.29962406  0.13390866  1  0.181023  0  0.113294  0.137839  0  1.044993  0
H  H13  1  0.00536117  0.70060129  0.36610052  1  0.172981  0  0.113353  0.13799  0  1.045681  0
H  H14  1  0.69556267  0.70037481  0.86609517  1  0.181009  0  0.113312  0.137866  0  1.044952  0
H  H15  1  0.99463575  0.29939756  0.63389402  1  0.172987  0  0.11341  0.138096  0  1.045561  0
H  H16  1  0.84224032  0.64765667  0.11958583  1  0.115967  0  0.124795  0.101537  0  0.976768  0
H  H17  1  0.19476094  0.35233766  0.38010260  1  0.113455  0  0.124562  0.101783  0  0.976629  0
H  H18  1  0.15775274  0.35233966  0.88041092  1  0.115958  0  0.124776  0.101483  0  0.976831  0
H  H19  1  0.80524375  0.64766288  0.61989595  1  0.113464  0  0.124545  0.101797  0  0.976622  0
H  H20  1  0.23951311  0.80933409  0.15345675  1  0.131561  0  0.120068  0.102164  0  1.011069  0
H  H21  1  0.43040840  0.19061817  0.34583308  1  0.132474  0  0.119977  0.102571  0  1.010871  0
H  H22  1  0.76047909  0.19066226  0.84654858  1  0.131487  0  0.120043  0.102123  0  1.011018  0
H  H23  1  0.56959671  0.80938321  0.65416498  1  0.132446  0  0.119978  0.102508  0  1.010887  0
H  H24  1  0.27514928  0.47217938  0.13929981  1  0.145706  0  0.130487  0.11337  0  0.957242  0
H  H25  1  0.80353868  0.52805145  0.36062911  1  0.143077  0  0.130349  0.112889  0  0.958671  0
H  H26  1  0.72484553  0.52781525  0.86069507  1  0.14565  0  0.130493  0.11334  0  0.957284  0
H  H27  1  0.19645903  0.47195245  0.63936889  1  0.143034  0  0.130342  0.112901  0  0.95857  0
H  H28  1  0.37297079  0.71862808  0.54650563  1  0.040467  0  0.097005  0.122054  0  0.999792  0
H  H29  1  0.65428786  0.28141368  0.95352214  1  0.071685  0  0.097238  0.122176  0  1.00028  0
H  H30  1  0.62702660  0.28136825  0.45349398  1  0.04032  0  0.096999  0.122039  0  0.999699  0
H  H31  1  0.34571255  0.71858350  0.04647768  1  0.07161  0  0.097235  0.122161  0  1.000306  0
H  H32  1  0.22044177  0.62720385  0.47717819  1  0.083972  0  0.105617  0.133309  0  0.96586  0
H  H33  1  0.59294097  0.37266711  0.02275582  1  0.06932  0  0.106061  0.1341  0  0.966293  0
H  H34  1  0.77955823  0.37279249  0.52282499  1  0.083598  0  0.105605  0.133312  0  0.965835  0
H  H35  1  0.40706117  0.62733006  0.97724186  1  0.069352  0  0.106049  0.134097  0  0.966281  0
H  H36  1  0.89241301  0.12459639  0.13345934  1  0.119635  0  0.113118  0.122212  0  1.006482  0
H  H37  1  0.76844606  0.87588764  0.36688844  1  0.111256  0  0.112817  0.122086  0  1.00777  0
H  H38  1  0.10758778  0.87540502  0.86654801  1  0.119673  0  0.113125  0.122222  0  1.00646  0
H  H39  1  0.23155900  0.12411711  0.63310978  1  0.111496  0  0.112796  0.122122  0  1.007627  0
H  H40  1  0.88221431  0.30710769  0.14303508  1  0.11892  0  0.118089  0.093376  0  1.025967  0
H  H41  1  0.57576794  0.69339416  0.35726540  1  0.122071  0  0.117662  0.091923  0  1.026719  0
H  H42  1  0.11778348  0.69289119  0.85696947  1  0.118967  0  0.118082  0.093358  0  1.025998  0
H  H43  1  0.42423448  0.30661397  0.64273727  1  0.122045  0  0.117648  0.091916  0  1.026747  0
H  H44  1  0.43694402  0.77684918  0.38199545  1  0.037743  0  0.093322  0.071468  0  0.973335  0
H  H45  1  0.66055462  0.22332536  0.11800543  1  0.030496  0  0.093357  0.070748  0  0.974156  0
H  H46  1  0.56305253  0.22314547  0.61800443  1  0.037666  0  0.093323  0.071445  0  0.973376  0
H  H47  1  0.33944874  0.77667772  0.88199521  1  0.030528  0  0.093309  0.070695  0  0.974152  0
H  H48  1  0.38738534  0.89984280  0.52797768  1  0.030259  0  0.085072  0.115073  0  1.005482  0
H  H49  1  0.48768273  0.10010681  0.97223623  1  0.02036  0  0.085003  0.115454  0  1.005312  0
H  H50  1  0.61261420  0.10015437  0.47202143  1  0.030254  0  0.085082  0.115068  0  1.005476  0
H  H51  1  0.51232025  0.89989205  0.02776474  1  0.020338  0  0.084995  0.11543  0  1.005371  0
H  H52  1  0.33043762  0.90531964  0.41239303  1  0.019193  0  0.082235  0.110332  0  1.022848  0
H  H53  1  0.42564339  0.09481204  0.08794240  1  0.018528  0  0.082102  0.110236  0  1.022289  0
H  H54  1  0.66956452  0.09467754  0.58760822  1  0.019127  0  0.082218  0.110313  0  1.022828  0
H  H55  1  0.57436084  0.90519104  0.91205967  1  0.018531  0  0.082109  0.110244  0  1.02229  0
H  H56  1  0.22047486  0.82399869  0.48105212  1  0.041636  0  0.085079  0.11616  0  1.01594  0
H  H57  1  0.39659642  0.17594146  0.01918669  1  0.049195  0  0.084868  0.11559  0  1.01617  0
H  H58  1  0.77952766  0.17600270  0.51895165  1  0.041669  0  0.085076  0.116151  0  1.01594  0
H  H59  1  0.60340523  0.82405993  0.98081351  1  0.049177  0  0.084881  0.115617  0  1.016232  0
C  C60  1  0.03085879  0.91910520  0.12495774  1  0.33161  0  0.101194  0.193263  0  4.038999  0
C  C61  1  0.11227302  0.08088930  0.37455231  1  0.317821  0  0.100824  0.192696  0  4.042471  0
C  C62  1  0.96913729  0.08089198  0.87504279  1  0.331688  0  0.101207  0.193302  0  4.038795  0
C  C63  1  0.88773204  0.91911545  0.62544663  1  0.317436  0  0.100774  0.192735  0  4.042293  0
C  C64  1  0.91769782  0.82212383  0.11912737  1  0.025978  0  -0.070618  -0.181292  0  3.91963  0
C  C65  1  0.09600720  0.17785571  0.38043386  1  0.015773  0  -0.071349  -0.181378  0  3.921543  0
C  C66  1  0.08229997  0.17787502  0.88087074  1  0.025642  0  -0.070751  -0.181555  0  3.919733  0
C  C67  1  0.90399574  0.82214652  0.61956585  1  0.015879  0  -0.071411  -0.18148  0  3.921508  0
C  C68  1  0.09903998  0.19805105  0.13071226  1  0.274075  0  0.097172  0.180694  0  4.051007  0
C  C69  1  0.90152314  0.80221470  0.36942671  1  0.278507  0  0.097232  0.182077  0  4.049647  0
C  C70  1  0.90095865  0.80194949  0.86928843  1  0.274133  0  0.097187  0.180762  0  4.050984  0
C  C71  1  0.09847763  0.19778667  0.63056920  1  0.27838  0  0.0972  0.182144  0  4.049608  0
C  C72  1  0.15000227  0.91613188  0.13566583  1  -0.021483  0  -0.076401  -0.186325  0  3.933495  0
C  C73  1  0.23429366  0.08376075  0.36371508  1  -0.003845  0  -0.07635  -0.18685  0  3.934577  0
C  C74  1  0.84998952  0.08386363  0.86433999  1  -0.021647  0  -0.076395  -0.186418  0  3.933407  0
C  C75  1  0.76571058  0.91624062  0.63628155  1  -0.003708  0  -0.076367  -0.186858  0  3.934713  0
C  C76  1  0.20833400  0.29648408  0.13288632  1  -0.029703  0  -0.069015  -0.18157  0  3.878826  0
C  C77  1  0.91242699  0.70376395  0.36714910  1  -0.000718  0  -0.069523  -0.183768  0  3.877793  0
C  C78  1  0.79166722  0.70351646  0.86711366  1  -0.029774  0  -0.069051  -0.181644  0  3.878815  0
C  C79  1  0.08757596  0.29623659  0.63284874  1  -0.000735  0  -0.069539  -0.183916  0  3.877885  0
C  C80  1  0.92729849  0.72562774  0.12407983  1  0.481176  0  0.05334  0.102653  0  3.947217  0
C  C81  1  0.20197220  0.27437126  0.37551215  1  0.502668  0  0.054465  0.103341  0  3.945886  0
C  C82  1  0.07269240  0.27436944  0.87592213  1  0.480419  0  0.053352  0.102713  0  3.947359  0
C  C83  1  0.79802947  0.72562843  0.62448403  1  0.503341  0  0.054503  0.103336  0  3.945942  0
C  C84  1  0.15051022  0.81688008  0.14175734  1  0.469993  0  0.049771  0.096482  0  3.92927  0
C  C85  1  0.33391151  0.18303324  0.35762387  1  0.458719  0  0.049729  0.096494  0  3.931007  0
C  C86  1  0.84948243  0.18311543  0.85824705  1  0.470903  0  0.049828  0.096515  0  3.929097  0
C  C87  1  0.66609444  0.81696983  0.64237463  1  0.458959  0  0.049727  0.096528  0  3.931151  0
C  C88  1  0.24514218  0.68361521  0.30752871  1  1.572607  0  0.188345  0.586653  0  4.163283  0
C  C89  1  0.56204206  0.31652066  0.19260404  1  1.548347  0  0.189261  0.58693  0  4.162987  0
C  C90  1  0.75485091  0.31637945  0.69247403  1  1.572547  0  0.188392  0.586703  0  4.163458  0
C  C91  1  0.43796085  0.68348326  0.80739753  1  1.548306  0  0.189262  0.587012  0  4.162996  0
C  C92  1  0.19274670  0.39300518  0.13625043  1  0.516374  0  0.064597  0.123737  0  3.895695  0
C  C93  1  0.80034584  0.60725619  0.36374848  1  0.478917  0  0.064792  0.125674  0  3.893527  0
C  C94  1  0.80725153  0.60699284  0.86374961  1  0.516324  0  0.064603  0.123775  0  3.895738  0
C  C95  1  0.19965363  0.39274603  0.63625123  1  0.478864  0  0.064826  0.12572  0  3.893408  0
C  C96  1  0.32357217  0.67058861  0.47019314  1  -0.021353  0  -0.16504  -0.319408  0  3.900428  0
C  C97  1  0.65293229  0.32947216  0.02981127  1  -0.045924  0  -0.165677  -0.320481  0  3.904098  0
C  C98  1  0.67642607  0.32940941  0.52980833  1  -0.020906  0  -0.165011  -0.319329  0  3.900179  0
C  C99  1  0.34706768  0.67052586  0.97018949  1  -0.045532  0  -0.165689  -0.320546  0  3.904114  0
C  C100  1  0.97840144  0.19988519  0.13387956  1  -0.063268  0  -0.081677  -0.192883  0  3.949091  0
C  C101  1  0.77912333  0.80052368  0.36634352  1  0.009503  0  -0.081833  -0.194433  0  3.951916  0
C  C102  1  0.02159633  0.80011536  0.86612256  1  -0.063254  0  -0.081687  -0.192913  0  3.949106  0
C  C103  1  0.22087741  0.19948108  0.63365970  1  0.009515  0  -0.081813  -0.194534  0  3.951788  0
C  C104  1  0.97251538  0.29970806  0.13793547  1  0.523955  0  0.045923  0.095677  0  3.941203  0
C  C105  1  0.67343834  0.70072965  0.36226533  1  0.464429  0  0.045598  0.097722  0  3.944187  0
C  C106  1  0.02748455  0.70029333  0.86206831  1  0.523972  0  0.045936  0.095718  0  3.941091  0
C  C107  1  0.32656326  0.29927511  0.63773718  1  0.464525  0  0.045568  0.097669  0  3.944045  0
C  C108  1  0.33945455  0.74736848  0.40414541  1  0.000999  0  -0.091139  -0.03376  0  3.887189  0
C  C109  1  0.59240606  0.25273734  0.09591593  1  0.013021  0  -0.091173  -0.032304  0  3.887125  0
C  C110  1  0.66054067  0.25262870  0.59585584  1  0.001136  0  -0.091162  -0.033822  0  3.887086  0
C  C111  1  0.40759475  0.74726237  0.90408598  1  0.012755  0  -0.091086  -0.03217  0  3.886967  0
C  C112  1  0.31816997  0.85017687  0.45974005  1  -0.083666  0  -0.241464  -0.37099  0  3.942934  0
C  C113  1  0.46828067  0.14986189  0.04047409  1  -0.078724  0  -0.241292  -0.371169  0  3.942259  0
C  C114  1  0.68183087  0.14982115  0.54026071  1  -0.083665  0  -0.241444  -0.370936  0  3.942843  0
C  C115  1  0.53172014  0.85013782  0.95952639  1  -0.0788  0  -0.241302  -0.371203  0  3.942375  0
C  C116  1  0.36915570  0.58075423  0.42764025  1  1.522582  0  0.19667  0.619555  0  4.157949  0
C  C117  1  0.78823842  0.41949793  0.07236983  1  1.538837  0  0.197387  0.619767  0  4.158451  0
C  C118  1  0.63084511  0.41924548  0.57236309  1  1.522666  0  0.196501  0.619315  0  4.158294  0
C  C119  1  0.21176196  0.58050092  0.92762614  1  1.538837  0  0.19737  0.619743  0  4.158496  0
N  N120  1  0.07725697  0.39432292  0.13790844  1  -1.219019  0  -0.313303  -0.212575  0  3.46065  0
N  N121  1  0.68360599  0.60610240  0.36228211  1  -1.209943  0  -0.312937  -0.214239  0  3.460715  0
N  N122  1  0.92274000  0.60567257  0.86209095  1  -1.219027  0  -0.313299  -0.212565  0  3.46049  0
N  N123  1  0.31639687  0.39390489  0.63772034  1  -1.209987  0  -0.312954  -0.214192  0  3.460525  0
N  N124  1  0.04131316  0.72346555  0.13587555  1  -1.210277  0  -0.316718  -0.219566  0  3.485204  0
N  N125  1  0.31811386  0.27651275  0.36371894  1  -1.215178  0  -0.317262  -0.221563  0  3.487007  0
N  N126  1  0.95867817  0.27653079  0.86412691  1  -1.210209  0  -0.316717  -0.219494  0  3.485145  0
N  N127  1  0.68188865  0.72348864  0.63628054  1  -1.215723  0  -0.317211  -0.221482  0  3.487016  0
N  N128  1  0.01445630  0.01518738  0.12272757  1  -0.472017  0  -0.138968  -0.126326  0  3.260591  0
N  N129  1  0.99983050  0.98491355  0.37692174  1  -0.451148  0  -0.138664  -0.125938  0  3.259361  0
N  N130  1  0.98554016  0.98481231  0.87726647  1  -0.471533  0  -0.138952  -0.126272  0  3.260657  0
N  N131  1  0.00017286  0.01508953  0.62308105  1  -0.450948  0  -0.138572  -0.125898  0  3.259483  0
N  N132  1  0.11819298  0.10170152  0.12811084  1  -0.43972  0  -0.12918  -0.104421  0  3.229636  0
N  N133  1  0.01706451  0.89845367  0.37190560  1  -0.44758  0  -0.129399  -0.104443  0  3.228112  0
N  N134  1  0.88180479  0.89829903  0.87189343  1  -0.439833  0  -0.129211  -0.104496  0  3.229639  0
N  N135  1  0.98293886  0.10154770  0.62808959  1  -0.447518  0  -0.129394  -0.104401  0  3.228236  0
O  O136  1  0.12765222  0.62305271  0.31596415  1  -1.181875  0  -0.345211  -0.573875  0  2.191151  0
O  O137  1  0.50472156  0.37684705  0.18412631  1  -1.160296  0  -0.345548  -0.573884  0  2.190674  0
O  O138  1  0.87234135  0.37693942  0.68403865  1  -1.181663  0  -0.345208  -0.573871  0  2.191276  0
O  O139  1  0.49528609  0.62315770  0.81587334  1  -1.160249  0  -0.345569  -0.573934  0  2.190716  0
O  O140  1  0.28325643  0.69586530  0.22468558  1  -1.185051  0  -0.350541  -0.595105  0  2.151752  0
O  O141  1  0.58837659  0.30448730  0.27544494  1  -1.186059  0  -0.349802  -0.594547  0  2.151141  0
O  O142  1  0.71673409  0.30412767  0.77531458  1  -1.185172  0  -0.350586  -0.595133  0  2.151865  0
O  O143  1  0.41162550  0.69551324  0.72455504  1  -1.186049  0  -0.349796  -0.594579  0  2.151162  0
O  O144  1  0.37039307  0.54678111  0.33419965  1  -1.165232  0  -0.322685  -0.552116  0  2.156078  0
O  O145  1  0.82341010  0.45368666  0.16582920  1  -1.167311  0  -0.323176  -0.552523  0  2.155662  0
O  O146  1  0.62961462  0.45322197  0.66580457  1  -1.165206  0  -0.322522  -0.551958  0  2.156237  0
O  O147  1  0.17659328  0.54631471  0.83416671  1  -1.16744  0  -0.323192  -0.552581  0  2.155728  0
O  O148  1  0.40735718  0.54046126  0.48744373  1  -1.189367  0  -0.34816  -0.601118  0  2.360321  0
O  O149  1  0.86665208  0.45967952  0.01252196  1  -1.196295  0  -0.348683  -0.601763  0  2.360343  0
O  O150  1  0.59264363  0.45953844  0.51255818  1  -1.189503  0  -0.348177  -0.601075  0  2.360364  0
O  O151  1  0.13334747  0.54031595  0.98746956  1  -1.196035  0  -0.348674  -0.60168  0  2.360368  0
