# generated using pymatgen
data_CdH10C10N2Cl2O
_symmetry_space_group_name_H-M   'P 1'
_cell_length_a   3.83351976
_cell_length_b   16.44329482
_cell_length_c   18.33048727
_cell_angle_alpha   89.99985048
_cell_angle_beta   89.99988551
_cell_angle_gamma   89.99995135
_symmetry_Int_Tables_number   1
_chemical_formula_structural   CdH10C10N2Cl2O
_chemical_formula_sum   'Cd4 H40 C40 N8 Cl8 O4'
_cell_volume   1155.47501714
_cell_formula_units_Z   4
loop_
 _symmetry_equiv_pos_site_id
 _symmetry_equiv_pos_as_xyz
  1  'x, y, z'
loop_
 _atom_site_type_symbol
 _atom_site_label
 _atom_site_symmetry_multiplicity
 _atom_site_fract_x
 _atom_site_fract_y
 _atom_site_fract_z
 _atom_site_occupancy
 _atom_site_hle17_bader_spin_density
 _atom_site_hle17_ddec_charge
 _atom_site_hle17_ddec_spin_density
 _atom_site_hle17_ddec_sum_bond_order
 _atom_site_hle17_magmom
 _atom_site_hse06_10hf_bader_spin_density
 _atom_site_hse06_10hf_ddec_charge
 _atom_site_hse06_10hf_ddec_spin_density
 _atom_site_hse06_10hf_ddec_sum_bond_order
 _atom_site_hse06_10hf_magmom
 _atom_site_hse06_bader_spin_density
 _atom_site_hse06_ddec_charge
 _atom_site_hse06_ddec_spin_density
 _atom_site_hse06_ddec_sum_bond_order
 _atom_site_hse06_magmom
 _atom_site_pbe_bader_spin_density
 _atom_site_pbe_cm5_charge
 _atom_site_pbe_ddec_charge
 _atom_site_pbe_ddec_spin_density
 _atom_site_pbe_ddec_sum_bond_order
 _atom_site_pbe_magmom
Cd  Cd0  1  0.27010144  0.49744835  0.40422757  1  0  1.035673  0  1.904047  0  0  0.891524  0  2.358027  0  0  0.938521  0  2.313933  0  0  0.567887  0.857762  0  2.388523  0
Cd  Cd1  1  0.77010056  0.50255223  0.59577228  1  0  1.035645  0  1.904094  0  0  0.891488  0  2.358075  0  0  0.938482  0  2.313985  0  0  0.567885  0.857724  0  2.388565  0
Cd  Cd2  1  0.27010457  0.99744835  0.09577255  1  0  1.035643  0  1.904083  0  0  0.891484  0  2.358064  0  0  0.938476  0  2.313975  0  0  0.567883  0.857718  0  2.388564  0
Cd  Cd3  1  0.77010264  0.00255163  0.90422730  1  0  1.035636  0  1.904067  0  0  0.891477  0  2.358052  0  0  0.938474  0  2.31396  0  0  0.56788  0.857715  0  2.388558  0
H  H4  1  0.04979887  0.18267719  0.20748744  1  0  0.291922  0  0.932602  0  0  0.27409  0  1.001041  0  0  0.281561  0  0.995132  0  0  0.298969  0.26871  0  1.005491  0
H  H5  1  0.54980281  0.81732282  0.79251305  1  0  0.291914  0  0.932617  0  0  0.274083  0  1.001047  0  0  0.281554  0  0.995139  0  0  0.298968  0.268706  0  1.0055  0
H  H6  1  0.04980277  0.68267784  0.29251242  1  0  0.291881  0  0.932659  0  0  0.27402  0  1.00113  0  0  0.281493  0  0.995221  0  0  0.29895  0.268639  0  1.005581  0
H  H7  1  0.54980152  0.31732279  0.70748752  1  0  0.291889  0  0.932636  0  0  0.274052  0  1.001082  0  0  0.281524  0  0.995174  0  0  0.298953  0.268674  0  1.005536  0
H  H8  1  0.48101508  0.29385107  0.39424767  1  0  0.155814  0  0.982936  0  0  0.162653  0  1.046947  0  0  0.16697  0  1.045104  0  0  0.096032  0.159543  0  1.048514  0
H  H9  1  0.98102379  0.70615069  0.60575318  1  0  0.155801  0  0.982915  0  0  0.162647  0  1.046915  0  0  0.16696  0  1.045078  0  0  0.096013  0.159538  0  1.048482  0
H  H10  1  0.48101812  0.79384982  0.10575229  1  0  0.155816  0  0.982925  0  0  0.162657  0  1.046926  0  0  0.166971  0  1.045088  0  0  0.096038  0.159549  0  1.048493  0
H  H11  1  0.98101553  0.20614768  0.89424692  1  0  0.155805  0  0.982977  0  0  0.162643  0  1.046986  0  0  0.166976  0  1.045123  0  0  0.09602  0.159534  0  1.048551  0
H  H12  1  0.56698916  0.09408773  0.28736583  1  0  0.134081  0  0.955822  0  0  0.151031  0  1.020324  0  0  0.154092  0  1.018402  0  0  0.092324  0.148831  0  1.021718  0
H  H13  1  0.06699607  0.90591411  0.71263519  1  0  0.134058  0  0.955815  0  0  0.15101  0  1.020315  0  0  0.154071  0  1.018394  0  0  0.092317  0.148814  0  1.021706  0
H  H14  1  0.56699120  0.59408678  0.21263510  1  0  0.134068  0  0.95581  0  0  0.151017  0  1.02031  0  0  0.154079  0  1.018388  0  0  0.092304  0.14882  0  1.021703  0
H  H15  1  0.06699403  0.40591142  0.78736647  1  0  0.13407  0  0.955766  0  0  0.151017  0  1.020271  0  0  0.154077  0  1.018351  0  0  0.092305  0.148817  0  1.021665  0
H  H16  1  0.17530190  0.08821417  0.33755717  1  0  0.125924  0  0.940106  0  0  0.147316  0  1.000326  0  0  0.149559  0  0.999519  0  0  0.099846  0.145748  0  1.000883  0
H  H17  1  0.67530931  0.91178704  0.66244490  1  0  0.125949  0  0.940122  0  0  0.1473  0  1.000391  0  0  0.149544  0  0.999581  0  0  0.099824  0.145731  0  1.000947  0
H  H18  1  0.17530441  0.58821337  0.16244395  1  0  0.125949  0  0.940099  0  0  0.147306  0  1.00036  0  0  0.149549  0  0.999551  0  0  0.099834  0.145739  0  1.000915  0
H  H19  1  0.67530942  0.41178541  0.83755649  1  0  0.125931  0  0.940159  0  0  0.147266  0  1.000437  0  0  0.149509  0  0.999629  0  0  0.099829  0.1457  0  1.00099  0
H  H20  1  0.55782215  0.12708159  0.38039169  1  0  0.120203  0  0.954015  0  0  0.142445  0  1.011909  0  0  0.143979  0  1.011585  0  0  0.099157  0.141335  0  1.012178  0
H  H21  1  0.05783005  0.87292025  0.61960934  1  0  0.120197  0  0.95405  0  0  0.142435  0  1.011945  0  0  0.143969  0  1.011622  0  0  0.099145  0.141326  0  1.012211  0
H  H22  1  0.55782767  0.62707969  0.11960862  1  0  0.120172  0  0.954075  0  0  0.142412  0  1.011966  0  0  0.143946  0  1.011643  0  0  0.099134  0.141302  0  1.012234  0
H  H23  1  0.05782453  0.37291789  0.88039240  1  0  0.120185  0  0.954048  0  0  0.14243  0  1.011937  0  0  0.143965  0  1.011611  0  0  0.099154  0.141319  0  1.012206  0
H  H24  1  0.75468843  0.44217560  0.21303458  1  0  0.120002  0  0.960342  0  0  0.127468  0  1.025049  0  0  0.131354  0  1.022212  0  0  0.105031  0.124577  0  1.027242  0
H  H25  1  0.25469593  0.55782438  0.78696473  1  0  0.11998  0  0.960412  0  0  0.127455  0  1.025113  0  0  0.131338  0  1.022274  0  0  0.105019  0.124559  0  1.027305  0
H  H26  1  0.75469499  0.94217686  0.28696383  1  0  0.120061  0  0.960334  0  0  0.127479  0  1.025099  0  0  0.131359  0  1.022263  0  0  0.105038  0.124598  0  1.027275  0
H  H27  1  0.25468937  0.05782494  0.71303548  1  0  0.119987  0  0.960368  0  0  0.127451  0  1.025078  0  0  0.131338  0  1.022241  0  0  0.105016  0.124558  0  1.027268  0
H  H28  1  0.55491427  0.49629147  0.09324287  1  0  0.072482  0  0.992835  0  0  0.08481  0  1.057403  0  0  0.086349  0  1.05777  0  0  0.094639  0.083686  0  1.057203  0
H  H29  1  0.05491822  0.50370794  0.90675653  1  0  0.072482  0  0.992823  0  0  0.084809  0  1.057393  0  0  0.086348  0  1.057759  0  0  0.094641  0.083683  0  1.057186  0
H  H30  1  0.55491969  0.99629299  0.40675659  1  0  0.072488  0  0.992822  0  0  0.084816  0  1.057388  0  0  0.086357  0  1.057755  0  0  0.094638  0.083689  0  1.057181  0
H  H31  1  0.05491540  0.00370885  0.59324390  1  0  0.072493  0  0.992848  0  0  0.08482  0  1.057412  0  0  0.08636  0  1.05778  0  0  0.094653  0.083695  0  1.057204  0
H  H32  1  0.68096932  0.42237858  0.97914791  1  0  0.076181  0  0.974728  0  0  0.087529  0  1.039556  0  0  0.089559  0  1.039568  0  0  0.093925  0.086011  0  1.03973  0
H  H33  1  0.18096829  0.57762081  0.02085198  1  0  0.07619  0  0.974747  0  0  0.087518  0  1.03959  0  0  0.089548  0  1.039603  0  0  0.09393  0.086001  0  1.039762  0
H  H34  1  0.68097056  0.92237940  0.52085127  1  0  0.07621  0  0.974716  0  0  0.087554  0  1.039545  0  0  0.089584  0  1.039557  0  0  0.09394  0.086035  0  1.039717  0
H  H35  1  0.18097228  0.07762120  0.47914807  1  0  0.076206  0  0.974711  0  0  0.087551  0  1.039542  0  0  0.089581  0  1.039554  0  0  0.093936  0.086034  0  1.039717  0
H  H36  1  0.01729747  0.29115494  0.98432319  1  0  0.080466  0  0.968471  0  0  0.095354  0  1.02398  0  0  0.097382  0  1.023439  0  0  0.096383  0.093858  0  1.024487  0
H  H37  1  0.51729085  0.70884448  0.01567731  1  0  0.080391  0  0.968493  0  0  0.095305  0  1.02398  0  0  0.097335  0  1.023435  0  0  0.096354  0.093811  0  1.024491  0
H  H38  1  0.01729614  0.79115577  0.51567658  1  0  0.08044  0  0.968452  0  0  0.095336  0  1.023957  0  0  0.097366  0  1.023411  0  0  0.096375  0.093842  0  1.024463  0
H  H39  1  0.51729740  0.20884486  0.48432283  1  0  0.080399  0  0.968476  0  0  0.095297  0  1.023981  0  0  0.097327  0  1.023437  0  0  0.096367  0.093802  0  1.024486  0
H  H40  1  0.22616460  0.23826960  0.10152071  1  0  0.107886  0  0.957941  0  0  0.113923  0  1.027248  0  0  0.117282  0  1.02535  0  0  0.099322  0.111471  0  1.028743  0
H  H41  1  0.72616514  0.76173039  0.89847971  1  0  0.107943  0  0.957893  0  0  0.113941  0  1.027246  0  0  0.117297  0  1.025348  0  0  0.099331  0.111492  0  1.028745  0
H  H42  1  0.22616489  0.73827115  0.39847895  1  0  0.107933  0  0.957886  0  0  0.113935  0  1.027236  0  0  0.117293  0  1.025335  0  0  0.099312  0.111486  0  1.028733  0
H  H43  1  0.72616485  0.26173066  0.60152037  1  0  0.107964  0  0.957921  0  0  0.113966  0  1.027271  0  0  0.117322  0  1.025373  0  0  0.099353  0.111515  0  1.028763  0
C  C44  1  0.22958594  0.34520895  0.29511391  1  0  0.494067  0  3.860829  0  0  0.447094  0  4.154356  0  0  0.476385  0  4.157125  0  0  0.204411  0.427571  0  4.15167  0
C  C45  1  0.72959391  0.65478860  0.70488650  1  0  0.494033  0  3.860944  0  0  0.447082  0  4.154472  0  0  0.476376  0  4.157245  0  0  0.204426  0.427553  0  4.151788  0
C  C46  1  0.22959327  0.84521107  0.20488550  1  0  0.494106  0  3.860779  0  0  0.447079  0  4.154367  0  0  0.476372  0  4.157144  0  0  0.204433  0.427551  0  4.151686  0
C  C47  1  0.72958397  0.15478831  0.79511328  1  0  0.493977  0  3.860948  0  0  0.44706  0  4.154454  0  0  0.47635  0  4.157228  0  0  0.204405  0.427531  0  4.151773  0
C  C48  1  0.36173332  0.28286553  0.34162117  1  0  -0.412188  0  3.692925  0  0  -0.441728  0  3.961516  0  0  -0.457534  0  3.976403  0  0  -0.140077  -0.431369  0  3.951425  0
C  C49  1  0.86174150  0.71713626  0.65837864  1  0  -0.412231  0  3.692898  0  0  -0.441815  0  3.961468  0  0  -0.457619  0  3.976359  0  0  -0.140097  -0.431455  0  3.951374  0
C  C50  1  0.36173587  0.78286413  0.15837778  1  0  -0.412222  0  3.692857  0  0  -0.441751  0  3.961482  0  0  -0.457561  0  3.976372  0  0  -0.140113  -0.431391  0  3.951394  0
C  C51  1  0.86173634  0.21713401  0.84162149  1  0  -0.412242  0  3.692915  0  0  -0.441794  0  3.961485  0  0  -0.457613  0  3.976355  0  0  -0.140128  -0.431436  0  3.951397  0
C  C52  1  0.32440762  0.20938396  0.30588190  1  0  0.321909  0  3.763304  0  0  0.311823  0  4.032672  0  0  0.327735  0  4.047302  0  0  0.108551  0.301568  0  4.022174  0
C  C53  1  0.82441257  0.79061661  0.69412065  1  0  0.321835  0  3.763581  0  0  0.311841  0  4.032816  0  0  0.327749  0  4.047452  0  0  0.108533  0.301598  0  4.022311  0
C  C54  1  0.32440461  0.70938306  0.19411833  1  0  0.321895  0  3.763392  0  0  0.311769  0  4.032779  0  0  0.327691  0  4.047401  0  0  0.108552  0.301517  0  4.022281  0
C  C55  1  0.82440775  0.29061569  0.80588095  1  0  0.321924  0  3.763378  0  0  0.311851  0  4.032695  0  0  0.327763  0  4.047329  0  0  0.108571  0.301601  0  4.022195  0
C  C56  1  0.41092345  0.12525783  0.32919887  1  0  -0.365967  0  3.689793  0  0  -0.442036  0  3.919677  0  0  -0.445841  0  3.923797  0  0  -0.233244  -0.439195  0  3.916575  0
C  C57  1  0.91092832  0.87474272  0.67080255  1  0  -0.365928  0  3.689883  0  0  -0.441988  0  3.919746  0  0  -0.445792  0  3.923868  0  0  -0.23318  -0.43915  0  3.916636  0
C  C58  1  0.41092588  0.62525700  0.17080151  1  0  -0.365931  0  3.68982  0  0  -0.441968  0  3.919716  0  0  -0.445774  0  3.923834  0  0  -0.233172  -0.439129  0  3.916612  0
C  C59  1  0.91092589  0.37474112  0.82919882  1  0  -0.365924  0  3.689813  0  0  -0.441949  0  3.9197  0  0  -0.445753  0  3.923823  0  0  -0.233198  -0.43911  0  3.916596  0
C  C60  1  0.00149331  0.33700643  0.16463571  1  0  0.177159  0  3.77457  0  0  0.168814  0  4.028002  0  0  0.175684  0  4.048087  0  0  0.095264  0.164158  0  4.014454  0
C  C61  1  0.50149741  0.66299299  0.83536534  1  0  0.177173  0  3.77465  0  0  0.168934  0  4.02797  0  0  0.175803  0  4.048057  0  0  0.095307  0.164271  0  4.014428  0
C  C62  1  0.00149420  0.83700695  0.33536381  1  0  0.17717  0  3.774501  0  0  0.16884  0  4.027889  0  0  0.175715  0  4.047967  0  0  0.09524  0.164178  0  4.014353  0
C  C63  1  0.50149914  0.16299308  0.66463506  1  0  0.17716  0  3.774649  0  0  0.168935  0  4.027967  0  0  0.175811  0  4.048045  0  0  0.095299  0.164271  0  4.014421  0
C  C64  1  0.81663702  0.41056582  0.16254167  1  0  -0.14021  0  3.707968  0  0  -0.16434  0  3.962249  0  0  -0.167429  0  3.980868  0  0  -0.091924  -0.162248  0  3.949872  0
C  C65  1  0.31663871  0.58943354  0.83745761  1  0  -0.14027  0  3.708136  0  0  -0.164433  0  3.962388  0  0  -0.167523  0  3.98101  0  0  -0.091951  -0.162331  0  3.950001  0
C  C66  1  0.81664049  0.91056755  0.33745733  1  0  -0.140333  0  3.708098  0  0  -0.164436  0  3.962391  0  0  -0.167528  0  3.98102  0  0  -0.091949  -0.162347  0  3.95  0
C  C67  1  0.31663784  0.08943485  0.66254195  1  0  -0.140191  0  3.708031  0  0  -0.164354  0  3.962307  0  0  -0.167441  0  3.980908  0  0  -0.091913  -0.16227  0  3.949955  0
C  C68  1  0.70791735  0.44069432  0.09525867  1  0  -0.064152  0  3.804397  0  0  -0.075342  0  4.05064  0  0  -0.077299  0  4.074411  0  0  -0.095218  -0.073901  0  4.034481  0
C  C69  1  0.20792112  0.55930506  0.90474066  1  0  -0.064108  0  3.804391  0  0  -0.075297  0  4.050628  0  0  -0.077253  0  4.074396  0  0  -0.095208  -0.073849  0  4.034453  0
C  C70  1  0.70792541  0.94069524  0.40474085  1  0  -0.064176  0  3.804477  0  0  -0.075356  0  4.0507  0  0  -0.077316  0  4.074471  0  0  -0.095223  -0.073906  0  4.034528  0
C  C71  1  0.20792089  0.05930535  0.59525957  1  0  -0.064148  0  3.804398  0  0  -0.075335  0  4.050636  0  0  -0.077293  0  4.07441  0  0  -0.095211  -0.07389  0  4.034466  0
C  C72  1  0.77670308  0.39846807  0.03082670  1  0  -0.089143  0  3.796829  0  0  -0.104499  0  4.043983  0  0  -0.107436  0  4.06749  0  0  -0.100232  -0.102493  0  4.028054  0
C  C73  1  0.27670348  0.60153129  0.96917315  1  0  -0.089157  0  3.796807  0  0  -0.104501  0  4.043981  0  0  -0.107438  0  4.067488  0  0  -0.100224  -0.102495  0  4.028051  0
C  C74  1  0.77670010  0.89846820  0.46917234  1  0  -0.089116  0  3.796802  0  0  -0.104476  0  4.043967  0  0  -0.107413  0  4.067475  0  0  -0.10022  -0.102468  0  4.028033  0
C  C75  1  0.27670386  0.10153238  0.53082696  1  0  -0.089178  0  3.796831  0  0  -0.104542  0  4.043995  0  0  -0.107479  0  4.067503  0  0  -0.100239  -0.102536  0  4.028066  0
C  C76  1  0.95946475  0.32517678  0.03382939  1  0  -0.053506  0  3.787326  0  0  -0.06236  0  4.028958  0  0  -0.063858  0  4.051031  0  0  -0.091282  -0.061239  0  4.013948  0
C  C77  1  0.45946491  0.67482194  0.96617037  1  0  -0.053417  0  3.787308  0  0  -0.062281  0  4.028918  0  0  -0.063781  0  4.050991  0  0  -0.091246  -0.061163  0  4.013915  0
C  C78  1  0.95946701  0.82517752  0.46616974  1  0  -0.053488  0  3.787251  0  0  -0.062341  0  4.028867  0  0  -0.063841  0  4.05094  0  0  -0.091256  -0.061219  0  4.013852  0
C  C79  1  0.45946526  0.17482241  0.53382948  1  0  -0.053389  0  3.787329  0  0  -0.062235  0  4.028938  0  0  -0.063735  0  4.05101  0  0  -0.091247  -0.061115  0  4.013925  0
C  C80  1  0.07423624  0.29421096  0.10031394  1  0  -0.145023  0  3.730843  0  0  -0.168157  0  3.984744  0  0  -0.171428  0  4.004501  0  0  -0.094967  -0.165889  0  3.971338  0
C  C81  1  0.57424219  0.70578906  0.89968708  1  0  -0.145082  0  3.730911  0  0  -0.168217  0  3.984803  0  0  -0.17149  0  4.004568  0  0  -0.095005  -0.165953  0  3.971411  0
C  C82  1  0.07424174  0.79421129  0.39968619  1  0  -0.145041  0  3.730814  0  0  -0.168155  0  3.984721  0  0  -0.171429  0  4.004484  0  0  -0.094963  -0.165887  0  3.971323  0
C  C83  1  0.57423931  0.20578994  0.60031210  1  0  -0.14514  0  3.730955  0  0  -0.168282  0  3.984845  0  0  -0.171556  0  4.00461  0  0  -0.095057  -0.16601  0  3.971435  0
N  N84  1  0.11168161  0.30514409  0.23233605  1  0  -0.079367  0  3.428173  0  0  -0.011467  0  3.654428  0  0  -0.02687  0  3.677108  0  0  -0.14007  -0.0013  0  3.639046  0
N  N85  1  0.61168362  0.69485713  0.76766496  1  0  -0.079364  0  3.42819  0  0  -0.011575  0  3.654522  0  0  -0.026983  0  3.677204  0  0  -0.140053  -0.001401  0  3.639142  0
N  N86  1  0.11168313  0.80514359  0.26766349  1  0  -0.079408  0  3.428093  0  0  -0.011501  0  3.654315  0  0  -0.026908  0  3.676998  0  0  -0.140047  -0.001331  0  3.638935  0
N  N87  1  0.61168210  0.19485642  0.73233533  1  0  -0.079389  0  3.428242  0  0  -0.011635  0  3.65458  0  0  -0.027039  0  3.677259  0  0  -0.140042  -0.001458  0  3.639197  0
N  N88  1  0.18734848  0.22366831  0.23881495  1  0  -0.27081  0  3.33058  0  0  -0.233103  0  3.570603  0  0  -0.247162  0  3.584756  0  0  -0.298966  -0.223742  0  3.561041  0
N  N89  1  0.68735025  0.77633229  0.76118602  1  0  -0.270796  0  3.330778  0  0  -0.233066  0  3.570757  0  0  -0.247119  0  3.584907  0  0  -0.298992  -0.223715  0  3.561201  0
N  N90  1  0.18735006  0.72366783  0.26118475  1  0  -0.270783  0  3.33072  0  0  -0.232983  0  3.570637  0  0  -0.247048  0  3.584794  0  0  -0.298948  -0.223617  0  3.561075  0
N  N91  1  0.68734867  0.27633216  0.73881513  1  0  -0.27076  0  3.330646  0  0  -0.232998  0  3.570652  0  0  -0.247057  0  3.584808  0  0  -0.298966  -0.22364  0  3.561089  0
Cl  Cl92  1  0.77054216  0.41134806  0.47129397  1  0  -0.543708  0  1.118683  0  0  -0.470571  0  1.406291  0  0  -0.493345  0  1.385742  0  0  -0.258144  -0.454096  0  1.420366  0
Cl  Cl93  1  0.27054414  0.58865252  0.52870533  1  0  -0.54371  0  1.118691  0  0  -0.470577  0  1.406309  0  0  -0.493355  0  1.385768  0  0  -0.25814  -0.454104  0  1.420386  0
Cl  Cl94  1  0.77054853  0.91134826  0.02870668  1  0  -0.543707  0  1.118674  0  0  -0.470575  0  1.406296  0  0  -0.493349  0  1.385747  0  0  -0.258137  -0.454095  0  1.420382  0
Cl  Cl95  1  0.27054559  0.08865172  0.97129426  1  0  -0.543705  0  1.118677  0  0  -0.470572  0  1.406294  0  0  -0.493346  0  1.385749  0  0  -0.258134  -0.454089  0  1.420373  0
Cl  Cl96  1  0.76956156  0.59015608  0.35252278  1  0  -0.551985  0  1.055401  0  0  -0.494163  0  1.342264  0  0  -0.513067  0  1.321411  0  0  -0.273842  -0.48046  0  1.356877  0
Cl  Cl97  1  0.26956048  0.40984512  0.64747761  1  0  -0.551973  0  1.055414  0  0  -0.49415  0  1.34228  0  0  -0.513057  0  1.321427  0  0  -0.273835  -0.480453  0  1.356888  0
Cl  Cl98  1  0.76956345  0.09015500  0.14747917  1  0  -0.551976  0  1.055404  0  0  -0.494148  0  1.342265  0  0  -0.513059  0  1.321418  0  0  -0.273836  -0.480447  0  1.356874  0
Cl  Cl99  1  0.26956120  0.90984437  0.85252231  1  0  -0.551971  0  1.055417  0  0  -0.494151  0  1.342268  0  0  -0.513055  0  1.321417  0  0  -0.273828  -0.480443  0  1.356882  0
O  O100  1  0.21774287  0.42216919  0.30117258  1  0  -0.59771  0  2.069815  0  0  -0.538097  0  2.328038  0  0  -0.565134  0  2.319745  0  0  -0.333793  -0.518899  0  2.332787  0
O  O101  1  0.71775639  0.57783140  0.69882784  1  0  -0.597572  0  2.069956  0  0  -0.537961  0  2.328186  0  0  -0.56498  0  2.319862  0  0  -0.333771  -0.518759  0  2.332929  0
O  O102  1  0.21775808  0.92216950  0.19882719  1  0  -0.59764  0  2.069906  0  0  -0.538012  0  2.328167  0  0  -0.565024  0  2.319827  0  0  -0.333788  -0.51881  0  2.332917  0
O  O103  1  0.71773857  0.07782988  0.80117158  1  0  -0.597585  0  2.069945  0  0  -0.537964  0  2.328124  0  0  -0.565005  0  2.319845  0  0  -0.333765  -0.518761  0  2.332874  0
