# generated using pymatgen
data_CuH19C27(NO2)3
_symmetry_space_group_name_H-M   'P 1'
_cell_length_a   10.13632483
_cell_length_b   10.21477163
_cell_length_c   13.43860000
_cell_angle_alpha   95.50318115
_cell_angle_beta   92.13210257
_cell_angle_gamma   92.54945926
_symmetry_Int_Tables_number   1
_chemical_formula_structural   CuH19C27(NO2)3
_chemical_formula_sum   'Cu2 H38 C54 N6 O12'
_cell_volume   1382.44801819
_cell_formula_units_Z   2
loop_
 _symmetry_equiv_pos_site_id
 _symmetry_equiv_pos_as_xyz
  1  'x, y, z'
loop_
 _atom_site_type_symbol
 _atom_site_label
 _atom_site_symmetry_multiplicity
 _atom_site_fract_x
 _atom_site_fract_y
 _atom_site_fract_z
 _atom_site_occupancy
 _atom_site_pbe_bader_charge
 _atom_site_pbe_bader_spin_density
 _atom_site_pbe_cm5_charge
 _atom_site_pbe_ddec_charge
 _atom_site_pbe_ddec_spin_density
 _atom_site_pbe_ddec_sum_bond_order
 _atom_site_pbe_magmom
Cu  Cu0  1  0.12338720  0.35823003  0.95375746  1  1.08626  -0.570782  0.739094  0.790624  -0.759138  2.245309  -0.569
Cu  Cu1  1  0.87660433  0.64176103  0.04623384  1  1.086036  0.570756  0.73901  0.790703  0.759121  2.245032  0.569
H  H2  1  0.29938874  0.49894638  0.10806209  1  0.138625  -0.001883  0.12398  0.102801  -0.000887  1.009913  -0.001
H  H3  1  0.70059535  0.50101318  0.89191330  1  0.138587  0.001884  0.124015  0.102812  0.000888  1.00965  0.001
H  H4  1  0.97314774  0.24237234  0.11492800  1  0.139502  -0.001648  0.127619  0.108476  -0.000745  0.9848  -0.001
H  H5  1  0.02684886  0.75760100  0.88507703  1  0.139627  0.001648  0.127632  0.108533  0.000746  0.984687  0.001
H  H6  1  0.97563177  0.26524001  0.29931909  1  0.118632  -0.001027  0.114317  0.130052  -0.000537  1.005326  -0.001
H  H7  1  0.02436869  0.73475204  0.70067848  1  0.118356  0.001027  0.114326  0.130125  0.000537  1.005321  0.001
H  H8  1  0.31833450  0.53432708  0.29444414  1  0.085175  -0.001119  0.110518  0.11939  -0.000594  0.984998  -0.001
H  H9  1  0.68167137  0.46565414  0.70552601  1  0.084693  0.00112  0.110458  0.119263  0.000594  0.984945  0.001
H  H10  1  0.42918553  0.63401867  0.00151939  1  0.126983  0.000455  0.106906  0.121794  0.000348  1.005358  0.0
H  H11  1  0.57079394  0.36598815  0.99845189  1  0.127685  -0.000454  0.106907  0.121811  -0.000348  1.005288  0.0
H  H12  1  0.58924635  0.00534964  0.14347775  1  0.122832  2.5e-05  0.109657  0.123008  -1e-06  0.9964  0.0
H  H13  1  0.41075633  0.99464733  0.85650462  1  0.122637  -2.5e-05  0.109681  0.123077  1e-06  0.996492  0.0
H  H14  1  0.16606676  0.93392156  0.09814647  1  0.076203  0.000166  0.106744  0.113938  0.000157  1.002447  0.0
H  H15  1  0.83392783  0.06607147  0.90187333  1  0.076279  -0.000166  0.106763  0.113892  -0.000156  1.002416  0.0
H  H16  1  0.43875382  0.18458971  0.18297315  1  0.085383  2.9e-05  0.123531  0.113854  2.2e-05  0.959495  0.0
H  H17  1  0.56126145  0.81540234  0.81704047  1  0.085247  -3e-05  0.123523  0.113912  -2.3e-05  0.959494  0.0
H  H18  1  0.26799024  0.16272934  0.14500856  1  0.113698  7.7e-05  0.11813  0.110136  6.1e-05  1.008105  0.0
H  H19  1  0.73200991  0.83727649  0.85501233  1  0.113526  -7.7e-05  0.118164  0.110082  -6.2e-05  1.008056  0.0
H  H20  1  0.51304723  0.14411538  0.33833142  1  0.16925  8e-06  0.134465  0.125312  6e-06  0.995288  0.0
H  H21  1  0.48696865  0.85586879  0.66167419  1  0.169162  -8e-06  0.134441  0.12534  -6e-06  0.995197  0.0
H  H22  1  0.46296318  0.10283167  0.51528446  1  0.105508  6e-06  0.115774  0.127479  4e-06  1.004922  0.0
H  H23  1  0.53707818  0.89714856  0.48471861  1  0.106263  -6e-06  0.115768  0.127386  -4e-06  1.005043  0.0
H  H24  1  0.05831087  0.00873194  0.41623855  1  0.199999  9e-06  0.116421  0.139353  6e-06  1.041112  0.0
H  H25  1  0.94172488  0.99123451  0.58378940  1  0.199516  -9e-06  0.116438  0.139351  -6e-06  1.041087  0.0
H  H26  1  0.11890302  0.06160014  0.24547298  1  0.111337  0.0  0.136867  0.114144  -1e-06  0.983644  0.0
H  H27  1  0.88110018  0.93840766  0.75456079  1  0.110709  -0.0  0.136827  0.114049  1e-06  0.983477  0.0
H  H28  1  0.01157815  0.27862544  0.45228890  1  0.122905  -5.4e-05  0.108417  0.121425  -5.9e-05  1.026036  0.0
H  H29  1  0.98842324  0.72140600  0.54771380  1  0.122478  5.4e-05  0.108426  0.121372  5.9e-05  1.025918  0.0
H  H30  1  0.24159387  0.48851788  0.45532515  1  0.067846  -0.00014  0.102044  0.098474  -0.000111  1.000806  0.0
H  H31  1  0.75841015  0.51150666  0.54465852  1  0.067733  0.00014  0.102099  0.098572  0.000111  1.000927  0.0
H  H32  1  0.95002485  0.20397564  0.59784114  1  0.125122  -0.000842  0.105942  0.115524  -0.000451  1.041451  -0.001
H  H33  1  0.05000918  0.79601641  0.40214175  1  0.125485  0.000842  0.105909  0.115486  0.000451  1.041631  0.001
H  H34  1  0.25975404  0.51117877  0.62192636  1  0.053936  -0.001179  0.107605  0.11289  -0.000618  0.995569  -0.001
H  H35  1  0.74018801  0.48891174  0.37808940  1  0.054088  0.00118  0.107629  0.112816  0.000618  0.9956  0.001
H  H36  1  0.96735014  0.20949956  0.78618329  1  0.136856  -0.001679  0.118662  0.094323  -0.000823  1.02272  -0.002
H  H37  1  0.03265160  0.79049839  0.21380582  1  0.137353  0.001677  0.118705  0.094411  0.000823  1.022801  0.002
H  H38  1  0.26388017  0.50178219  0.80697622  1  0.144226  -0.001776  0.123553  0.109789  -0.000857  0.994171  -0.001
H  H39  1  0.73605975  0.49828469  0.19304073  1  0.142396  0.001778  0.12365  0.109903  0.000857  0.99392  0.001
C  C40  1  0.22919058  0.45128603  0.15405790  1  0.454874  0.001503  0.046978  0.098259  0.000355  3.936799  0.001
C  C41  1  0.77080047  0.54869519  0.84591927  1  0.455272  -0.001501  0.046932  0.098071  -0.000353  3.936876  -0.001
C  C42  1  0.04652226  0.30780082  0.15773725  1  0.384204  0.001006  0.048588  0.097857  2e-06  3.94296  0.001
C  C43  1  0.95346189  0.69218039  0.84226280  1  0.384371  -0.001008  0.048826  0.098304  -5e-06  3.942385  -0.001
C  C44  1  0.04967001  0.32084064  0.26137534  1  0.043569  -0.004655  -0.081079  -0.181713  -0.003322  3.920138  -0.004
C  C45  1  0.95032190  0.67915830  0.73861579  1  0.043848  0.004655  -0.081191  -0.182084  0.003322  3.919953  0.004
C  C46  1  0.23916190  0.46916740  0.25780733  1  -0.044405  -0.005044  -0.086502  -0.185865  -0.003553  3.93792  -0.004
C  C47  1  0.76083476  0.53082760  0.74217101  1  -0.044343  0.005044  -0.086414  -0.185563  0.003552  3.938202  0.004
C  C48  1  0.16770441  0.68377339  0.01631136  1  1.563693  0.000305  0.200679  0.56342  0.001571  4.242392  -0.001
C  C49  1  0.83227491  0.31623047  0.98369913  1  1.563621  -0.000303  0.200564  0.563308  -0.001571  4.242687  0.001
C  C50  1  0.28556172  0.77485023  0.04833289  1  -0.068041  0.009213  -0.021598  -0.027968  0.006495  3.986965  0.007
C  C51  1  0.71442244  0.22515167  0.95166123  1  -0.068127  -0.009216  -0.021503  -0.027646  -0.006497  3.986673  -0.007
C  C52  1  0.41419207  0.73271774  0.03663555  1  -0.013234  0.001132  -0.079845  -0.119872  0.000922  3.923197  0.001
C  C53  1  0.58578955  0.26727234  0.96335316  1  -0.013606  -0.001132  -0.079825  -0.120006  -0.000922  3.923208  -0.001
C  C54  1  0.52269544  0.81687440  0.07028697  1  -0.034627  0.009892  -0.015838  -0.012105  0.007116  3.967519  0.008
C  C55  1  0.47728881  0.18312946  0.92968347  1  -0.035624  -0.009886  -0.016034  -0.012156  -0.007112  3.967536  -0.008
C  C56  1  0.50277550  0.94270963  0.11672389  1  -0.037828  0.000712  -0.071194  -0.120879  0.000465  3.901017  0.001
C  C57  1  0.49722511  0.05728537  0.88326274  1  -0.036918  -0.00071  -0.071139  -0.120869  -0.000464  3.900895  -0.001
C  C58  1  0.37480341  0.98485787  0.12831806  1  0.046509  0.00091  -0.017271  0.079408  0.00057  4.004408  0.001
C  C59  1  0.62519824  0.01513812  0.87168802  1  0.046427  -0.00091  -0.017309  0.079341  -0.00057  4.004713  -0.001
C  C60  1  0.26681767  0.90152241  0.09295959  1  -0.054457  -0.000582  -0.0812  -0.131828  -0.000374  3.936711  -0.001
C  C61  1  0.73317123  0.09847555  0.90704925  1  -0.054433  0.000584  -0.081198  -0.131808  0.000375  3.936686  0.001
C  C62  1  0.14860611  0.40330763  0.31508666  1  0.028942  0.003632  0.005161  0.145456  0.00245  4.038701  0.002
C  C63  1  0.85137720  0.59669722  0.68490616  1  0.028973  -0.003629  0.005236  0.145607  -0.002449  4.038656  -0.002
C  C64  1  0.35090433  0.11786049  0.18134596  1  0.229024  0.00026  -0.042832  -0.129585  0.000193  3.857759  0.0
C  C65  1  0.64909567  0.88214239  0.81866876  1  0.229077  -0.00026  -0.042909  -0.129647  -0.000193  3.858125  0.0
C  C66  1  0.66207021  0.77609286  0.05805575  1  1.566605  -0.001552  0.185145  0.545539  -9e-05  4.242609  -0.004
C  C67  1  0.33792086  0.22390903  0.94191177  1  1.566541  0.001556  0.185316  0.545594  9.4e-05  4.242353  0.004
C  C68  1  0.41330521  0.11944382  0.36039831  1  0.36302  0.00012  0.067411  0.047016  8.6e-05  3.826726  0.0
C  C69  1  0.58671881  0.88054528  0.63961236  1  0.363201  -0.00012  0.067356  0.046759  -8.6e-05  3.826879  0.0
C  C70  1  0.38543070  0.09161249  0.45652399  1  0.042147  -3.4e-05  -0.068686  -0.130102  -1.8e-05  3.949422  0.0
C  C71  1  0.61459985  0.90836873  0.54348927  1  0.041921  3.4e-05  -0.068619  -0.129794  1.8e-05  3.94928  0.0
C  C72  1  0.16063198  0.03569283  0.40169813  1  -0.002559  2e-06  -0.06744  -0.126494  5e-06  3.930411  0.0
C  C73  1  0.83939885  0.96429429  0.59832821  1  -0.00219  -2e-06  -0.067475  -0.126887  -5e-06  3.930676  0.0
C  C74  1  0.19146597  0.06734660  0.30747522  1  0.402886  6.6e-05  0.0616  0.031892  4.7e-05  3.85956  0.0
C  C75  1  0.80854596  0.93263757  0.69254963  1  0.404058  -6.6e-05  0.061581  0.032087  -4.7e-05  3.859682  0.0
C  C76  1  0.26016821  0.04101293  0.47751612  1  0.000365  0.00015  0.01908  0.042605  0.000103  3.854151  0.0
C  C77  1  0.73987065  0.95895647  0.52250321  1  0.000446  -0.00015  0.019211  0.043011  -0.000103  3.85398  0.0
C  C78  1  0.23713507  0.97965593  0.57633037  1  1.656155  5e-06  0.176683  0.544994  3e-06  4.332684  0.0
C  C79  1  0.76291506  0.02030166  0.42368692  1  1.65563  -5e-06  0.176584  0.544324  -3e-06  4.332456  0.0
C  C80  1  0.08928119  0.34961724  0.48468487  1  -0.06685  0.001374  -0.075103  -0.110803  0.000913  3.938037  0.001
C  C81  1  0.91071846  0.65041912  0.51530995  1  -0.066501  -0.00137  -0.075213  -0.110886  -0.00091  3.938499  -0.001
C  C82  1  0.16293928  0.41830297  0.42365709  1  -0.06721  0.000936  -0.086218  -0.132454  0.000615  3.976418  0.0
C  C83  1  0.83705674  0.58171960  0.57632472  1  -0.067197  -0.000938  -0.086239  -0.132466  -0.000616  3.976427  0.0
C  C84  1  0.10334486  0.35655021  0.59319581  1  -0.008108  0.003468  0.006665  0.146501  0.002336  4.02125  0.002
C  C85  1  0.89665287  0.64348714  0.40680573  1  -0.006768  -0.003469  0.006775  0.146526  -0.002337  4.021467  -0.002
C  C86  1  0.02084855  0.27136261  0.64217038  1  -0.04986  -0.005599  -0.08004  -0.168145  -0.003896  3.905147  -0.005
C  C87  1  0.97917299  0.72865701  0.35782012  1  -0.050711  0.005601  -0.080169  -0.168231  0.003897  3.905424  0.005
C  C88  1  0.19342747  0.44101310  0.65393661  1  0.007216  -0.005198  -0.081282  -0.173458  -0.003648  3.92605  -0.004
C  C89  1  0.80654559  0.55904492  0.34607095  1  0.006111  0.0052  -0.081174  -0.173138  0.003649  3.92602  0.004
C  C90  1  0.03033937  0.27302274  0.74551562  1  0.465615  0.001087  0.051751  0.10747  8.6e-05  3.916532  0.001
C  C91  1  0.96966501  0.72698900  0.25447531  1  0.46445  -0.001084  0.051839  0.107396  -8.5e-05  3.916637  -0.001
C  C92  1  0.19709060  0.43725663  0.75697648  1  0.435559  0.000594  0.0503  0.099447  -0.00033  3.917038  0.0
C  C93  1  0.80286855  0.56279942  0.24303353  1  0.437859  -0.000596  0.049907  0.098868  0.000332  3.917493  0.0
N  N94  1  0.13367667  0.37243174  0.10400319  1  -1.200054  -0.080666  -0.34527  -0.236797  -0.056031  3.612733  -0.07
N  N95  1  0.86630013  0.62754061  0.89598633  1  -1.199966  0.080644  -0.345474  -0.237207  0.056018  3.613126  0.07
N  N96  1  0.31711208  0.10470350  0.28707483  1  -1.213138  5.6e-05  -0.208496  0.096057  2.7e-05  3.739112  0.0
N  N97  1  0.68290183  0.89528067  0.71294190  1  -1.213927  -5.6e-05  -0.208481  0.09608  -2.7e-05  3.739394  0.0
N  N98  1  0.11613139  0.35524455  0.80256010  1  -1.186978  -0.084207  -0.332852  -0.20317  -0.058318  3.541622  -0.073
N  N99  1  0.88385062  0.64477408  0.19743964  1  -1.186633  0.084221  -0.332774  -0.202892  0.058327  3.541561  0.073
O  O100  1  0.18071739  0.58509304  0.95508172  1  -1.190164  0.000103  -0.320117  -0.586793  -0.000367  2.347492  -0.001
O  O101  1  0.81926046  0.41490098  0.04493545  1  -1.189822  -0.000103  -0.319912  -0.586774  0.000368  2.347988  0.001
O  O102  1  0.05977880  0.71768990  0.05748940  1  -1.130076  0.093255  -0.329677  -0.572763  0.062305  2.449464  0.085
O  O103  1  0.94020401  0.28232479  0.94250932  1  -1.130222  -0.093276  -0.329823  -0.572811  -0.062319  2.449274  -0.085
O  O104  1  0.75471875  0.86133167  0.05759804  1  -1.170172  0.001406  -0.336695  -0.561726  0.000611  2.10425  0.002
O  O105  1  0.24527612  0.13866728  0.94237160  1  -1.170137  -0.001401  -0.336736  -0.561745  -0.000608  2.104234  -0.002
O  O106  1  0.67763426  0.64996815  0.04833723  1  -1.111691  0.128535  -0.331714  -0.546555  0.08511  2.283591  0.115
O  O107  1  0.32235606  0.35003867  0.95165891  1  -1.111748  -0.128509  -0.331782  -0.546558  -0.085095  2.283449  -0.115
O  O108  1  0.32857946  0.00024912  0.64266099  1  -1.173256  8.2e-05  -0.354777  -0.583345  5.7e-05  2.103915  0.0
O  O109  1  0.67145069  0.99976459  0.35736727  1  -1.172245  -8.3e-05  -0.354584  -0.582875  -5.7e-05  2.10346  0.0
O  O110  1  0.13099365  0.90872321  0.57640010  1  -1.197889  9e-05  -0.354506  -0.596253  5.9e-05  2.137937  0.0
O  O111  1  0.86908701  0.09119204  0.42359933  1  -1.198612  -9e-05  -0.35457  -0.596162  -5.9e-05  2.138012  0.0
