# generated using pymatgen
data_CuNiH20C14(NO3)4
_symmetry_space_group_name_H-M   'P 1'
_cell_length_a   7.13546728
_cell_length_b   9.84250767
_cell_length_c   13.76787924
_cell_angle_alpha   90.00014428
_cell_angle_beta   90.00629101
_cell_angle_gamma   99.40476005
_symmetry_Int_Tables_number   1
_chemical_formula_structural   CuNiH20C14(NO3)4
_chemical_formula_sum   'Cu2 Ni2 H40 C28 N8 O24'
_cell_volume   953.93351783
_cell_formula_units_Z   2
loop_
 _symmetry_equiv_pos_site_id
 _symmetry_equiv_pos_as_xyz
  1  'x, y, z'
loop_
 _atom_site_type_symbol
 _atom_site_label
 _atom_site_symmetry_multiplicity
 _atom_site_fract_x
 _atom_site_fract_y
 _atom_site_fract_z
 _atom_site_occupancy
 _atom_site_pbe_bader_charge
 _atom_site_pbe_bader_spin_density
 _atom_site_pbe_cm5_charge
 _atom_site_pbe_ddec_charge
 _atom_site_pbe_ddec_spin_density
 _atom_site_pbe_ddec_sum_bond_order
 _atom_site_pbe_magmom
Cu  Cu0  1  0.50000049  0.99999864  0.99999907  1  0.985878  -0.542167  0.742853  0.727753  -0.773688  2.209048  -0.541
Cu  Cu1  1  0.99999941  0.00000196  0.50000003  1  0.986157  0.542456  0.742877  0.727713  0.63038  2.208764  0.542
Ni  Ni2  1  0.49999690  0.49999814  0.50000296  1  1.205815  1.59569  0.608491  0.874457  1.865142  2.232461  1.586
Ni  Ni3  1  0.00000161  0.50000246  0.00000122  1  1.205867  1.594802  0.60822  0.874059  1.864093  2.232664  1.585
H  H4  1  0.86147536  0.57815665  0.46134494  1  0.65023  0.000178  0.294296  0.375758  0.000335  0.971598  0.0
H  H5  1  0.63851826  0.42183629  0.96136687  1  0.650321  0.000156  0.294211  0.375659  0.00032  0.971744  0.0
H  H6  1  0.13851956  0.42184478  0.53865953  1  0.650151  0.000178  0.294297  0.37577  0.000335  0.971601  0.0
H  H7  1  0.36148440  0.57816208  0.03863688  1  0.650277  0.000156  0.294199  0.37562  0.00032  0.971788  0.0
H  H8  1  0.84653260  0.52579570  0.57089293  1  0.647224  0.000212  0.301475  0.387685  0.000412  0.950855  0.0
H  H9  1  0.65350531  0.47417397  0.07091285  1  0.647414  0.000202  0.301539  0.387818  0.000396  0.950698  0.0
H  H10  1  0.15346557  0.47420780  0.42911154  1  0.647333  0.000211  0.301439  0.38773  0.000412  0.950787  0.0
H  H11  1  0.34649640  0.52582645  0.92909090  1  0.647433  0.000202  0.301549  0.387852  0.000396  0.95065  0.0
H  H12  1  0.18635128  0.10368883  0.99032344  1  0.451951  0.000454  0.288945  0.275197  -0.000378  0.99093  0.0
H  H13  1  0.31374525  0.89635594  0.49049993  1  0.453177  0.000538  0.288994  0.275291  0.00094  0.990913  0.0
H  H14  1  0.81365558  0.89630956  0.00967232  1  0.451967  0.000454  0.288931  0.27518  -0.000378  0.990916  0.0
H  H15  1  0.68626083  0.10365170  0.50949801  1  0.452976  0.000537  0.289032  0.275333  0.00094  0.99087  0.0
H  H16  1  0.19497724  0.00936697  0.08887103  1  0.443477  0.000141  0.294052  0.283204  -0.000496  0.96243  0.0
H  H17  1  0.30481620  0.99061475  0.58905961  1  0.443848  -1e-06  0.293829  0.282966  0.000318  0.962576  0.0
H  H18  1  0.80501952  0.99063652  0.91112691  1  0.443601  0.000144  0.294042  0.283234  -0.000496  0.96237  0.0
H  H19  1  0.69518758  0.00938877  0.41094051  1  0.443885  -1e-06  0.293824  0.28287  0.000318  0.962711  0.0
H  H20  1  0.74547922  0.08643709  0.13247209  1  0.447223  -0.000139  0.296417  0.292535  -0.000933  0.969789  0.0
H  H21  1  0.75444431  0.91362235  0.63242017  1  0.450468  0.000115  0.296487  0.292691  0.000543  0.969756  0.0
H  H22  1  0.25452131  0.91356436  0.86752730  1  0.447226  -0.000139  0.296408  0.292528  -0.000933  0.969801  0.0
H  H23  1  0.24556132  0.08638324  0.36757994  1  0.450649  0.000112  0.296477  0.292623  0.000543  0.969817  0.0
H  H24  1  0.72077223  0.21500185  0.05674309  1  0.464826  -0.000209  0.293826  0.295848  -0.000856  0.963076  0.0
H  H25  1  0.77903548  0.78505086  0.55667777  1  0.4657  0.000139  0.29389  0.295839  0.00043  0.962989  0.0
H  H26  1  0.27922948  0.78499858  0.94325485  1  0.464854  -0.000209  0.293802  0.295809  -0.000856  0.963147  0.0
H  H27  1  0.22096292  0.21495367  0.44332016  1  0.465674  0.00014  0.293914  0.29579  0.000431  0.963039  0.0
H  H28  1  0.22946087  0.23769521  0.14968116  1  0.043148  -0.004747  0.106873  0.088289  -0.002759  0.977307  -0.003
H  H29  1  0.27029736  0.76216154  0.64973297  1  0.043115  0.00487  0.10678  0.088129  0.002244  0.977168  0.003
H  H30  1  0.77054314  0.76230934  0.85031242  1  0.043039  -0.004747  0.106871  0.088289  -0.002759  0.977328  -0.003
H  H31  1  0.72970390  0.23783683  0.35026133  1  0.043203  0.004869  0.106791  0.088155  0.002244  0.977131  0.003
H  H32  1  0.38146792  0.29263798  0.05125130  1  0.037523  0.000435  0.106461  0.083863  0.000422  1.00252  0.0
H  H33  1  0.11839081  0.70737174  0.55121311  1  0.036527  0.000542  0.106417  0.083689  0.000203  1.00255  0.0
H  H34  1  0.61853755  0.70736041  0.94874301  1  0.037764  0.000434  0.106467  0.083874  0.000422  1.00257  0.0
H  H35  1  0.88161039  0.29263280  0.44877974  1  0.036744  0.000542  0.106423  0.083699  0.000203  1.002525  0.0
H  H36  1  0.57612239  0.28030041  0.19916770  1  0.064703  -0.004692  0.10187  0.080966  -0.002648  0.993615  -0.003
H  H37  1  0.92359778  0.71960269  0.69908352  1  0.063829  0.005257  0.10182  0.08111  0.002601  0.993771  0.004
H  H38  1  0.42387836  0.71970207  0.80082733  1  0.064697  -0.004692  0.101878  0.08101  -0.002647  0.993596  -0.003
H  H39  1  0.07640511  0.28039672  0.30091297  1  0.063711  0.005258  0.101806  0.081075  0.002601  0.993792  0.004
H  H40  1  0.47039126  0.10482004  0.21742154  1  0.075085  9.3e-05  0.100749  0.079998  0.000198  1.02041  0.0
H  H41  1  0.02938692  0.89505517  0.71744264  1  0.076635  -6.3e-05  0.100945  0.080245  -0.000227  1.020246  0.0
H  H42  1  0.52960809  0.89518243  0.78257494  1  0.075007  9.3e-05  0.100738  0.079981  0.000198  1.020455  0.0
H  H43  1  0.97061876  0.10494424  0.28255602  1  0.076577  -6.3e-05  0.100947  0.080232  -0.000227  1.020308  0.0
C  C44  1  0.50174762  0.59291619  0.30951552  1  0.762905  0.001242  0.091744  0.148907  0.001202  4.161945  0.0
C  C45  1  0.99816987  0.40702479  0.80952570  1  0.76202  -0.000721  0.091799  0.149122  -8.4e-05  4.161663  -0.002
C  C46  1  0.49824343  0.40707390  0.69049113  1  0.762694  0.001242  0.091818  0.149263  0.001202  4.161906  0.0
C  C47  1  0.00182830  0.59297871  0.19047733  1  0.76231  -0.000721  0.09185  0.149182  -8.3e-05  4.161754  -0.002
C  C48  1  0.48323053  0.63152432  0.20803391  1  0.792311  0.002048  0.10733  0.181354  0.001282  4.117331  0.003
C  C49  1  0.01673966  0.36842446  0.70804816  1  0.793886  0.00228  0.10771  0.181903  0.001463  4.117128  0.003
C  C50  1  0.51676545  0.36846271  0.79197202  1  0.792218  0.002048  0.107407  0.181491  0.001282  4.117464  0.003
C  C51  1  0.98325896  0.63158110  0.29195414  1  0.793687  0.002279  0.107696  0.182008  0.001463  4.117089  0.003
C  C52  1  0.42928944  0.77114922  0.20656535  1  0.868057  0.000396  0.102216  0.166595  7.8e-05  4.155243  0.001
C  C53  1  0.07067739  0.22879847  0.70659325  1  0.867023  -0.002525  0.102347  0.166622  -0.001942  4.15483  -0.001
C  C54  1  0.57071120  0.22883988  0.79343622  1  0.867983  0.000396  0.102097  0.166355  7.9e-05  4.155428  0.001
C  C55  1  0.92931775  0.77120399  0.29340759  1  0.867037  -0.002525  0.102278  0.166548  -0.001943  4.15486  -0.001
C  C56  1  0.43111751  0.82195386  0.30848456  1  0.848096  0.002783  0.109977  0.187727  0.001811  4.135703  0.003
C  C57  1  0.06881557  0.17798939  0.80851153  1  0.850965  0.002294  0.110065  0.187992  0.001495  4.135269  0.003
C  C58  1  0.56887797  0.17803728  0.69151846  1  0.848493  0.002782  0.109991  0.18786  0.001811  4.135731  0.003
C  C59  1  0.93118704  0.82201515  0.19148931  1  0.850852  0.002296  0.110008  0.1879  0.001496  4.13521  0.003
C  C60  1  0.46643811  0.70742408  0.36987688  1  0.74916  3.8e-05  0.095664  0.154618  0.000254  4.153318  -0.001
C  C61  1  0.03350589  0.29252816  0.86990064  1  0.748357  -0.001408  0.095766  0.154443  -0.000692  4.153769  -0.002
C  C62  1  0.53355456  0.29256705  0.63012686  1  0.749086  3.8e-05  0.095618  0.154386  0.000255  4.153646  -0.001
C  C63  1  0.96649486  0.70747432  0.13010020  1  0.748425  -0.001408  0.09574  0.154387  -0.000693  4.153861  -0.002
C  C64  1  0.34128244  0.20849889  0.10303584  1  0.32182  -0.001759  -0.075834  -0.000282  -0.002125  3.879727  0.0
C  C65  1  0.15855817  0.79144741  0.60305818  1  0.324828  0.002968  -0.075857  4e-05  0.002135  3.879016  0.001
C  C66  1  0.65871949  0.79150257  0.89695919  1  0.321868  -0.001757  -0.075877  -0.000381  -0.002125  3.879844  0.0
C  C67  1  0.84144376  0.20855404  0.39693758  1  0.324851  0.00297  -0.075833  3.2e-05  0.002135  3.878825  0.001
C  C68  1  0.51267556  0.18457201  0.16224293  1  0.253699  -0.001878  -0.079882  -0.015691  -0.002139  3.891865  0.0
C  C69  1  0.98711691  0.81535193  0.66221697  1  0.251532  0.002438  -0.079947  -0.016054  0.001756  3.891653  0.0
C  C70  1  0.48732636  0.81542945  0.83775356  1  0.253635  -0.001877  -0.079861  -0.015682  -0.002139  3.891962  0.0
C  C71  1  0.01288597  0.18464747  0.33777951  1  0.25176  0.002439  -0.079965  -0.016091  0.001756  3.891685  0.0
N  N72  1  0.27299713  0.08278846  0.04597417  1  -1.095557  -0.105034  -0.642401  -0.550404  -0.075055  3.418068  -0.086
N  N73  1  0.22695129  0.91720707  0.54609067  1  -1.09861  0.106864  -0.642163  -0.550312  0.062254  3.418355  0.087
N  N74  1  0.72700716  0.91721095  0.95402304  1  -1.095778  -0.105041  -0.642373  -0.550386  -0.075056  3.417936  -0.086
N  N75  1  0.77305249  0.08279645  0.45390872  1  -1.09887  0.106854  -0.642211  -0.550245  0.062248  3.41841  0.087
N  N76  1  0.64907956  0.13369551  0.09579784  1  -1.105573  -0.107899  -0.639921  -0.552648  -0.076994  3.380391  -0.087
N  N77  1  0.85079625  0.86632257  0.59575270  1  -1.109143  0.108199  -0.64008  -0.552809  0.062894  3.380611  0.087
N  N78  1  0.35092214  0.86630491  0.90420010  1  -1.105557  -0.107894  -0.639864  -0.552563  -0.076991  3.380469  -0.087
N  N79  1  0.14920658  0.13368301  0.40424596  1  -1.109287  0.108204  -0.640105  -0.552656  0.062895  3.380685  0.087
O  O80  1  0.53589656  0.48104829  0.34591123  1  -1.079592  0.073946  -0.271952  -0.38529  0.043258  2.243749  0.067
O  O81  1  0.96403295  0.51889275  0.84592261  1  -1.078916  0.071998  -0.272307  -0.385705  0.042113  2.243404  0.066
O  O82  1  0.46410054  0.51894389  0.65409688  1  -1.079259  0.073937  -0.272086  -0.38555  0.043255  2.2436  0.067
O  O83  1  0.03596219  0.48110971  0.15408187  1  -1.079068  0.071998  -0.272292  -0.385736  0.042112  2.24357  0.066
O  O84  1  0.50144971  0.56072061  0.13327629  1  -1.156404  0.000298  -0.27551  -0.418518  -8.4e-05  2.317317  0.0
O  O85  1  0.99854559  0.43923008  0.63329162  1  -1.156989  0.000452  -0.275763  -0.418812  -1.1e-05  2.317524  0.0
O  O86  1  0.49854117  0.43926228  0.86672891  1  -1.156152  0.000298  -0.275505  -0.418594  -8.4e-05  2.317317  0.0
O  O87  1  0.00145252  0.56077959  0.36671212  1  -1.156859  0.000452  -0.275782  -0.418913  -1.1e-05  2.317453  0.0
O  O88  1  0.38658392  0.83214197  0.13259929  1  -1.129728  0.000833  -0.28038  -0.418867  0.000304  2.303082  -0.001
O  O89  1  0.11344451  0.16782033  0.63263747  1  -1.129583  -0.001047  -0.28042  -0.418891  -0.001024  2.302913  0.0
O  O90  1  0.61342632  0.16784614  0.86739792  1  -1.129975  0.000833  -0.280207  -0.418661  0.000304  2.303151  -0.001
O  O91  1  0.88654031  0.83218620  0.36736192  1  -1.129651  -0.001046  -0.280352  -0.418853  -0.001024  2.302774  0.0
O  O92  1  0.40590157  0.93810514  0.33743396  1  -1.135025  -0.001389  -0.271454  -0.399104  -0.001424  2.202433  -0.002
O  O93  1  0.09402814  0.06183275  0.83746647  1  -1.136162  -0.002296  -0.271429  -0.399308  -0.001547  2.202355  -0.002
O  O94  1  0.59410069  0.06188500  0.66256688  1  -1.13522  -0.001389  -0.271463  -0.399189  -0.001424  2.202331  -0.002
O  O95  1  0.90597609  0.93817283  0.16253147  1  -1.136091  -0.002296  -0.271418  -0.399246  -0.001547  2.202181  -0.002
O  O96  1  0.46347548  0.70161030  0.46179146  1  -1.07276  0.070037  -0.263914  -0.380819  0.04107  2.312645  0.064
O  O97  1  0.03650449  0.29837145  0.96181031  1  -1.073286  0.067003  -0.263779  -0.380616  0.039346  2.313113  0.061
O  O98  1  0.53651203  0.29838286  0.53821229  1  -1.072761  0.070035  -0.263898  -0.380734  0.041069  2.312739  0.064
O  O99  1  0.96350187  0.70163105  0.03819126  1  -1.073237  0.066998  -0.263746  -0.380551  0.039347  2.313189  0.061
O  O100  1  0.78222437  0.57577028  0.52175216  1  -1.242722  0.055705  -0.566377  -0.76198  0.033264  2.260241  0.05
O  O101  1  0.71779158  0.42421128  0.02176687  1  -1.24293  0.055273  -0.566359  -0.761973  0.033116  2.260643  0.049
O  O102  1  0.21776870  0.42422909  0.47825159  1  -1.242731  0.055708  -0.56634  -0.762059  0.033266  2.260223  0.05
O  O103  1  0.28221523  0.57579328  0.97823615  1  -1.242995  0.05527  -0.566372  -0.761979  0.033115  2.260544  0.049
