# generated using pymatgen
data_H22Pb(C3O)4
_symmetry_space_group_name_H-M   'P 1'
_cell_length_a   4.69053379
_cell_length_b   7.22732329
_cell_length_c   20.83882440
_cell_angle_alpha   88.51890878
_cell_angle_beta   83.90042440
_cell_angle_gamma   88.41301998
_symmetry_Int_Tables_number   1
_chemical_formula_structural   H22Pb(C3O)4
_chemical_formula_sum   'H44 Pb2 C24 O8'
_cell_volume   701.98102409
_cell_formula_units_Z   2
loop_
 _symmetry_equiv_pos_site_id
 _symmetry_equiv_pos_as_xyz
  1  'x, y, z'
loop_
 _atom_site_type_symbol
 _atom_site_label
 _atom_site_symmetry_multiplicity
 _atom_site_fract_x
 _atom_site_fract_y
 _atom_site_fract_z
 _atom_site_occupancy
 _atom_site_hle17_bader_spin_density
 _atom_site_hle17_ddec_charge
 _atom_site_hle17_ddec_spin_density
 _atom_site_hle17_ddec_sum_bond_order
 _atom_site_hle17_magmom
 _atom_site_hse06_10hf_bader_spin_density
 _atom_site_hse06_10hf_ddec_charge
 _atom_site_hse06_10hf_ddec_spin_density
 _atom_site_hse06_10hf_ddec_sum_bond_order
 _atom_site_hse06_10hf_magmom
 _atom_site_hse06_bader_spin_density
 _atom_site_hse06_ddec_charge
 _atom_site_hse06_ddec_spin_density
 _atom_site_hse06_ddec_sum_bond_order
 _atom_site_hse06_magmom
 _atom_site_pbe_bader_spin_density
 _atom_site_pbe_cm5_charge
 _atom_site_pbe_ddec_charge
 _atom_site_pbe_ddec_spin_density
 _atom_site_pbe_ddec_sum_bond_order
 _atom_site_pbe_magmom
H  H0  1  0.44365952  0.07765072  0.14046271  1  0  0.101734  0  0.937869  0  0  0.116767  0  0.997655  0  0  0.118575  0  0.997078  0  0  0.098136  0.11546  0  0.998114  0
H  H1  1  0.55633126  0.92235757  0.85953485  1  0  0.101681  0  0.937833  0  0  0.116739  0  0.997606  0  0  0.118541  0  0.99703  0  0  0.098109  0.115433  0  0.998065  0
H  H2  1  0.35230289  0.31817651  0.13654042  1  0  0.107493  0  0.934534  0  0  0.120914  0  0.998819  0  0  0.122868  0  0.998389  0  0  0.100746  0.119526  0  0.999172  0
H  H3  1  0.64769861  0.68183174  0.86345640  1  0  0.107545  0  0.934432  0  0  0.120958  0  0.998735  0  0  0.122908  0  0.998301  0  0  0.100773  0.119568  0  0.999092  0
H  H4  1  0.88678767  0.16421196  0.19500412  1  0  0.063507  0  0.939031  0  0  0.08239  0  1.002333  0  0  0.082892  0  1.003168  0  0  0.087963  0.081951  0  1.001833  0
H  H5  1  0.11320765  0.83578805  0.80499581  1  0  0.063537  0  0.939097  0  0  0.082422  0  1.002416  0  0  0.082924  0  1.003252  0  0  0.087991  0.081994  0  1.001899  0
H  H6  1  0.75039572  0.39475178  0.19793391  1  0  0.066336  0  0.939099  0  0  0.085573  0  1.000954  0  0  0.086014  0  1.001973  0  0  0.089844  0.085167  0  1.000357  0
H  H7  1  0.24959539  0.60524548  0.80206711  1  0  0.066296  0  0.939053  0  0  0.085574  0  1.000881  0  0  0.086014  0  1.001901  0  0  0.089847  0.085165  0  1.00029  0
H  H8  1  0.46107401  0.05082429  0.26213489  1  0  0.064309  0  0.942528  0  0  0.087466  0  1.00013  0  0  0.08747  0  1.001803  0  0  0.089559  0.087397  0  0.999017  0
H  H9  1  0.53891922  0.94917432  0.73786367  1  0  0.0642  0  0.94259  0  0  0.087382  0  1.000174  0  0  0.087383  0  1.001848  0  0  0.089514  0.087312  0  0.999058  0
H  H10  1  0.29543396  0.27223716  0.26281150  1  0  0.050883  0  0.957303  0  0  0.071337  0  1.021279  0  0  0.071655  0  1.022039  0  0  0.084257  0.071071  0  1.020747  0
H  H11  1  0.70455717  0.72776006  0.73718665  1  0  0.050852  0  0.957339  0  0  0.071279  0  1.021339  0  0  0.071596  0  1.022103  0  0  0.084256  0.071011  0  1.020811  0
H  H12  1  0.85971951  0.17496158  0.31956341  1  0  0.048637  0  0.956566  0  0  0.06804  0  1.021104  0  0  0.068441  0  1.021756  0  0  0.083923  0.067709  0  1.02066  0
H  H13  1  0.14026925  0.82504257  0.68043520  1  0  0.048644  0  0.956538  0  0  0.068016  0  1.02112  0  0  0.068416  0  1.021779  0  0  0.083923  0.067684  0  1.020678  0
H  H14  1  0.69183903  0.39544337  0.32032374  1  0  0.052711  0  0.948893  0  0  0.073843  0  1.009237  0  0  0.073967  0  1.010478  0  0  0.085145  0.073669  0  1.008466  0
H  H15  1  0.30814343  0.60455664  0.67967506  1  0  0.052721  0  0.948807  0  0  0.073862  0  1.009145  0  0  0.073985  0  1.010387  0  0  0.085141  0.073685  0  1.00838  0
H  H16  1  0.43260740  0.04370272  0.38715602  1  0  0.088245  0  0.980738  0  0  0.11049  0  1.044975  0  0  0.11119  0  1.046082  0  0  0.083583  0.109904  0  1.044294  0
H  H17  1  0.56738359  0.95629866  0.61284256  1  0  0.088266  0  0.980665  0  0  0.110497  0  1.044928  0  0  0.111199  0  1.046031  0  0  0.083574  0.10991  0  1.044248  0
H  H18  1  0.25581726  0.26324506  0.38714765  1  0  0.084838  0  0.971143  0  0  0.105984  0  1.036089  0  0  0.107197  0  1.036187  0  0  0.082052  0.105059  0  1.036066  0
H  H19  1  0.74417593  0.73675492  0.61285042  1  0  0.08488  0  0.971069  0  0  0.106051  0  1.035982  0  0  0.107263  0  1.03608  0  0  0.082089  0.105126  0  1.035961  0
H  H20  1  0.57128966  0.23072193  0.42665695  1  0  0.090722  0  0.972545  0  0  0.113205  0  1.035095  0  0  0.114173  0  1.03559  0  0  0.083754  0.112464  0  1.034779  0
H  H21  1  0.42869910  0.76928222  0.57334166  1  0  0.090687  0  0.972639  0  0  0.113153  0  1.035196  0  0  0.11412  0  1.035693  0  0  0.083749  0.112411  0  1.034883  0
H  H22  1  0.26367633  0.54203671  0.21808617  1  0  0.10198  0  0.943998  0  0  0.12266  0  1.000504  0  0  0.123739  0  1.001277  0  0  0.10301  0.121871  0  1.000087  0
H  H23  1  0.73632367  0.45795085  0.78191571  1  0  0.102023  0  0.94399  0  0  0.122661  0  1.000586  0  0  0.123735  0  1.00136  0  0  0.103001  0.121875  0  1.000165  0
H  H24  1  0.42869265  0.75553387  0.21462306  1  0  0.119034  0  0.967316  0  0  0.130556  0  1.033394  0  0  0.133964  0  1.0313  0  0  0.10238  0.128138  0  1.034948  0
H  H25  1  0.57133119  0.24444534  0.78537979  1  0  0.119041  0  0.967401  0  0  0.130556  0  1.033489  0  0  0.133957  0  1.0314  0  0  0.102376  0.128135  0  1.035052  0
H  H26  1  0.82156211  0.67599792  0.28091200  1  0  0.056255  0  0.956355  0  0  0.073712  0  1.024006  0  0  0.074493  0  1.023955  0  0  0.08603  0.073096  0  1.024093  0
H  H27  1  0.17845041  0.32400065  0.71908706  1  0  0.056235  0  0.956377  0  0  0.073697  0  1.023994  0  0  0.074479  0  1.023945  0  0  0.086043  0.073081  0  1.02408  0
H  H28  1  0.97571168  0.89501694  0.27713323  1  0  0.059575  0  0.94764  0  0  0.079716  0  1.010835  0  0  0.079987  0  1.011827  0  0  0.088146  0.079434  0  1.01026  0
H  H29  1  0.02431165  0.10497884  0.72286561  1  0  0.059616  0  0.947573  0  0  0.079719  0  1.010805  0  0  0.079992  0  1.011799  0  0  0.088148  0.079438  0  1.010224  0
H  H30  1  0.37777436  0.76911038  0.33750369  1  0  0.053381  0  0.953775  0  0  0.073159  0  1.01863  0  0  0.073591  0  1.019378  0  0  0.084547  0.072805  0  1.018127  0
H  H31  1  0.62223828  0.23088407  0.66249782  1  0  0.053337  0  0.953648  0  0  0.073122  0  1.018563  0  0  0.073552  0  1.019315  0  0  0.084524  0.072765  0  1.018061  0
H  H32  1  0.22701280  0.54868642  0.34127695  1  0  0.055297  0  0.95553  0  0  0.078916  0  1.01368  0  0  0.078746  0  1.015542  0  0  0.086072  0.078954  0  1.012449  0
H  H33  1  0.77298899  0.45131220  0.65872381  1  0  0.0552  0  0.955359  0  0  0.078764  0  1.013649  0  0  0.078596  0  1.015514  0  0  0.086035  0.078806  0  1.012411  0
H  H34  1  0.79236280  0.66626413  0.40730385  1  0  0.05242  0  0.939662  0  0  0.074165  0  0.997515  0  0  0.074342  0  0.998705  0  0  0.085502  0.073981  0  0.996716  0
H  H35  1  0.20763691  0.33373307  0.59269457  1  0  0.052419  0  0.939691  0  0  0.074186  0  0.99753  0  0  0.074363  0  0.998721  0  0  0.085514  0.074002  0  0.996728  0
H  H36  1  0.91640511  0.89421062  0.39940824  1  0  0.052611  0  0.942126  0  0  0.076091  0  0.998235  0  0  0.07608  0  0.999771  0  0  0.085998  0.076019  0  0.997249  0
H  H37  1  0.08359033  0.10578657  0.60058788  1  0  0.052563  0  0.942217  0  0  0.076078  0  0.998302  0  0  0.07607  0  0.99983  0  0  0.08599  0.076006  0  0.997316  0
H  H38  1  0.33586700  0.80540891  0.46025052  1  0  0.083606  0  0.972906  0  0  0.104411  0  1.037899  0  0  0.105526  0  1.038173  0  0  0.08232  0.103553  0  1.037743  0
H  H39  1  0.66411719  0.19460359  0.53975002  1  0  0.083632  0  0.972889  0  0  0.104417  0  1.037898  0  0  0.105536  0  1.038171  0  0  0.082301  0.103548  0  1.037754  0
H  H40  1  0.22252902  0.57310743  0.46726081  1  0  0.089036  0  0.96054  0  0  0.11157  0  1.022303  0  0  0.11239  0  1.023234  0  0  0.083764  0.110918  0  1.021699  0
H  H41  1  0.77746805  0.42690369  0.53274280  1  0  0.088993  0  0.960556  0  0  0.111566  0  1.022253  0  0  0.112389  0  1.023182  0  0  0.083767  0.110911  0  1.021654  0
H  H42  1  0.00868442  0.75134978  0.50678205  1  0  0.089105  0  0.966427  0  0  0.111733  0  1.027132  0  0  0.112719  0  1.027727  0  0  0.083655  0.110964  0  1.026774  0
H  H43  1  0.99129759  0.24866408  0.49321661  1  0  0.08909  0  0.966466  0  0  0.111717  0  1.027167  0  0  0.112705  0  1.027762  0  0  0.083635  0.110946  0  1.026806  0
Pb  Pb44  1  0.77732661  0.75089029  0.04187507  1  0  1.398573  0  1.359797  0  0  1.217076  0  1.75184  0  0  1.281079  0  1.706544  0  0  0.664153  1.170625  0  1.783617  0
Pb  Pb45  1  0.22265631  0.24909456  0.95812867  1  0  1.398517  0  1.3599  0  0  1.217007  0  1.751962  0  0  1.281007  0  1.706666  0  0  0.664138  1.170555  0  1.783735  0
C  C46  1  0.72901373  0.24117882  0.07669725  1  0  0.709697  0  3.866294  0  0  0.660251  0  4.163223  0  0  0.695007  0  4.157078  0  0  0.218275  0.636519  0  4.166435  0
C  C47  1  0.27099859  0.75882533  0.92330464  1  0  0.709598  0  3.866078  0  0  0.660149  0  4.16303  0  0  0.694903  0  4.15688  0  0  0.218235  0.636421  0  4.166233  0
C  C48  1  0.53168756  0.21702236  0.13850128  1  0  -0.272201  0  3.668538  0  0  -0.31002  0  3.92321  0  0  -0.315308  0  3.929842  0  0  -0.166788  -0.306357  0  3.918553  0
C  C49  1  0.46831000  0.78297486  0.86149767  1  0  -0.272183  0  3.668294  0  0  -0.310022  0  3.923046  0  0  -0.315287  0  3.929651  0  0  -0.166783  -0.30636  0  3.918393  0
C  C50  1  0.68749486  0.24910530  0.19822254  1  0  -0.078766  0  3.680172  0  0  -0.122498  0  3.946476  0  0  -0.122239  0  3.959262  0  0  -0.166143  -0.122518  0  3.937623  0
C  C51  1  0.31249818  0.75089886  0.80177741  1  0  -0.078721  0  3.68015  0  0  -0.122497  0  3.946546  0  0  -0.122245  0  3.95933  0  0  -0.166167  -0.122522  0  3.937696  0
C  C52  1  0.50624361  0.19983869  0.26120687  1  0  -0.113538  0  3.687837  0  0  -0.154726  0  3.951168  0  0  -0.155649  0  3.965687  0  0  -0.168756  -0.153921  0  3.941043  0
C  C53  1  0.49374542  0.80015716  0.73879182  1  0  -0.11344  0  3.68795  0  0  -0.154601  0  3.951278  0  0  -0.155522  0  3.9658  0  0  -0.168715  -0.153795  0  3.941149  0
C  C54  1  0.64834457  0.24619715  0.32128959  1  0  -0.066456  0  3.722811  0  0  -0.102648  0  3.988617  0  0  -0.103085  0  4.003577  0  0  -0.169924  -0.102198  0  3.978168  0
C  C55  1  0.35164633  0.75380700  0.67870896  1  0  -0.066489  0  3.722795  0  0  -0.102648  0  3.988549  0  0  -0.103087  0  4.003512  0  0  -0.169924  -0.102193  0  3.978099  0
C  C56  1  0.46808679  0.19346948  0.38406003  1  0  -0.293798  0  3.732688  0  0  -0.369197  0  3.979429  0  0  -0.371374  0  3.990249  0  0  -0.24895  -0.367448  0  3.971987  0
C  C57  1  0.53189567  0.80653054  0.61593876  1  0  -0.293822  0  3.732726  0  0  -0.36921  0  3.979429  0  0  -0.371386  0  3.990251  0  0  -0.248977  -0.367461  0  3.971991  0
C  C58  1  0.09093429  0.73648612  0.15543470  1  0  0.702657  0  3.834201  0  0  0.650105  0  4.135185  0  0  0.685533  0  4.128062  0  0  0.213817  0.625993  0  4.139099  0
C  C59  1  0.90908679  0.26351246  0.84456656  1  0  0.702305  0  3.834394  0  0  0.649874  0  4.135275  0  0  0.685296  0  4.12816  0  0  0.213654  0.62576  0  4.13919  0
C  C60  1  0.21683104  0.69229938  0.21790032  1  0  -0.281278  0  3.683094  0  0  -0.320054  0  3.936915  0  0  -0.32657  0  3.944611  0  0  -0.169092  -0.315678  0  3.931735  0
C  C61  1  0.78317963  0.30768954  0.78210129  1  0  -0.281215  0  3.68314  0  0  -0.320093  0  3.937095  0  0  -0.326553  0  3.944694  0  0  -0.16911  -0.315725  0  3.931921  0
C  C62  1  0.02814671  0.74561508  0.27904837  1  0  -0.081639  0  3.713915  0  0  -0.128829  0  3.984793  0  0  -0.128238  0  3.997998  0  0  -0.169777  -0.129043  0  3.975618  0
C  C63  1  0.97186795  0.25438349  0.72095112  1  0  -0.081659  0  3.713824  0  0  -0.128701  0  3.984571  0  0  -0.12813  0  3.997794  0  0  -0.1697  -0.128906  0  3.975385  0
C  C64  1  0.17167556  0.69795868  0.33999926  1  0  -0.115906  0  3.694111  0  0  -0.157383  0  3.958059  0  0  -0.158649  0  3.973143  0  0  -0.169422  -0.156333  0  3.947508  0
C  C65  1  0.82833503  0.30203299  0.66000185  1  0  -0.115664  0  3.693679  0  0  -0.157219  0  3.957764  0  0  -0.158488  0  3.972862  0  0  -0.169372  -0.156169  0  3.947208  0
C  C66  1  0.98871952  0.74804892  0.40255125  1  0  -0.065208  0  3.720929  0  0  -0.098909  0  3.981438  0  0  -0.0995  0  3.997034  0  0  -0.16992  -0.098375  0  3.970565  0
C  C67  1  0.01128009  0.25195107  0.59744810  1  0  -0.065204  0  3.720897  0  0  -0.098935  0  3.981459  0  0  -0.099526  0  3.997064  0  0  -0.169927  -0.098401  0  3.970586  0
C  C68  1  0.14693937  0.71777500  0.46249181  1  0  -0.291488  0  3.7406  0  0  -0.364676  0  3.984761  0  0  -0.367077  0  3.996048  0  0  -0.247841  -0.362757  0  3.976989  0
C  C69  1  0.85304699  0.28223612  0.53750966  1  0  -0.291482  0  3.740583  0  0  -0.364657  0  3.984697  0  0  -0.367069  0  3.995979  0  0  -0.247814  -0.362728  0  3.976928  0
O  O70  1  0.76631825  0.10733788  0.03686191  1  0  -0.738725  0  2.041695  0  0  -0.655246  0  2.285294  0  0  -0.690934  0  2.279474  0  0  -0.297573  -0.629964  0  2.288518  0
O  O71  1  0.23371760  0.89266761  0.96314085  1  0  -0.738785  0  2.041608  0  0  -0.655286  0  2.285194  0  0  -0.690977  0  2.279378  0  0  -0.297588  -0.630005  0  2.288413  0
O  O72  1  0.85726094  0.39278282  0.06500405  1  0  -0.704564  0  2.006214  0  0  -0.631687  0  2.251324  0  0  -0.664621  0  2.245222  0  0  -0.301427  -0.608441  0  2.254815  0
O  O73  1  0.14274469  0.60722831  0.93500176  1  0  -0.704416  0  2.00611  0  0  -0.631561  0  2.251264  0  0  -0.664498  0  2.245168  0  0  -0.301378  -0.608318  0  2.254751  0
O  O74  1  0.24021824  0.70500873  0.10135654  1  0  -0.70587  0  1.972028  0  0  -0.63034  0  2.220676  0  0  -0.663336  0  2.212002  0  0  -0.302494  -0.607011  0  2.225819  0
O  O75  1  0.75979861  0.29498847  0.89864387  1  0  -0.705733  0  1.972132  0  0  -0.630198  0  2.220669  0  0  -0.663194  0  2.211995  0  0  -0.302471  -0.606869  0  2.225811  0
O  O76  1  0.83354082  0.79940391  0.15708909  1  0  -0.633184  0  1.96534  0  0  -0.553893  0  2.194315  0  0  -0.585034  0  2.188269  0  0  -0.2885  -0.53218  0  2.197682  0
O  O77  1  0.16648436  0.20060020  0.84291250  1  0  -0.633086  0  1.965306  0  0  -0.553843  0  2.194265  0  0  -0.584991  0  2.188223  0  0  -0.288422  -0.53212  0  2.19762  0
