# generated using pymatgen
data_MnH20C20(NO4)2
_symmetry_space_group_name_H-M   'P 1'
_cell_length_a   5.60956177
_cell_length_b   7.97350040
_cell_length_c   11.17034548
_cell_angle_alpha   106.92149168
_cell_angle_beta   97.59682484
_cell_angle_gamma   98.41464427
_symmetry_Int_Tables_number   1
_chemical_formula_structural   MnH20C20(NO4)2
_chemical_formula_sum   'Mn1 H20 C20 N2 O8'
_cell_volume   464.71356402
_cell_formula_units_Z   1
loop_
 _symmetry_equiv_pos_site_id
 _symmetry_equiv_pos_as_xyz
  1  'x, y, z'
loop_
 _atom_site_type_symbol
 _atom_site_label
 _atom_site_symmetry_multiplicity
 _atom_site_fract_x
 _atom_site_fract_y
 _atom_site_fract_z
 _atom_site_occupancy
 _atom_site_hle17_ddec_charge
 _atom_site_hle17_ddec_spin_density
 _atom_site_hle17_ddec_sum_bond_order
 _atom_site_hle17_magmom
 _atom_site_hse06_10hf_ddec_charge
 _atom_site_hse06_10hf_ddec_spin_density
 _atom_site_hse06_10hf_ddec_sum_bond_order
 _atom_site_hse06_10hf_magmom
 _atom_site_hse06_ddec_charge
 _atom_site_hse06_ddec_spin_density
 _atom_site_hse06_ddec_sum_bond_order
 _atom_site_hse06_magmom
 _atom_site_pbe_cm5_charge
 _atom_site_pbe_ddec_charge
 _atom_site_pbe_ddec_spin_density
 _atom_site_pbe_ddec_sum_bond_order
 _atom_site_pbe_magmom
Mn  Mn0  1  0.49999945  0.49999067  0.99999302  1  1.141174  -4.806781  1.758519  -4.689  0.969196  -4.735419  2.243998  -4.551  1.025852  -4.773578  2.177516  -4.608  0.58946  0.926644  -4.69606  2.292404  -4.494
H  H1  1  0.03099044  0.36636841  0.06095702  1  0.425269  -6.8e-05  0.868705  -0.002  0.3937  -0.000816  0.937145  -0.003  0.405001  -0.000441  0.920744  -0.003  0.294944  0.385672  -0.001172  0.948715  -0.003
H  H2  1  0.96900586  0.63363180  0.93904105  1  0.425351  -6.6e-05  0.868594  -0.002  0.393789  -0.000815  0.937025  -0.003  0.405082  -0.00044  0.920625  -0.003  0.294983  0.385761  -0.001171  0.948599  -0.003
H  H3  1  0.24664337  0.25198055  0.05613147  1  0.41056  -0.000225  0.908164  0.0  0.375659  -0.001048  0.980032  -0.001  0.38796  -0.000785  0.96231  -0.001  0.284565  0.367013  -0.00127  0.992432  -0.001
H  H4  1  0.75336058  0.74801438  0.94387048  1  0.410572  -0.000224  0.908151  0.0  0.375653  -0.001048  0.980041  -0.001  0.387955  -0.000785  0.962317  -0.001  0.284556  0.367011  -0.00127  0.992434  -0.001
H  H5  1  0.75459143  0.05837998  0.24408931  1  0.071402  -5.7e-05  0.972448  0.0  0.077251  -0.000207  1.047948  0.0  0.07793  -0.000119  1.048869  0.0  0.099447  0.0769  -0.000305  1.047345  0.0
H  H6  1  0.24539481  0.94162285  0.75592297  1  0.071365  -4.3e-05  0.97245  0.0  0.077209  -0.000207  1.047927  0.0  0.077884  -0.000119  1.048849  0.0  0.099407  0.076869  -0.000305  1.047304  0.0
H  H7  1  0.91188249  0.04972411  0.11482901  1  0.114468  9.6e-05  0.907109  0.0  0.128296  -0.000182  0.963369  0.0  0.130514  -5.4e-05  0.961303  0.0  0.1221  0.126585  -0.000323  0.965144  0.0
H  H8  1  0.08812427  0.95028152  0.88519056  1  0.114502  0.000105  0.907105  0.0  0.128257  -0.000182  0.963408  0.0  0.130473  -5.4e-05  0.961338  0.0  0.122113  0.126544  -0.000323  0.965185  0.0
H  H9  1  0.63595601  0.26380014  0.37989617  1  0.108445  3.2e-05  0.974275  0.0  0.118494  9e-06  1.036296  0.0  0.121349  1.4e-05  1.035473  0.0  0.101517  0.116466  -8e-06  1.036946  0.0
H  H10  1  0.36404343  0.73621211  0.62011804  1  0.108363  7e-06  0.97436  0.0  0.118379  1e-05  1.036439  0.0  0.121233  1.3e-05  1.035616  0.0  0.101539  0.116351  -8e-06  1.037092  0.0
H  H11  1  0.37662614  0.52978289  0.40841964  1  0.108911  6.6e-05  0.966344  0.0  0.120315  8.3e-05  1.026035  0.0  0.123031  8.3e-05  1.025604  0.0  0.103062  0.118367  7.8e-05  1.026421  0.0
H  H12  1  0.62336966  0.47022934  0.59158716  1  0.108769  7e-05  0.966478  0.0  0.120255  8.3e-05  1.026072  0.0  0.122966  8.3e-05  1.025652  0.0  0.102992  0.118304  7.8e-05  1.026454  0.0
H  H13  1  0.82461608  0.64376729  0.27495890  1  0.086605  9.9e-05  0.950535  0.0  0.09167  -0.00024  1.018322  0.0  0.093821  -0.000111  1.017623  0.0  0.119228  0.089987  -0.000381  1.019051  0.0
H  H14  1  0.17541464  0.35621980  0.72504227  1  0.086615  8.3e-05  0.950658  0.0  0.091673  -0.00024  1.018467  0.0  0.09382  -0.000112  1.017769  0.0  0.119245  0.089998  -0.000381  1.019183  0.0
H  H15  1  0.83635704  0.84599404  0.49031335  1  0.103057  -0.000192  0.973977  0.0  0.112262  -0.000261  1.036806  0.0  0.114779  -0.00019  1.037342  0.0  0.104479  0.110444  -0.000351  1.036628  0.0
H  H16  1  0.16366763  0.15401169  0.50968325  1  0.103112  -0.000198  0.973915  0.0  0.112306  -0.000261  1.036743  0.0  0.114829  -0.000191  1.037263  0.0  0.10449  0.110483  -0.000351  1.036585  0.0
H  H17  1  0.17710505  0.99450870  0.33673679  1  0.104705  -0.000194  0.966108  0.0  0.114287  -0.000283  1.028327  0.0  0.117535  -0.000203  1.027297  0.0  0.106316  0.111887  -0.000381  1.0294  0.0
H  H18  1  0.82289720  0.00550088  0.66325287  1  0.104763  -0.000196  0.966104  0.0  0.114327  -0.000282  1.028344  0.0  0.117574  -0.000203  1.027315  0.0  0.10634  0.111926  -0.00038  1.02942  0.0
H  H19  1  0.19055452  0.78302077  0.12992679  1  0.09113  0.000173  0.964625  0.0  0.096908  -0.000253  1.030989  0.0  0.100179  -4.4e-05  1.027717  0.0  0.120526  0.094285  -0.000473  1.033613  -0.001
H  H20  1  0.80941513  0.21697393  0.87005407  1  0.09114  0.000176  0.964415  0.0  0.096644  -0.000253  1.031129  0.0  0.099983  -4.4e-05  1.027762  0.0  0.120446  0.094023  -0.000474  1.033752  -0.001
C  C21  1  0.64393359  0.21802326  0.12773038  1  0.671309  -0.001962  3.84598  -0.002  0.617407  -0.004706  4.152922  -0.004  0.650798  -0.003376  4.146246  -0.003  0.215372  0.594729  -0.006093  4.156344  -0.005
C  C22  1  0.35606592  0.78198232  0.87227886  1  0.671488  -0.00196  3.846061  -0.002  0.617477  -0.004708  4.153098  -0.004  0.650863  -0.003377  4.146413  -0.003  0.215429  0.594799  -0.006095  4.156521  -0.005
C  C23  1  0.83921067  0.13862527  0.19032140  1  -0.07592  -0.001249  3.620715  -0.001  -0.132568  -0.001696  3.88371  -0.001  -0.129214  -0.00125  3.88347  -0.001  -0.070908  -0.135152  -0.002189  3.884234  -0.002
C  C24  1  0.16078672  0.86137896  0.80969191  1  -0.076008  -0.001295  3.620998  -0.001  -0.132493  -0.001695  3.883813  -0.001  -0.129105  -0.001252  3.883558  -0.001  -0.070938  -0.135079  -0.002189  3.884342  -0.002
C  C25  1  0.01117799  0.38201675  0.38079611  1  0.23723  3.6e-05  3.834287  0.0  0.229283  -3.7e-05  4.096253  0.0  0.238534  7e-06  4.111536  0.0  0.067594  0.222755  -7.4e-05  4.08595  0.0
C  C26  1  0.98878775  0.61800462  0.61920346  1  0.237101  2.3e-05  3.834521  0.0  0.22906  -3.7e-05  4.096579  0.0  0.238334  6e-06  4.111844  0.0  0.067428  0.222545  -7.4e-05  4.086265  0.0
C  C27  1  0.79720147  0.36527259  0.43208209  1  -0.195713  -2.7e-05  3.787473  0.0  -0.214161  -1.3e-05  4.040235  0.0  -0.217783  2e-06  4.06001  0.0  -0.115851  -0.211585  -9.7e-05  4.026794  0.0
C  C28  1  0.20278452  0.63475025  0.56794149  1  -0.195601  4.5e-05  3.787008  0.0  -0.213981  -1.5e-05  4.0398  0.0  -0.217602  8e-06  4.05957  0.0  -0.115879  -0.21141  -9.7e-05  4.026364  0.0
C  C29  1  0.21131706  0.51802145  0.44895783  1  -0.160155  2.1e-05  3.771078  0.0  -0.18177  1e-06  4.024738  0.0  -0.184544  2e-05  4.043977  0.0  -0.110233  -0.179724  -1.1e-05  4.011646  0.0
C  C30  1  0.78869179  0.48196418  0.55106131  1  -0.159996  4.3e-05  3.771775  0.0  -0.181606  1e-06  4.025331  0.0  -0.184376  2.2e-05  4.044566  0.0  -0.110158  -0.179565  -1.1e-05  4.012241  0.0
C  C31  1  0.68393644  0.72405350  0.29316230  1  0.124229  -0.002108  3.708  -0.002  0.095083  -0.003856  3.963165  -0.003  0.101845  -0.003131  3.981008  -0.003  0.048934  0.090524  -0.004709  3.951347  -0.004
C  C32  1  0.31606757  0.27593476  0.70683021  1  0.124189  -0.002041  3.708381  -0.002  0.095038  -0.003858  3.963575  -0.003  0.101802  -0.003133  3.98141  -0.003  0.048844  0.090478  -0.00471  3.951764  -0.004
C  C33  1  0.68884620  0.83923422  0.41427023  1  -0.16375  0.000825  3.702229  0.0  -0.181132  5.1e-05  3.951737  0.0  -0.188877  0.000636  3.973084  0.0  -0.083171  -0.176216  -0.000524  3.937759  0.0
C  C34  1  0.31116751  0.16075676  0.58572617  1  -0.163884  0.000786  3.702452  0.0  -0.18128  5.3e-05  3.951867  0.0  -0.189024  0.000639  3.97321  0.0  -0.083162  -0.176361  -0.000522  3.937882  0.0
C  C35  1  0.50313999  0.93943135  0.43608547  1  0.084816  -0.001459  3.762283  -0.001  0.095865  -0.002724  3.993174  -0.002  0.099722  -0.002229  4.014582  -0.002  0.010189  0.09325  -0.003716  3.978805  -0.003
C  C36  1  0.49688231  0.06055834  0.56389242  1  0.084767  -0.001425  3.76233  -0.001  0.096068  -0.002726  3.992942  -0.002  0.099927  -0.002233  4.014346  -0.002  0.010295  0.093446  -0.003718  3.97858  -0.003
C  C37  1  0.32352400  0.91853883  0.33007279  1  -0.144464  0.000846  3.680521  0.0  -0.163717  9.5e-05  3.931464  0.0  -0.170629  0.000696  3.950584  0.0  -0.075592  -0.159384  -0.00054  3.919188  -0.001
C  C38  1  0.67647413  0.08145471  0.66990879  1  -0.144507  0.000816  3.680437  0.0  -0.163808  9.6e-05  3.931196  0.0  -0.170729  0.0007  3.950331  0.0  -0.075644  -0.159473  -0.00054  3.91893  -0.001
C  C39  1  0.33128791  0.80035426  0.21202827  1  0.14512  -0.002157  3.679956  -0.002  0.114771  -0.004122  3.933982  -0.004  0.122824  -0.003333  3.9488  -0.003  0.05765  0.109257  -0.005125  3.924601  -0.004
C  C40  1  0.66869331  0.19963651  0.78794985  1  0.145156  -0.002146  3.679516  -0.002  0.115056  -0.004124  3.933533  -0.004  0.123081  -0.003339  3.948309  -0.003  0.057784  0.109541  -0.005129  3.924157  -0.004
N  N41  1  0.50705791  0.70249178  0.19275887  1  -0.324198  -0.025639  3.204646  -0.014  -0.254738  -0.030477  3.474578  -0.015  -0.272591  -0.027165  3.488204  -0.012  -0.311717  -0.242444  -0.033811  3.46566  -0.018
N  N42  1  0.49294343  0.29750713  0.80723299  1  -0.324152  -0.025673  3.20456  -0.014  -0.254761  -0.030478  3.474472  -0.015  -0.27262  -0.027163  3.488109  -0.012  -0.311813  -0.242472  -0.033814  3.465566  -0.018
O  O43  1  0.72263369  0.35611273  0.09597421  1  -0.676323  -0.031413  2.054019  -0.02  -0.59701  -0.038234  2.307812  -0.023  -0.628795  -0.03439  2.29523  -0.02  -0.31131  -0.573836  -0.04185  2.315482  -0.026
O  O44  1  0.27738396  0.64387961  0.90402004  1  -0.676491  -0.031418  2.054083  -0.02  -0.597046  -0.038234  2.307835  -0.023  -0.628868  -0.034388  2.295341  -0.02  -0.311355  -0.573873  -0.041849  2.31551  -0.026
O  O45  1  0.42405120  0.14180684  0.11037199  1  -0.597212  -0.000601  1.97584  -0.001  -0.546627  -0.002053  2.20422  -0.003  -0.572268  -0.00127  2.197038  -0.002  -0.304081  -0.528456  -0.002853  2.208504  -0.003
O  O46  1  0.57595855  0.85818946  0.88964137  1  -0.597247  -0.000604  1.975872  -0.001  -0.546683  -0.002053  2.204343  -0.003  -0.572322  -0.001272  2.197163  -0.002  -0.304069  -0.528507  -0.002854  2.208616  -0.003
O  O47  1  0.04607115  0.26927689  0.26800699  1  -0.268665  0.000259  2.356664  0.0  -0.203719  3.7e-05  2.594817  0.0  -0.219096  0.000149  2.596105  0.0  -0.189805  -0.192915  -7.5e-05  2.593838  0.0
O  O48  1  0.95394053  0.73073409  0.73200060  1  -0.268529  0.000273  2.356594  0.0  -0.203601  3.6e-05  2.594737  0.0  -0.219012  0.00015  2.596032  0.0  -0.189679  -0.192794  -7.5e-05  2.593751  0.0
O  O49  1  0.16573432  0.33301885  0.01523929  1  -0.851415  -0.031728  1.89587  -0.02  -0.790433  -0.041357  2.112437  -0.026  -0.81499  -0.036724  2.075477  -0.023  -0.577936  -0.771758  -0.045713  2.137952  -0.03
O  O50  1  0.83427425  0.66698011  0.98475933  1  -0.851452  -0.031727  1.895877  -0.02  -0.790506  -0.041353  2.112443  -0.026  -0.815035  -0.036722  2.075501  -0.023  -0.577971  -0.77184  -0.045712  2.137941  -0.03
