# generated using pymatgen
data_CuH16C24(NO)4
_symmetry_space_group_name_H-M   'P 1'
_cell_length_a   8.58912241
_cell_length_b   10.27450799
_cell_length_c   14.18218526
_cell_angle_alpha   92.28997840
_cell_angle_beta   94.91962150
_cell_angle_gamma   112.11649836
_symmetry_Int_Tables_number   1
_chemical_formula_structural   CuH16C24(NO)4
_chemical_formula_sum   'Cu2 H32 C48 N8 O8'
_cell_volume   1151.65853488
_cell_formula_units_Z   2
loop_
 _symmetry_equiv_pos_site_id
 _symmetry_equiv_pos_as_xyz
  1  'x, y, z'
loop_
 _atom_site_type_symbol
 _atom_site_label
 _atom_site_symmetry_multiplicity
 _atom_site_fract_x
 _atom_site_fract_y
 _atom_site_fract_z
 _atom_site_occupancy
 _atom_site_pbe_cm5_charge
 _atom_site_pbe_ddec_charge
 _atom_site_pbe_ddec_spin_density
 _atom_site_pbe_ddec_sum_bond_order
 _atom_site_pbe_magmom
Cu  Cu0  1  0.27792294  0.80908034  0.24734880  1  0.76275  0.72783  -0.744785  2.329996  -0.584
Cu  Cu1  1  0.72207527  0.19092223  0.75264854  1  0.762748  0.727828  -0.744764  2.329985  -0.584
H  H2  1  0.89657217  0.68296976  0.19663346  1  0.130897  0.109736  -0.001595  0.961495  -0.002
H  H3  1  0.10342180  0.31702333  0.80336262  1  0.130925  0.109767  -0.001595  0.961527  -0.002
H  H4  1  0.70704074  0.58581180  0.04375138  1  0.113372  0.121621  -0.000724  0.978609  -0.001
H  H5  1  0.29295418  0.41418867  0.95624360  1  0.113378  0.121655  -0.000724  0.978668  -0.001
H  H6  1  0.83591770  0.58821915  0.89163833  1  0.110973  0.129534  9e-06  1.026721  0.0
H  H7  1  0.16407861  0.41176873  0.10835767  1  0.11099  0.129488  9e-06  1.026652  0.0
H  H8  1  0.42387586  0.76541354  0.82322660  1  0.110253  0.131763  -0.000278  1.006973  0.0
H  H9  1  0.57612869  0.23459015  0.17677039  1  0.110285  0.131806  -0.000278  1.007009  0.0
H  H10  1  0.70059160  0.87638041  0.92546079  1  0.111009  0.130453  1.2e-05  1.016303  0.0
H  H11  1  0.29941600  0.12361690  0.07454316  1  0.111029  0.130517  1.2e-05  1.016302  0.0
H  H12  1  0.85269003  0.95906362  0.09148528  1  0.110253  0.119377  -0.000518  0.982717  -0.001
H  H13  1  0.14730301  0.04092193  0.90852316  1  0.110256  0.119353  -0.000518  0.982615  -0.001
H  H14  1  0.68250544  0.93716822  0.22821268  1  0.117584  0.08633  -0.001157  1.004819  -0.002
H  H15  1  0.31747868  0.06282362  0.77179132  1  0.117596  0.086379  -0.001156  1.00484  -0.002
H  H16  1  0.10907687  0.66273121  0.80942972  1  0.102584  0.109731  -0.000313  1.033852  0.0
H  H17  1  0.89092931  0.33726830  0.19056648  1  0.102592  0.109778  -0.000313  1.033782  0.0
H  H18  1  0.95940529  0.42568087  0.41614553  1  0.103993  0.11394  -0.0002  1.007759  0.0
H  H19  1  0.04059104  0.57431744  0.58385508  1  0.104006  0.113947  -0.0002  1.007744  0.0
H  H20  1  0.28895477  0.32442899  0.24135873  1  0.10268  0.113136  9e-06  1.023015  0.0
H  H21  1  0.71104015  0.67557142  0.75864049  1  0.1027  0.113158  9e-06  1.022972  0.0
H  H22  1  0.95132977  0.00170203  0.39210662  1  0.100316  0.103225  -0.000251  1.036177  0.0
H  H23  1  0.04867384  0.99829949  0.60789447  1  0.100314  0.103196  -0.000251  1.036229  0.0
H  H24  1  0.75576157  0.24315884  0.49451266  1  0.11505  0.106302  6.6e-05  0.983122  0.0
H  H25  1  0.24424440  0.75684792  0.50549015  1  0.115087  0.106371  6.5e-05  0.983169  0.0
H  H26  1  0.86186232  0.14774293  0.55303156  1  0.121315  0.133939  -0.000116  0.988018  0.0
H  H27  1  0.13814130  0.85225857  0.44697094  1  0.12129  0.133851  -0.000117  0.988062  0.0
H  H28  1  0.74967484  0.87983123  0.51969131  1  0.119676  0.12316  -0.000516  1.049372  -0.001
H  H29  1  0.25031985  0.12017136  0.48030233  1  0.119724  0.123198  -0.000516  1.049068  -0.001
H  H30  1  0.52618432  0.10324055  0.34581684  1  0.139301  0.1167  -0.000247  1.005666  -0.001
H  H31  1  0.47381954  0.89676937  0.65418457  1  0.139296  0.116691  -0.000247  1.005669  -0.001
H  H32  1  0.47907602  0.68983928  0.39889736  1  0.124826  0.127303  -0.000459  0.997553  -0.001
H  H33  1  0.52093393  0.31017399  0.60109390  1  0.12479  0.127227  -0.00046  0.9973  -0.001
C  C34  1  0.94758904  0.68418934  0.12874973  1  0.063057  0.106419  0.003543  3.915182  0.003
C  C35  1  0.05240869  0.31580695  0.87124595  1  0.06299  0.106334  0.003543  3.915198  0.003
C  C36  1  0.84368525  0.63058672  0.04275888  1  -0.081781  -0.128979  -0.004466  3.991731  -0.005
C  C37  1  0.15631202  0.36940850  0.95723814  1  -0.081784  -0.129054  -0.004466  3.991847  -0.005
C  C38  1  0.91529469  0.63377209  0.95855444  1  -0.061207  -0.070291  0.005783  3.875364  0.003
C  C39  1  0.08469881  0.36621995  0.04144157  1  -0.061193  -0.070164  0.005783  3.875385  0.003
C  C40  1  0.09346091  0.69276415  0.96048835  1  -0.000906  0.044725  -0.003002  4.011894  -0.004
C  C41  1  0.90653870  0.30723109  0.03950879  1  -0.00092  0.044694  -0.003001  4.011829  -0.004
C  C42  1  0.18876583  0.74402322  0.05015299  1  0.117336  0.118793  -0.00011  3.974535  -0.001
C  C43  1  0.81123002  0.25597411  0.94984263  1  0.117298  0.118754  -0.000108  3.974358  -0.001
C  C44  1  0.35554914  0.75730835  0.88553804  1  -0.080367  -0.117825  -0.000698  3.949238  -0.001
C  C45  1  0.64445541  0.24269532  0.11445965  1  -0.080433  -0.117922  -0.000698  3.949306  -0.001
C  C46  1  0.45411545  0.80912108  0.97577260  1  0.001603  0.052498  -0.0019  3.989424  -0.002
C  C47  1  0.54588041  0.19087622  0.02422514  1  0.001617  0.052499  -0.0019  3.989451  -0.002
C  C48  1  0.63292202  0.86773628  0.98815421  1  -0.062355  -0.074341  0.004867  3.897644  0.003
C  C49  1  0.36707690  0.13225990  0.01184998  1  -0.062427  -0.074464  0.004866  3.897667  0.003
C  C50  1  0.71511724  0.91367933  0.07871421  1  -0.0842  -0.134748  -0.003167  3.996901  -0.004
C  C51  1  0.28488190  0.08631477  0.92128850  1  -0.084174  -0.13464  -0.003166  3.996877  -0.004
C  C52  1  0.62012228  0.90207486  0.15626876  1  0.060556  0.11597  0.003092  3.929971  0.002
C  C53  1  0.37986536  0.09791704  0.84373330  1  0.060513  0.115776  0.003092  3.93022  0.002
C  C54  1  0.18257538  0.70148891  0.87838228  1  -0.084703  -0.124687  -0.000693  3.981392  -0.001
C  C55  1  0.81742564  0.29850949  0.12161504  1  -0.084721  -0.124733  -0.000694  3.981309  -0.001
C  C56  1  0.94221561  0.20929283  0.41411789  1  -0.014573  0.088106  -6.8e-05  3.98527  0.0
C  C57  1  0.05778823  0.79071186  0.58588192  1  -0.014607  0.08805  -6.8e-05  3.985216  0.0
C  C58  1  0.00620024  0.34827475  0.38840617  1  -0.083137  -0.147118  0.000493  3.928529  0.0
C  C59  1  0.99379915  0.65172780  0.61159334  1  -0.083103  -0.147064  0.000494  3.928404  0.0
C  C60  1  0.12972202  0.38956636  0.32501589  1  -0.02332  -0.026932  -0.005279  3.994519  -0.006
C  C61  1  0.87027924  0.61043515  0.67498438  1  -0.023277  -0.026845  -0.00528  3.994364  -0.006
C  C62  1  0.19080385  0.29155312  0.28905975  1  -0.084331  -0.120983  -5.6e-05  3.955571  0.0
C  C63  1  0.80919389  0.70844837  0.71093964  1  -0.084392  -0.121088  -5.5e-05  3.955653  0.0
C  C64  1  0.12676345  0.15217976  0.31318869  1  -0.026652  -0.031959  -0.004504  4.007192  -0.005
C  C65  1  0.87323641  0.84782383  0.68681230  1  -0.026644  -0.032022  -0.004504  4.007252  -0.005
C  C66  1  0.00131982  0.11150311  0.37498042  1  -0.092298  -0.160985  0.000521  3.962481  0.0
C  C67  1  0.99868027  0.88849836  0.62502120  1  -0.092288  -0.160939  0.000521  3.962489  0.0
C  C68  1  0.19925340  0.05014399  0.27554141  1  0.185185  0.543357  0.00142  4.276503  0.002
C  C69  1  0.80074669  0.94985744  0.72446304  1  0.1852  0.543437  0.001421  4.276313  0.002
C  C70  1  0.80983270  0.16355221  0.48278653  1  -0.047528  -0.11788  -0.001001  3.857565  -0.001
C  C71  1  0.19017208  0.83644933  0.51721392  1  -0.047526  -0.117798  -0.001002  3.857602  -0.001
C  C72  1  0.66270053  0.89655051  0.46622728  1  0.000611  -0.108633  -0.002409  3.928109  -0.003
C  C73  1  0.33732375  0.10346055  0.53378082  1  0.000605  -0.108658  -0.002407  3.928833  -0.003
C  C74  1  0.19546320  0.53579868  0.29052118  1  0.177918  0.533747  0.001794  4.283819  0.003
C  C75  1  0.80454252  0.46420492  0.70948220  1  0.177954  0.533776  0.001796  4.283533  0.003
C  C76  1  0.54854897  0.01637516  0.37713242  1  0.141932  0.080705  0.002086  3.904549  0.0
C  C77  1  0.45145300  0.98363057  0.62286734  1  0.141869  0.080658  0.00209  3.904219  0.0
C  C78  1  0.52842809  0.80386088  0.40686485  1  -0.000309  -0.038381  -0.000831  3.990917  -0.001
C  C79  1  0.47155954  0.19612596  0.59312434  1  -0.00037  -0.03834  -0.000833  3.991501  -0.001
C  C80  1  0.36954221  0.80234508  0.05798009  1  0.117264  0.12232  -0.000192  3.987859  -0.001
C  C81  1  0.63044778  0.19765213  0.94201876  1  0.117355  0.122365  -0.000191  3.987966  -0.001
N  N82  1  0.11543438  0.73868808  0.13189598  1  -0.339412  -0.231654  -0.061  3.617189  -0.079
N  N83  1  0.88456500  0.26130928  0.86809981  1  -0.339363  -0.231525  -0.061004  3.617145  -0.079
N  N84  1  0.45202769  0.84847726  0.14624052  1  -0.322124  -0.25337  -0.046826  3.57351  -0.062
N  N85  1  0.54796513  0.15152099  0.85376133  1  -0.322132  -0.253253  -0.046823  3.57358  -0.062
N  N86  1  0.67322213  0.03022671  0.44680286  1  -0.241478  0.046793  -0.001121  3.784515  -0.002
N  N87  1  0.32677468  0.96978317  0.55319609  1  -0.241462  0.046804  -0.00112  3.784559  -0.002
N  N88  1  0.45832673  0.88034378  0.35218931  1  -0.379813  -0.274815  -0.056298  3.684051  -0.072
N  N89  1  0.54167783  0.11967039  0.64780877  1  -0.37975  -0.274826  -0.05629  3.683699  -0.072
O  O90  1  0.13541470  0.92328026  0.30031605  1  -0.333205  -0.561929  -0.037328  2.278168  -0.054
O  O91  1  0.86458117  0.07672226  0.69968328  1  -0.33321  -0.56194  -0.037339  2.278124  -0.054
O  O92  1  0.31963610  0.09515656  0.22504933  1  -0.334144  -0.589231  -0.000576  2.203032  -0.002
O  O93  1  0.68037761  0.90484912  0.77496088  1  -0.334172  -0.589269  -0.000575  2.202994  -0.002
O  O94  1  0.13827071  0.62518725  0.32350145  1  -0.338577  -0.561726  -0.037555  2.197744  -0.054
O  O95  1  0.86174558  0.37482176  0.67649843  1  -0.338614  -0.561773  -0.037564  2.197472  -0.054
O  O96  1  0.30158667  0.56106116  0.23048880  1  -0.345861  -0.581042  -0.003467  2.140611  -0.006
O  O97  1  0.69842985  0.43894042  0.76951645  1  -0.345859  -0.581041  -0.003471  2.140696  -0.006
