# generated using pymatgen
data_CdH4C8(O3F2)2
_symmetry_space_group_name_H-M   'P 1'
_cell_length_a   6.00607900
_cell_length_b   7.39750095
_cell_length_c   15.38354336
_cell_angle_alpha   92.53179344
_cell_angle_beta   99.55681080
_cell_angle_gamma   97.22859989
_symmetry_Int_Tables_number   1
_chemical_formula_structural   CdH4C8(O3F2)2
_chemical_formula_sum   'Cd2 H8 C16 O12 F8'
_cell_volume   667.16713171
_cell_formula_units_Z   2
loop_
 _symmetry_equiv_pos_site_id
 _symmetry_equiv_pos_as_xyz
  1  'x, y, z'
loop_
 _atom_site_type_symbol
 _atom_site_label
 _atom_site_symmetry_multiplicity
 _atom_site_fract_x
 _atom_site_fract_y
 _atom_site_fract_z
 _atom_site_occupancy
 _atom_site_hle17_bader_spin_density
 _atom_site_hle17_ddec_charge
 _atom_site_hle17_ddec_spin_density
 _atom_site_hle17_ddec_sum_bond_order
 _atom_site_hle17_magmom
 _atom_site_hse06_10hf_bader_spin_density
 _atom_site_hse06_10hf_ddec_charge
 _atom_site_hse06_10hf_ddec_spin_density
 _atom_site_hse06_10hf_ddec_sum_bond_order
 _atom_site_hse06_10hf_magmom
 _atom_site_hse06_bader_spin_density
 _atom_site_hse06_ddec_charge
 _atom_site_hse06_ddec_spin_density
 _atom_site_hse06_ddec_sum_bond_order
 _atom_site_hse06_magmom
 _atom_site_pbe_bader_spin_density
 _atom_site_pbe_cm5_charge
 _atom_site_pbe_ddec_charge
 _atom_site_pbe_ddec_spin_density
 _atom_site_pbe_ddec_sum_bond_order
 _atom_site_pbe_magmom
Cd  Cd0  1  0.50854604  0.75343719  0.04905188  1  0  1.305024  0  1.537314  0  0  1.128418  0  1.986276  0  0  1.18915  0  1.920975  0  0  0.787984  1.084586  0  2.03154  0
Cd  Cd1  1  0.49144213  0.24655492  0.95095485  1  0  1.305079  0  1.537225  0  0  1.128463  0  1.986149  0  0  1.189201  0  1.920845  0  0  0.788002  1.084635  0  2.031409  0
H  H2  1  0.31938093  0.92123696  0.18150758  1  0  0.426237  0  0.821366  0  0  0.404162  0  0.879722  0  0  0.411617  0  0.872288  0  0  0.319042  0.398864  0  0.885049  0
H  H3  1  0.68062055  0.07876598  0.81849298  1  0  0.426327  0  0.821265  0  0  0.404249  0  0.879634  0  0  0.411705  0  0.872198  0  0  0.319079  0.39895  0  0.884961  0
H  H4  1  0.26121864  0.03943254  0.09962817  1  0  0.428022  0  0.875574  0  0  0.391776  0  0.950277  0  0  0.402753  0  0.934744  0  0  0.290177  0.384001  0  0.961242  0
H  H5  1  0.73876784  0.96057174  0.90037089  1  0  0.428086  0  0.875477  0  0  0.391871  0  0.95013  0  0  0.402847  0  0.934599  0  0  0.290235  0.384095  0  0.961097  0
H  H6  1  0.85832032  0.57729129  0.11765178  1  0  0.426395  0  0.876172  0  0  0.395285  0  0.939845  0  0  0.406287  0  0.924063  0  0  0.285334  0.387443  0  0.95106  0
H  H7  1  0.14166365  0.42272673  0.88235390  1  0  0.426221  0  0.876382  0  0  0.395122  0  0.940044  0  0  0.406125  0  0.924262  0  0  0.285254  0.387279  0  0.951261  0
H  H8  1  0.97912408  0.78210449  0.12019812  1  0  0.430566  0  0.864297  0  0  0.402122  0  0.922831  0  0  0.412643  0  0.907724  0  0  0.287275  0.394621  0  0.933569  0
H  H9  1  0.02087756  0.21790810  0.87980849  1  0  0.430573  0  0.864282  0  0  0.402124  0  0.922839  0  0  0.412636  0  0.907746  0  0  0.287232  0.394636  0  0.933569  0
C  C10  1  0.95972771  0.21020502  0.19445743  1  0  -0.141076  0  3.746242  0  0  -0.143653  0  4.007419  0  0  -0.148363  0  4.023336  0  0  -0.02084  -0.140725  0  3.997137  0
C  C11  1  0.04028441  0.78981028  0.80554724  1  0  -0.141205  0  3.746058  0  0  -0.143856  0  4.007282  0  0  -0.148565  0  4.023202  0  0  -0.021007  -0.14093  0  3.997001  0
C  C12  1  0.87630538  0.12655732  0.26398993  1  0  0.21288  0  3.778466  0  0  0.177572  0  4.080215  0  0  0.187685  0  4.088399  0  0  0.094784  0.170375  0  4.075199  0
C  C13  1  0.12370053  0.87345243  0.73600907  1  0  0.213176  0  3.77808  0  0  0.177854  0  4.079856  0  0  0.187968  0  4.088037  0  0  0.094943  0.170658  0  4.074839  0
C  C14  1  0.00788381  0.13397409  0.34819523  1  0  0.124418  0  3.819173  0  0  0.091732  0  4.121389  0  0  0.098689  0  4.12956  0  0  0.09009  0.086596  0  4.116466  0
C  C15  1  0.99215161  0.86603154  0.65180087  1  0  0.1243  0  3.819125  0  0  0.091609  0  4.121359  0  0  0.098567  0  4.129531  0  0  0.090047  0.086473  0  4.116436  0
C  C16  1  0.22918881  0.22663648  0.36325277  1  0  0.127469  0  3.812976  0  0  0.094027  0  4.11793  0  0  0.101497  0  4.126247  0  0  0.091647  0.088623  0  4.112853  0
C  C17  1  0.77081402  0.77337595  0.63674285  1  0  0.1275  0  3.812912  0  0  0.094123  0  4.117818  0  0  0.101593  0  4.126134  0  0  0.091782  0.088718  0  4.11274  0
C  C18  1  0.31465681  0.31106237  0.29370659  1  0  0.198351  0  3.798731  0  0  0.161015  0  4.105198  0  0  0.170394  0  4.113599  0  0  0.090304  0.154263  0  4.100035  0
C  C19  1  0.68534522  0.68893632  0.70628353  1  0  0.19819  0  3.798609  0  0  0.160826  0  4.105075  0  0  0.170206  0  4.113484  0  0  0.090278  0.154074  0  4.099907  0
C  C20  1  0.18374260  0.30339326  0.20977658  1  0  -0.140254  0  3.736267  0  0  -0.14573  0  4.001466  0  0  -0.149194  0  4.016681  0  0  -0.020683  -0.143636  0  3.99168  0
C  C21  1  0.81625539  0.69659747  0.79022875  1  0  -0.140131  0  3.735716  0  0  -0.145613  0  4.000843  0  0  -0.149092  0  4.01608  0  0  -0.020667  -0.143509  0  3.991057  0
C  C22  1  0.81217501  0.20982982  0.10541409  1  0  0.699542  0  3.871296  0  0  0.642008  0  4.169494  0  0  0.677706  0  4.16109  0  0  0.211892  0.617693  0  4.174446  0
C  C23  1  0.18781553  0.79017856  0.89458528  1  0  0.699293  0  3.871711  0  0  0.641897  0  4.169743  0  0  0.677591  0  4.161345  0  0  0.211762  0.617582  0  4.174696  0
C  C24  1  0.28827253  0.37735733  0.13315983  1  0  0.712601  0  3.870692  0  0  0.654104  0  4.176809  0  0  0.690359  0  4.166712  0  0  0.220555  0.62935  0  4.183022  0
C  C25  1  0.71171960  0.62262926  0.86684248  1  0  0.712367  0  3.871051  0  0  0.653965  0  4.176966  0  0  0.690235  0  4.166856  0  0  0.220425  0.62918  0  4.183216  0
O  O26  1  0.69656811  0.06347339  0.06878777  1  0  -0.663395  0  2.070756  0  0  -0.593898  0  2.329857  0  0  -0.624959  0  2.318478  0  0  -0.32286  -0.571916  0  2.336871  0
O  O27  1  0.30343377  0.93653227  0.93121157  1  0  -0.663374  0  2.07088  0  0  -0.593895  0  2.329893  0  0  -0.624955  0  2.318514  0  0  -0.32283  -0.571906  0  2.336891  0
O  O28  1  0.80571414  0.36209912  0.07002098  1  0  -0.636468  0  2.003389  0  0  -0.568918  0  2.237503  0  0  -0.598687  0  2.226519  0  0  -0.302396  -0.547946  0  2.244371  0
O  O29  1  0.19427995  0.63790932  0.92998250  1  0  -0.636185  0  2.003292  0  0  -0.568769  0  2.237435  0  0  -0.598528  0  2.226449  0  0  -0.302309  -0.547799  0  2.244305  0
O  O30  1  0.29550890  0.25587650  0.07220271  1  0  -0.665293  0  2.069196  0  0  -0.59154  0  2.31256  0  0  -0.622616  0  2.301239  0  0  -0.309729  -0.569664  0  2.319653  0
O  O31  1  0.70446505  0.74410188  0.92779968  1  0  -0.665415  0  2.069209  0  0  -0.591673  0  2.312482  0  0  -0.622753  0  2.301153  0  0  -0.309814  -0.569772  0  2.319579  0
O  O32  1  0.35889944  0.54474212  0.13716151  1  0  -0.61203  0  2.014656  0  0  -0.553709  0  2.268987  0  0  -0.582196  0  2.255208  0  0  -0.310739  -0.533666  0  2.277811  0
O  O33  1  0.64110270  0.45524573  0.86283361  1  0  -0.611902  0  2.014858  0  0  -0.553548  0  2.269031  0  0  -0.582039  0  2.255248  0  0  -0.310555  -0.533495  0  2.277866  0
O  O34  1  0.25087579  0.91047032  0.11919492  1  0  -0.816064  0  1.926162  0  0  -0.750652  0  2.122758  0  0  -0.774  0  2.095973  0  0  -0.553804  -0.734103  0  2.141326  0
O  O35  1  0.74911544  0.08952169  0.88080484  1  0  -0.816161  0  1.926053  0  0  -0.750794  0  2.122633  0  0  -0.77414  0  2.095839  0  0  -0.553909  -0.734253  0  2.141222  0
O  O36  1  0.84268090  0.70641686  0.13395730  1  0  -0.843459  0  1.852601  0  0  -0.786143  0  2.039001  0  0  -0.81046  0  2.004761  0  0  -0.597609  -0.768802  0  2.062884  0
O  O37  1  0.15731521  0.29360257  0.86605107  1  0  -0.843391  0  1.852788  0  0  -0.786094  0  2.039159  0  0  -0.810404  0  2.004931  0  0  -0.597514  -0.768771  0  2.063003  0
F  F38  1  0.65999555  0.03903490  0.25375920  1  0  -0.169666  0  1.240583  0  0  -0.123593  0  1.411916  0  0  -0.132022  0  1.400978  0  0  -0.082416  -0.117493  0  1.419568  0
F  F39  1  0.34000216  0.96096533  0.74624239  1  0  -0.16974  0  1.240632  0  0  -0.123656  0  1.411974  0  0  -0.132086  0  1.401036  0  0  -0.082458  -0.117557  0  1.419624  0
F  F40  1  0.92100890  0.05373978  0.41411988  1  0  -0.126198  0  1.241378  0  0  -0.088984  0  1.399329  0  0  -0.095814  0  1.388258  0  0  -0.079332  -0.084014  0  1.407098  0
F  F41  1  0.07901153  0.94624672  0.58587498  1  0  -0.126193  0  1.241628  0  0  -0.088986  0  1.399595  0  0  -0.095817  0  1.388524  0  0  -0.07935  -0.084017  0  1.407364  0
F  F42  1  0.35834244  0.23364071  0.44385989  1  0  -0.125949  0  1.209027  0  0  -0.086971  0  1.357785  0  0  -0.093956  0  1.348103  0  0  -0.080703  -0.081883  0  1.364574  0
F  F43  1  0.64167332  0.76631714  0.55613611  1  0  -0.125906  0  1.209248  0  0  -0.08695  0  1.358003  0  0  -0.093936  0  1.34832  0  0  -0.080738  -0.081863  0  1.364793  0
F  F44  1  0.53235538  0.39523149  0.30987714  1  0  -0.15164  0  1.206326  0  0  -0.108409  0  1.365451  0  0  -0.116498  0  1.355709  0  0  -0.087946  -0.102548  0  1.372248  0
F  F45  1  0.46765246  0.60477262  0.69010952  1  0  -0.151517  0  1.206499  0  0  -0.108289  0  1.365638  0  0  -0.116377  0  1.355898  0  0  -0.087913  -0.102429  0  1.372433  0
