# generated using pymatgen
data_ZnH4C7N4O
_symmetry_space_group_name_H-M   'P 1'
_cell_length_a   8.89430066
_cell_length_b   9.62651752
_cell_length_c   9.71640864
_cell_angle_alpha   90.00003965
_cell_angle_beta   98.44878682
_cell_angle_gamma   89.99992600
_symmetry_Int_Tables_number   1
_chemical_formula_structural   ZnH4C7N4O
_chemical_formula_sum   'Zn4 H16 C28 N16 O4'
_cell_volume   822.90154653
_cell_formula_units_Z   4
loop_
 _symmetry_equiv_pos_site_id
 _symmetry_equiv_pos_as_xyz
  1  'x, y, z'
loop_
 _atom_site_type_symbol
 _atom_site_label
 _atom_site_symmetry_multiplicity
 _atom_site_fract_x
 _atom_site_fract_y
 _atom_site_fract_z
 _atom_site_occupancy
 _atom_site_hle17_bader_spin_density
 _atom_site_hle17_ddec_charge
 _atom_site_hle17_ddec_spin_density
 _atom_site_hle17_ddec_sum_bond_order
 _atom_site_hle17_magmom
 _atom_site_hse06_10hf_bader_spin_density
 _atom_site_hse06_10hf_ddec_charge
 _atom_site_hse06_10hf_ddec_spin_density
 _atom_site_hse06_10hf_ddec_sum_bond_order
 _atom_site_hse06_10hf_magmom
 _atom_site_hse06_bader_spin_density
 _atom_site_hse06_ddec_charge
 _atom_site_hse06_ddec_spin_density
 _atom_site_hse06_ddec_sum_bond_order
 _atom_site_hse06_magmom
 _atom_site_pbe_bader_spin_density
 _atom_site_pbe_cm5_charge
 _atom_site_pbe_ddec_charge
 _atom_site_pbe_ddec_spin_density
 _atom_site_pbe_ddec_sum_bond_order
 _atom_site_pbe_magmom
Zn  Zn0  1  0.99240575  0.14236065  0.89822555  1  0  1.091732  0  1.940873  0  0  0.918333  0  2.429536  0  0  0.959474  0  2.37414  0  0  0.732234  0.889063  0  2.46831  0
Zn  Zn1  1  0.50759489  0.64235681  0.60177590  1  0  1.091729  0  1.940929  0  0  0.918338  0  2.429592  0  0  0.959476  0  2.374196  0  0  0.732231  0.889071  0  2.468374  0
Zn  Zn2  1  0.00759436  0.85764247  0.10177623  1  0  1.091708  0  1.940927  0  0  0.918314  0  2.429593  0  0  0.959453  0  2.374197  0  0  0.732237  0.889041  0  2.468374  0
Zn  Zn3  1  0.49240750  0.35764008  0.39822104  1  0  1.091805  0  1.940841  0  0  0.918425  0  2.429493  0  0  0.959561  0  2.374103  0  0  0.732278  0.889156  0  2.468292  0
H  H4  1  0.69964842  0.06377066  0.99696456  1  0  0.069293  0  0.955704  0  0  0.076606  0  1.027068  0  0  0.079667  0  1.023876  0  0  0.10926  0.074443  0  1.029443  0
H  H5  1  0.80035120  0.56377159  0.50303464  1  0  0.069314  0  0.955702  0  0  0.076638  0  1.02706  0  0  0.079702  0  1.023861  0  0  0.109259  0.074474  0  1.029443  0
H  H6  1  0.30035056  0.93622832  0.00303500  1  0  0.069311  0  0.955703  0  0  0.076638  0  1.027061  0  0  0.079704  0  1.023859  0  0  0.109254  0.074468  0  1.029444  0
H  H7  1  0.19964779  0.43622946  0.49696389  1  0  0.0693  0  0.955723  0  0  0.076629  0  1.027075  0  0  0.079694  0  1.023875  0  0  0.109254  0.074464  0  1.029463  0
H  H8  1  0.42313286  0.12992868  0.93452670  1  0  0.092517  0  0.95939  0  0  0.106102  0  1.015972  0  0  0.108287  0  1.015838  0  0  0.103345  0.104582  0  1.016127  0
H  H9  1  0.07686646  0.62992992  0.56547238  1  0  0.092591  0  0.959336  0  0  0.106164  0  1.015934  0  0  0.108348  0  1.0158  0  0  0.103368  0.104647  0  1.016096  0
H  H10  1  0.57686612  0.87007133  0.06547286  1  0  0.092562  0  0.959325  0  0  0.106133  0  1.015925  0  0  0.108319  0  1.015789  0  0  0.103359  0.104611  0  1.016087  0
H  H11  1  0.92313366  0.37007112  0.43452734  1  0  0.092526  0  0.959375  0  0  0.106128  0  1.015945  0  0  0.108313  0  1.015811  0  0  0.103359  0.104609  0  1.016103  0
H  H12  1  0.34917099  0.29678650  0.73881040  1  0  0.104535  0  0.950456  0  0  0.116291  0  1.010882  0  0  0.118692  0  1.010142  0  0  0.104193  0.114685  0  1.011338  0
H  H13  1  0.15082697  0.79678572  0.76119066  1  0  0.104543  0  0.95046  0  0  0.116322  0  1.010852  0  0  0.118715  0  1.010131  0  0  0.104206  0.114715  0  1.0113  0
H  H14  1  0.65082685  0.70321455  0.26118901  1  0  0.104566  0  0.950438  0  0  0.116332  0  1.010851  0  0  0.118721  0  1.010141  0  0  0.104206  0.11472  0  1.011308  0
H  H15  1  0.84917087  0.20321429  0.23881080  1  0  0.104534  0  0.950459  0  0  0.116294  0  1.010884  0  0  0.118696  0  1.010139  0  0  0.104196  0.114684  0  1.011338  0
H  H16  1  0.82343175  0.32699235  0.69478658  1  0  0.086839  0  0.933713  0  0  0.096556  0  0.998845  0  0  0.099032  0  0.997164  0  0  0.11435  0.094526  0  1.000509  0
H  H17  1  0.67656638  0.82698949  0.80521260  1  0  0.086801  0  0.933738  0  0  0.096511  0  0.998873  0  0  0.098987  0  0.997192  0  0  0.114342  0.094482  0  1.000532  0
H  H18  1  0.17656610  0.67300974  0.30521180  1  0  0.086827  0  0.933754  0  0  0.096546  0  0.998894  0  0  0.099021  0  0.997216  0  0  0.11434  0.094515  0  1.00056  0
H  H19  1  0.32343260  0.17300740  0.19478800  1  0  0.086798  0  0.933739  0  0  0.096511  0  0.998885  0  0  0.098986  0  0.997205  0  0  0.114342  0.094483  0  1.000549  0
C  C20  1  0.32702474  0.92924881  0.55860335  1  0  0.529757  0  3.962471  0  0  0.492534  0  4.241052  0  0  0.518388  0  4.252989  0  0  0.319202  0.475081  0  4.232368  0
C  C21  1  0.17297873  0.42924891  0.94140062  1  0  0.529737  0  3.962491  0  0  0.492531  0  4.241066  0  0  0.518382  0  4.253  0  0  0.319223  0.47506  0  4.232383  0
C  C22  1  0.67297878  0.07074912  0.44139992  1  0  0.529761  0  3.962391  0  0  0.492556  0  4.240972  0  0  0.518413  0  4.2529  0  0  0.319224  0.475104  0  4.232283  0
C  C23  1  0.82702594  0.57075110  0.05859972  1  0  0.529789  0  3.962624  0  0  0.492538  0  4.2412  0  0  0.51842  0  4.253139  0  0  0.319248  0.475086  0  4.232516  0
C  C24  1  0.15746713  0.07107152  0.64414042  1  0  0.534341  0  3.988289  0  0  0.491927  0  4.275246  0  0  0.518575  0  4.286933  0  0  0.324201  0.47365  0  4.267201  0
C  C25  1  0.34253454  0.57107265  0.85586099  1  0  0.534361  0  3.988299  0  0  0.49196  0  4.27526  0  0  0.518602  0  4.286948  0  0  0.324181  0.473671  0  4.267211  0
C  C26  1  0.84253412  0.92892641  0.35586254  1  0  0.534329  0  3.988248  0  0  0.491937  0  4.275203  0  0  0.518582  0  4.286887  0  0  0.324166  0.473653  0  4.267158  0
C  C27  1  0.65746899  0.42892943  0.14413507  1  0  0.534274  0  3.988413  0  0  0.491829  0  4.275379  0  0  0.518503  0  4.287071  0  0  0.324028  0.473561  0  4.267326  0
C  C28  1  0.66102442  0.13783482  0.91454845  1  0  0.086482  0  3.73905  0  0  0.048744  0  4.001134  0  0  0.05298  0  4.020089  0  0  0.024593  0.046144  0  3.988627  0
C  C29  1  0.83897510  0.63783472  0.58545079  1  0  0.086473  0  3.739094  0  0  0.048747  0  4.001145  0  0  0.052986  0  4.020102  0  0  0.024584  0.046151  0  3.988641  0
C  C30  1  0.33897456  0.86216623  0.08545112  1  0  0.086488  0  3.739056  0  0  0.048741  0  4.001117  0  0  0.05298  0  4.020071  0  0  0.024605  0.046145  0  3.988606  0
C  C31  1  0.16102502  0.36216529  0.41454893  1  0  0.086524  0  3.739044  0  0  0.048794  0  4.001098  0  0  0.053032  0  4.02006  0  0  0.024608  0.046194  0  3.988604  0
C  C32  1  0.50909557  0.17490957  0.87876123  1  0  -0.100805  0  3.788144  0  0  -0.109928  0  4.034846  0  0  -0.114472  0  4.058768  0  0  -0.090171  -0.107095  0  4.018868  0
C  C33  1  0.99090389  0.67491036  0.62123906  1  0  -0.100877  0  3.788184  0  0  -0.110003  0  4.034891  0  0  -0.114548  0  4.058813  0  0  -0.090192  -0.107175  0  4.018926  0
C  C34  1  0.49090341  0.82509044  0.12123834  1  0  -0.100798  0  3.788108  0  0  -0.109909  0  4.034824  0  0  -0.114454  0  4.058746  0  0  -0.09018  -0.10708  0  4.01885  0
C  C35  1  0.00909622  0.32508861  0.37876169  1  0  -0.100808  0  3.788118  0  0  -0.109952  0  4.034834  0  0  -0.114498  0  4.058757  0  0  -0.090182  -0.10712  0  4.018861  0
C  C36  1  0.46791818  0.26908276  0.77111552  1  0  -0.135659  0  3.689583  0  0  -0.15983  0  3.936564  0  0  -0.162704  0  3.957226  0  0  -0.087887  -0.157979  0  3.923116  0
C  C37  1  0.03208096  0.76908210  0.72888465  1  0  -0.135675  0  3.689622  0  0  -0.159851  0  3.936622  0  0  -0.162725  0  3.957277  0  0  -0.087887  -0.157996  0  3.923161  0
C  C38  1  0.53208080  0.73091621  0.22888301  1  0  -0.135748  0  3.689598  0  0  -0.159918  0  3.936569  0  0  -0.162796  0  3.957224  0  0  -0.087917  -0.158063  0  3.923106  0
C  C39  1  0.96791802  0.23091688  0.27111594  1  0  -0.135626  0  3.68967  0  0  -0.159817  0  3.936656  0  0  -0.16269  0  3.957316  0  0  -0.08787  -0.157959  0  3.923193  0
C  C40  1  0.58055150  0.32751294  0.70112546  1  0  0.322595  0  3.896223  0  0  0.315872  0  4.147064  0  0  0.32521  0  4.165536  0  0  0.080797  0.308501  0  4.135067  0
C  C41  1  0.91944662  0.82751186  0.79887475  1  0  0.322544  0  3.896273  0  0  0.315777  0  4.147194  0  0  0.325119  0  4.165652  0  0  0.080756  0.308415  0  4.13518  0
C  C42  1  0.41944634  0.67248707  0.29887395  1  0  0.32261  0  3.896198  0  0  0.31588  0  4.147079  0  0  0.325224  0  4.165544  0  0  0.080781  0.308525  0  4.135054  0
C  C43  1  0.08055235  0.17248711  0.20112584  1  0  0.322485  0  3.896387  0  0  0.315803  0  4.147189  0  0  0.325143  0  4.165653  0  0  0.080791  0.308437  0  4.13518  0
C  C44  1  0.73145358  0.28490971  0.74516106  1  0  0.02093  0  3.645926  0  0  -0.017976  0  3.899428  0  0  -0.014911  0  3.915796  0  0  0.036593  -0.01928  0  3.888302  0
C  C45  1  0.76854461  0.78490878  0.75483810  1  0  0.021095  0  3.646079  0  0  -0.017766  0  3.89955  0  0  -0.014697  0  3.915916  0  0  0.036652  -0.019081  0  3.88843  0
C  C46  1  0.26854427  0.71508926  0.25483732  1  0  0.020907  0  3.646069  0  0  -0.018017  0  3.899601  0  0  -0.014953  0  3.915974  0  0  0.036571  -0.019333  0  3.888484  0
C  C47  1  0.23145437  0.21508915  0.24516249  1  0  0.021109  0  3.645983  0  0  -0.017798  0  3.899463  0  0  -0.014729  0  3.915832  0  0  0.036631  -0.019105  0  3.888342  0
N  N48  1  0.22642875  0.02693607  0.54542656  1  0  -0.442891  0  3.281287  0  0  -0.387751  0  3.537729  0  0  -0.41338  0  3.546321  0  0  -0.294671  -0.370253  0  3.53207  0
N  N49  1  0.27357525  0.52693631  0.95457617  1  0  -0.442972  0  3.2813  0  0  -0.387857  0  3.537779  0  0  -0.413492  0  3.546334  0  0  -0.294726  -0.37034  0  3.532096  0
N  N50  1  0.77357363  0.97306290  0.45457759  1  0  -0.442927  0  3.281251  0  0  -0.387817  0  3.537738  0  0  -0.41346  0  3.546295  0  0  -0.294717  -0.37032  0  3.532065  0
N  N51  1  0.72643056  0.47306474  0.04542123  1  0  -0.442886  0  3.281444  0  0  -0.387694  0  3.537889  0  0  -0.413384  0  3.546467  0  0  -0.294608  -0.370216  0  3.532228  0
N  N52  1  0.41981983  0.84167919  0.56095705  1  0  -0.610972  0  2.872548  0  0  -0.562481  0  3.163078  0  0  -0.584815  0  3.16586  0  0  -0.380015  -0.547007  0  3.160785  0
N  N53  1  0.08018376  0.34168147  0.93904584  1  0  -0.610892  0  2.872543  0  0  -0.562404  0  3.163052  0  0  -0.584729  0  3.165838  0  0  -0.379983  -0.546923  0  3.160774  0
N  N54  1  0.58018257  0.15832082  0.43904298  1  0  -0.610962  0  2.872487  0  0  -0.562487  0  3.163029  0  0  -0.584812  0  3.165812  0  0  -0.379998  -0.547002  0  3.16073  0
N  N55  1  0.91982090  0.65832165  0.06095656  1  0  -0.610991  0  2.872594  0  0  -0.562502  0  3.163137  0  0  -0.584825  0  3.165911  0  0  -0.380053  -0.547016  0  3.160838  0
N  N56  1  0.08995975  0.12027422  0.72780650  1  0  -0.629867  0  2.913965  0  0  -0.576337  0  3.223972  0  0  -0.599355  0  3.222699  0  0  -0.397915  -0.560599  0  3.224926  0
N  N57  1  0.41004072  0.62027314  0.77219478  1  0  -0.629865  0  2.913998  0  0  -0.576342  0  3.224005  0  0  -0.59935  0  3.222736  0  0  -0.397898  -0.560598  0  3.224969  0
N  N58  1  0.91004036  0.87972682  0.27219630  1  0  -0.629842  0  2.913974  0  0  -0.576321  0  3.223979  0  0  -0.599328  0  3.222705  0  0  -0.397879  -0.560578  0  3.224939  0
N  N59  1  0.58996281  0.37972687  0.22780231  1  0  -0.629817  0  2.914063  0  0  -0.576288  0  3.224088  0  0  -0.599299  0  3.222807  0  0  -0.397797  -0.560547  0  3.225044  0
N  N60  1  0.76930545  0.19243495  0.84740661  1  0  -0.318336  0  3.392564  0  0  -0.234862  0  3.672125  0  0  -0.250564  0  3.687715  0  0  -0.337542  -0.223954  0  3.661426  0
N  N61  1  0.73069399  0.69243503  0.65259369  1  0  -0.318443  0  3.392836  0  0  -0.23501  0  3.672451  0  0  -0.250719  0  3.688048  0  0  -0.337579  -0.224102  0  3.66176  0
N  N62  1  0.23069353  0.80756506  0.15259296  1  0  -0.318339  0  3.39265  0  0  -0.234857  0  3.672217  0  0  -0.250565  0  3.687814  0  0  -0.337514  -0.223951  0  3.661523  0
N  N63  1  0.26930612  0.30756497  0.34740603  1  0  -0.318516  0  3.392698  0  0  -0.235079  0  3.672318  0  0  -0.250793  0  3.687922  0  0  -0.337608  -0.224172  0  3.661633  0
O  O64  1  0.54909814  0.41724942  0.59685105  1  0  -0.700536  0  2.223041  0  0  -0.613841  0  2.519954  0  0  -0.640145  0  2.506224  0  0  -0.360593  -0.594552  0  2.529085  0
O  O65  1  0.95089874  0.91725045  0.90314699  1  0  -0.700458  0  2.223037  0  0  -0.613754  0  2.519937  0  0  -0.640066  0  2.506217  0  0  -0.360547  -0.594463  0  2.529047  0
O  O66  1  0.45090085  0.58274851  0.40314646  1  0  -0.700476  0  2.22304  0  0  -0.613779  0  2.519938  0  0  -0.64007  0  2.506172  0  0  -0.360562  -0.594493  0  2.529052  0
O  O67  1  0.04909910  0.08274956  0.09685241  1  0  -0.700436  0  2.223045  0  0  -0.613755  0  2.519931  0  0  -0.64006  0  2.506191  0  0  -0.36056  -0.594465  0  2.529045  0
