# generated using pymatgen
data_K3H3CN6O7
_symmetry_space_group_name_H-M   'P 1'
_cell_length_a   7.81357589
_cell_length_b   8.98949408
_cell_length_c   9.12220693
_cell_angle_alpha   66.73307019
_cell_angle_beta   92.27365024
_cell_angle_gamma   69.95785070
_symmetry_Int_Tables_number   1
_chemical_formula_structural   K3H3CN6O7
_chemical_formula_sum   'K6 H6 C2 N12 O14'
_cell_volume   541.49430028
_cell_formula_units_Z   2
loop_
 _symmetry_equiv_pos_site_id
 _symmetry_equiv_pos_as_xyz
  1  'x, y, z'
loop_
 _atom_site_type_symbol
 _atom_site_label
 _atom_site_symmetry_multiplicity
 _atom_site_fract_x
 _atom_site_fract_y
 _atom_site_fract_z
 _atom_site_occupancy
 _atom_site_hle17_bader_spin_density
 _atom_site_hle17_ddec_charge
 _atom_site_hle17_ddec_spin_density
 _atom_site_hle17_ddec_sum_bond_order
 _atom_site_hle17_magmom
 _atom_site_hse06_10hf_bader_spin_density
 _atom_site_hse06_10hf_ddec_charge
 _atom_site_hse06_10hf_ddec_spin_density
 _atom_site_hse06_10hf_ddec_sum_bond_order
 _atom_site_hse06_10hf_magmom
 _atom_site_hse06_bader_spin_density
 _atom_site_hse06_ddec_charge
 _atom_site_hse06_ddec_spin_density
 _atom_site_hse06_ddec_sum_bond_order
 _atom_site_hse06_magmom
 _atom_site_pbe_bader_spin_density
 _atom_site_pbe_cm5_charge
 _atom_site_pbe_ddec_charge
 _atom_site_pbe_ddec_spin_density
 _atom_site_pbe_ddec_sum_bond_order
 _atom_site_pbe_magmom
K  K0  1  0.28493207  0.37965262  0.04204178  1  0  0.891748  0  0.534583  0  0  0.822996  0  0.74971  0  0  0.841203  0  0.724379  0  0  0.888989  0.80962  0  0.767567  0
K  K1  1  0.71506147  0.62035196  0.95795783  1  0  0.891746  0  0.534576  0  0  0.822981  0  0.749728  0  0  0.8412  0  0.724367  0  0  0.888978  0.809606  0  0.767586  0
K  K2  1  0.07083484  0.26803357  0.72640913  1  0  0.89248  0  0.501363  0  0  0.820302  0  0.712987  0  0  0.837453  0  0.687483  0  0  0.841357  0.807854  0  0.730859  0
K  K3  1  0.92917707  0.73194960  0.27359848  1  0  0.892483  0  0.501377  0  0  0.820295  0  0.713006  0  0  0.83748  0  0.687446  0  0  0.841349  0.807839  0  0.730877  0
K  K4  1  0.45906037  0.79274456  0.46027938  1  0  0.915757  0  0.467124  0  0  0.851039  0  0.665609  0  0  0.867077  0  0.641366  0  0  0.849465  0.839298  0  0.682708  0
K  K5  1  0.54093726  0.20726649  0.53972195  1  0  0.915738  0  0.467134  0  0  0.851047  0  0.665576  0  0  0.867087  0  0.641331  0  0  0.849449  0.839284  0  0.682739  0
H  H6  1  0.01074126  0.00094248  0.36442651  1  0  0.074783  0  0.994958  0  0  0.066688  0  1.089307  0  0  0.069867  0  1.085865  0  0  0.154735  0.064207  0  1.092042  0
H  H7  1  0.98925673  0.99905662  0.63556995  1  0  0.074818  0  0.994931  0  0  0.066703  0  1.089294  0  0  0.069883  0  1.085847  0  0  0.154744  0.064221  0  1.09203  0
H  H8  1  0.71979324  0.47280498  0.36981093  1  0  0.402365  0  0.918912  0  0  0.369276  0  0.988073  0  0  0.380509  0  0.971672  0  0  0.289088  0.361465  0  0.99948  0
H  H9  1  0.28020164  0.52719548  0.63018384  1  0  0.402351  0  0.918943  0  0  0.369259  0  0.988109  0  0  0.380492  0  0.971706  0  0  0.289086  0.36145  0  0.999513  0
H  H10  1  0.54052594  0.58328387  0.23444285  1  0  0.418336  0  0.850137  0  0  0.400274  0  0.903977  0  0  0.40945  0  0.890329  0  0  0.3208  0.393703  0  0.913799  0
H  H11  1  0.45946754  0.41672065  0.76555459  1  0  0.418368  0  0.850125  0  0  0.400296  0  0.903957  0  0  0.409475  0  0.890304  0  0  0.320785  0.393724  0  0.91378  0
C  C12  1  0.94602305  0.14051993  0.27602944  1  0  0.103402  0  3.663815  0  0  0.037231  0  3.941036  0  0  0.045208  0  3.951881  0  0  0.217728  0.031727  0  3.934479  0
C  C13  1  0.05397291  0.85947799  0.72396969  1  0  0.103374  0  3.663749  0  0  0.037239  0  3.94094  0  0  0.04522  0  3.951779  0  0  0.217739  0.031733  0  3.934392  0
N  N14  1  0.74548311  0.18492894  0.24319115  1  0  0.235273  0  3.70277  0  0  0.274152  0  3.997669  0  0  0.275959  0  4.013213  0  0  -0.08328  0.272501  0  3.987116  0
N  N15  1  0.25451406  0.81506886  0.75680475  1  0  0.235262  0  3.702724  0  0  0.274144  0  3.99763  0  0  0.275948  0  4.013175  0  0  -0.08327  0.272499  0  3.98707  0
N  N16  1  0.70357767  0.04557435  0.31198107  1  0  -0.054781  0  3.110493  0  0  -0.05541  0  3.427309  0  0  -0.039948  0  3.428602  0  0  -0.213071  -0.06568  0  3.427254  0
N  N17  1  0.29641914  0.95442490  0.68801970  1  0  -0.054827  0  3.110559  0  0  -0.055459  0  3.427372  0  0  -0.039988  0  3.428657  0  0  -0.213132  -0.065738  0  3.427333  0
N  N18  1  0.97695727  0.25034814  0.35202381  1  0  0.217722  0  3.619709  0  0  0.251254  0  3.924002  0  0  0.251095  0  3.937318  0  0  -0.053419  0.250512  0  3.915278  0
N  N19  1  0.02303866  0.74964975  0.64797423  1  0  0.217711  0  3.619712  0  0  0.251233  0  3.924019  0  0  0.251074  0  3.937337  0  0  -0.053419  0.250489  0  3.915299  0
N  N20  1  0.11459868  0.30072437  0.31911157  1  0  -0.00628  0  3.133735  0  0  -0.014911  0  3.460406  0  0  0.001929  0  3.461574  0  0  -0.165332  -0.025457  0  3.459426  0
N  N21  1  0.88539858  0.69927351  0.68088759  1  0  -0.006231  0  3.133683  0  0  -0.014866  0  3.460359  0  0  0.001972  0  3.461526  0  0  -0.165321  -0.025419  0  3.459389  0
N  N22  1  0.02857047  0.15506574  0.13443428  1  0  0.198939  0  3.713524  0  0  0.2372  0  4.016776  0  0  0.23476  0  4.035574  0  0  -0.096773  0.238168  0  4.004079  0
N  N23  1  0.97142738  0.84493731  0.86556272  1  0  0.198837  0  3.713519  0  0  0.2371  0  4.01678  0  0  0.234659  0  4.035577  0  0  -0.096825  0.238066  0  4.004094  0
N  N24  1  0.16083938  0.00167758  0.15599217  1  0  -0.058624  0  3.107959  0  0  -0.061062  0  3.433752  0  0  -0.044711  0  3.434595  0  0  -0.159962  -0.07135  0  3.433142  0
N  N25  1  0.83917568  0.99833164  0.84401226  1  0  -0.058426  0  3.107672  0  0  -0.06087  0  3.433458  0  0  -0.044516  0  3.434299  0  0  -0.159788  -0.071143  0  3.432821  0
O  O26  1  0.62714956  0.34638758  0.16129645  1  0  -0.587401  0  1.812298  0  0  -0.559792  0  2.05369  0  0  -0.580197  0  2.050551  0  0  -0.363333  -0.545517  0  2.055688  0
O  O27  1  0.37284864  0.65360761  0.83870164  1  0  -0.587451  0  1.812263  0  0  -0.559835  0  2.053643  0  0  -0.580247  0  2.050512  0  0  -0.363377  -0.545558  0  2.055636  0
O  O28  1  0.52801353  0.08070384  0.29114878  1  0  -0.5471  0  1.988952  0  0  -0.514093  0  2.259463  0  0  -0.533258  0  2.255191  0  0  -0.390564  -0.50039  0  2.261775  0
O  O29  1  0.47198286  0.91929681  0.70885469  1  0  -0.547021  0  1.988926  0  0  -0.514023  0  2.259456  0  0  -0.533177  0  2.255149  0  0  -0.390504  -0.500322  0  2.261778  0
O  O30  1  0.87939111  0.26672405  0.46386623  1  0  -0.604558  0  1.881375  0  0  -0.566197  0  2.129046  0  0  -0.588075  0  2.125308  0  0  -0.321808  -0.550841  0  2.131554  0
O  O31  1  0.12060535  0.73327256  0.53613345  1  0  -0.60457  0  1.881452  0  0  -0.566155  0  2.129052  0  0  -0.588037  0  2.125315  0  0  -0.32181  -0.550798  0  2.131553  0
O  O32  1  0.15199583  0.37576568  0.40294550  1  0  -0.528323  0  1.92337  0  0  -0.494935  0  2.189493  0  0  -0.509891  0  2.180016  0  0  -0.348771  -0.484558  0  2.19571  0
O  O33  1  0.84800246  0.62422960  0.59705584  1  0  -0.528346  0  1.923336  0  0  -0.494966  0  2.189467  0  0  -0.509919  0  2.17999  0  0  -0.348762  -0.484586  0  2.19568  0
O  O34  1  0.97406314  0.30250025  0.00168430  1  0  -0.638908  0  1.825403  0  0  -0.61263  0  2.078814  0  0  -0.636224  0  2.078514  0  0  -0.423163  -0.596059  0  2.078745  0
O  O35  1  0.02593282  0.69749767  0.99831482  1  0  -0.638919  0  1.825378  0  0  -0.612619  0  2.078739  0  0  -0.636218  0  2.078443  0  0  -0.42316  -0.596042  0  2.078672  0
O  O36  1  0.23578042  0.00754554  0.03427091  1  0  -0.427122  0  1.898694  0  0  -0.404881  0  2.146039  0  0  -0.416635  0  2.138637  0  0  -0.254057  -0.396078  0  2.150395  0
O  O37  1  0.76425170  0.99246332  0.96574148  1  0  -0.427192  0  1.89839  0  0  -0.404947  0  2.145727  0  0  -0.416703  0  2.138322  0  0  -0.254174  -0.396149  0  2.150086  0
O  O38  1  0.62428258  0.59582407  0.30662944  1  0  -0.897703  0  1.774991  0  0  -0.846524  0  1.930311  0  0  -0.865623  0  1.899796  0  0  -0.688608  -0.833134  0  1.951632  0
O  O39  1  0.37571418  0.40417513  0.69336916  1  0  -0.897714  0  1.775005  0  0  -0.846537  0  1.930297  0  0  -0.865633  0  1.899782  0  0  -0.688606  -0.833147  0  1.951621  0
