# generated using pymatgen
data_ZnH11C15I2N3O
_symmetry_space_group_name_H-M   'P 1'
_cell_length_a   7.20062186
_cell_length_b   13.21895388
_cell_length_c   18.32853495
_cell_angle_alpha   89.99986184
_cell_angle_beta   89.99975910
_cell_angle_gamma   91.32216502
_symmetry_Int_Tables_number   1
_chemical_formula_structural   ZnH11C15I2N3O
_chemical_formula_sum   'Zn4 H44 C60 I8 N12 O4'
_cell_volume   1744.13140113
_cell_formula_units_Z   4
loop_
 _symmetry_equiv_pos_site_id
 _symmetry_equiv_pos_as_xyz
  1  'x, y, z'
loop_
 _atom_site_type_symbol
 _atom_site_label
 _atom_site_symmetry_multiplicity
 _atom_site_fract_x
 _atom_site_fract_y
 _atom_site_fract_z
 _atom_site_occupancy
 _atom_site_hle17_bader_spin_density
 _atom_site_hle17_ddec_charge
 _atom_site_hle17_ddec_spin_density
 _atom_site_hle17_ddec_sum_bond_order
 _atom_site_hle17_magmom
 _atom_site_hse06_10hf_bader_spin_density
 _atom_site_hse06_10hf_ddec_charge
 _atom_site_hse06_10hf_ddec_spin_density
 _atom_site_hse06_10hf_ddec_sum_bond_order
 _atom_site_hse06_10hf_magmom
 _atom_site_hse06_bader_spin_density
 _atom_site_hse06_ddec_charge
 _atom_site_hse06_ddec_spin_density
 _atom_site_hse06_ddec_sum_bond_order
 _atom_site_hse06_magmom
 _atom_site_pbe_bader_spin_density
 _atom_site_pbe_cm5_charge
 _atom_site_pbe_ddec_charge
 _atom_site_pbe_ddec_spin_density
 _atom_site_pbe_ddec_sum_bond_order
 _atom_site_pbe_magmom
Zn  Zn0  1  0.73103643  0.12796021  0.31494262  1  0  0.658119  0  2.25958  0  0  0.498145  0  2.722189  0  0  0.540045  0  2.682354  0  0  0.456157  0.46969  0  2.748859  0
Zn  Zn1  1  0.76896739  0.37204246  0.81494470  1  0  0.658154  0  2.259591  0  0  0.498207  0  2.722195  0  0  0.540109  0  2.68236  0  0  0.456176  0.469758  0  2.748873  0
Zn  Zn2  1  0.26896453  0.87204002  0.68505649  1  0  0.658148  0  2.259549  0  0  0.498202  0  2.722169  0  0  0.540112  0  2.68234  0  0  0.456175  0.469752  0  2.748843  0
Zn  Zn3  1  0.23103921  0.62796006  0.18505551  1  0  0.658149  0  2.259546  0  0  0.498193  0  2.722169  0  0  0.540097  0  2.682332  0  0  0.456153  0.469735  0  2.74882  0
H  H4  1  0.89666064  0.57814234  0.86416656  1  0  0.074812  0  0.941147  0  0  0.082543  0  1.009251  0  0  0.085171  0  1.006532  0  0  0.1082  0.080523  0  1.011414  0
H  H5  1  0.60334092  0.92185960  0.36416800  1  0  0.074777  0  0.941133  0  0  0.082544  0  1.009208  0  0  0.085172  0  1.006488  0  0  0.108201  0.080527  0  1.011369  0
H  H6  1  0.10334318  0.42186017  0.13583637  1  0  0.074784  0  0.941189  0  0  0.082543  0  1.00927  0  0  0.085171  0  1.00655  0  0  0.108199  0.080525  0  1.011429  0
H  H7  1  0.39666006  0.07814138  0.63583275  1  0  0.074768  0  0.941132  0  0  0.082531  0  1.009213  0  0  0.085158  0  1.006493  0  0  0.108208  0.08051  0  1.011375  0
H  H8  1  0.75345664  0.90608830  0.08856158  1  0  0.114133  0  0.951876  0  0  0.123395  0  1.014207  0  0  0.127088  0  1.012252  0  0  0.105399  0.120687  0  1.015857  0
H  H9  1  0.74654222  0.59391079  0.58856309  1  0  0.114111  0  0.951875  0  0  0.123331  0  1.014254  0  0  0.127022  0  1.012299  0  0  0.105377  0.120622  0  1.015904  0
H  H10  1  0.24653868  0.09390964  0.91143699  1  0  0.114069  0  0.951875  0  0  0.123301  0  1.014244  0  0  0.126993  0  1.012291  0  0  0.105357  0.120593  0  1.015896  0
H  H11  1  0.25345869  0.40608793  0.41143603  1  0  0.114099  0  0.951889  0  0  0.123321  0  1.014264  0  0  0.127013  0  1.012311  0  0  0.105375  0.120613  0  1.015915  0
H  H12  1  0.87219298  0.00084546  0.19588236  1  0  0.081071  0  0.927442  0  0  0.090038  0  0.990769  0  0  0.092883  0  0.988042  0  0  0.114748  0.087942  0  0.992772  0
H  H13  1  0.62780371  0.49915532  0.69588336  1  0  0.081078  0  0.927497  0  0  0.090053  0  0.990808  0  0  0.092898  0  0.988078  0  0  0.114769  0.087954  0  0.992812  0
H  H14  1  0.12780109  0.99915626  0.80411620  1  0  0.081135  0  0.927431  0  0  0.090111  0  0.990735  0  0  0.092958  0  0.988005  0  0  0.114797  0.088011  0  0.992739  0
H  H15  1  0.37219434  0.50084112  0.30411357  1  0  0.081092  0  0.927481  0  0  0.090061  0  0.990803  0  0  0.092906  0  0.988077  0  0  0.114782  0.087961  0  0.992806  0
H  H16  1  0.61735699  0.78960223  0.03382365  1  0  0.114822  0  0.959262  0  0  0.122595  0  1.028267  0  0  0.126754  0  1.024327  0  0  0.101875  0.119558  0  1.031159  0
H  H17  1  0.88264393  0.71039933  0.53382254  1  0  0.114833  0  0.959234  0  0  0.122617  0  1.028224  0  0  0.126774  0  1.024286  0  0  0.101891  0.11958  0  1.031116  0
H  H18  1  0.38264253  0.21039648  0.96617874  1  0  0.114814  0  0.959266  0  0  0.122597  0  1.028264  0  0  0.126759  0  1.024326  0  0  0.101894  0.119561  0  1.031157  0
H  H19  1  0.11735284  0.28960014  0.46617548  1  0  0.114837  0  0.959203  0  0  0.122616  0  1.028205  0  0  0.126773  0  1.024261  0  0  0.101885  0.119581  0  1.031098  0
H  H20  1  0.14410522  0.74100259  0.89045720  1  0  0.107334  0  0.972844  0  0  0.113635  0  1.044164  0  0  0.117975  0  1.039229  0  0  0.112374  0.110469  0  1.047751  0
H  H21  1  0.35589771  0.75899755  0.39045796  1  0  0.10737  0  0.9728  0  0  0.113636  0  1.044152  0  0  0.117978  0  1.039225  0  0  0.112376  0.110469  0  1.047739  0
H  H22  1  0.85589841  0.25899462  0.10954301  1  0  0.107304  0  0.972838  0  0  0.113596  0  1.04415  0  0  0.117935  0  1.039217  0  0  0.112361  0.110433  0  1.047737  0
H  H23  1  0.64410189  0.24100344  0.60954334  1  0  0.107351  0  0.972823  0  0  0.113626  0  1.044162  0  0  0.117965  0  1.039229  0  0  0.112358  0.110462  0  1.04775  0
H  H24  1  0.35042662  0.10972245  0.24428428  1  0  0.071285  0  0.98164  0  0  0.075124  0  1.055887  0  0  0.078238  0  1.052888  0  0  0.096682  0.072779  0  1.058134  0
H  H25  1  0.14956982  0.39027644  0.74428324  1  0  0.071279  0  0.981635  0  0  0.075116  0  1.055886  0  0  0.078231  0  1.052885  0  0  0.096674  0.072775  0  1.058134  0
H  H26  1  0.64956874  0.89027625  0.75571538  1  0  0.071329  0  0.981575  0  0  0.075177  0  1.055812  0  0  0.078293  0  1.05281  0  0  0.096706  0.072833  0  1.058061  0
H  H27  1  0.85043248  0.60972228  0.25571532  1  0  0.071316  0  0.981598  0  0  0.075167  0  1.055823  0  0  0.078282  0  1.052824  0  0  0.096705  0.07282  0  1.058069  0
H  H28  1  0.12995231  0.97862650  0.03650222  1  0  0.117523  0  0.995843  0  0  0.12259  0  1.063186  0  0  0.128169  0  1.057509  0  0  0.122973  0.118529  0  1.067351  0
H  H29  1  0.37004612  0.52137483  0.53650311  1  0  0.117479  0  0.995929  0  0  0.122542  0  1.063271  0  0  0.128121  0  1.057592  0  0  0.122952  0.118461  0  1.067455  0
H  H30  1  0.87004307  0.02137296  0.96349635  1  0  0.117467  0  0.995969  0  0  0.122533  0  1.063314  0  0  0.128113  0  1.057634  0  0  0.12294  0.118463  0  1.06749  0
H  H31  1  0.62995497  0.47862918  0.46349873  1  0  0.117452  0  0.995864  0  0  0.12255  0  1.063207  0  0  0.128126  0  1.057534  0  0  0.122965  0.118499  0  1.067355  0
H  H32  1  0.38698534  0.42497206  0.86755092  1  0  0.068827  0  1.000384  0  0  0.073066  0  1.075627  0  0  0.075986  0  1.07294  0  0  0.09166  0.070843  0  1.077658  0
H  H33  1  0.11301817  0.07502870  0.36754749  1  0  0.068946  0  1.000394  0  0  0.073177  0  1.075624  0  0  0.076094  0  1.072938  0  0  0.091707  0.070959  0  1.077657  0
H  H34  1  0.61301981  0.57502894  0.13244820  1  0  0.068893  0  1.00038  0  0  0.073134  0  1.075604  0  0  0.076051  0  1.072923  0  0  0.091697  0.07091  0  1.077632  0
H  H35  1  0.88698127  0.92496774  0.63244944  1  0  0.068934  0  1.000339  0  0  0.073174  0  1.075561  0  0  0.076096  0  1.072866  0  0  0.091698  0.070953  0  1.077593  0
H  H36  1  0.20913246  0.02281777  0.13805394  1  0  0.118911  0  0.96441  0  0  0.128481  0  1.024385  0  0  0.132352  0  1.022573  0  0  0.109282  0.125733  0  1.025786  0
H  H37  1  0.29086376  0.47718224  0.63805197  1  0  0.118874  0  0.964463  0  0  0.128459  0  1.024423  0  0  0.132327  0  1.022615  0  0  0.109268  0.12571  0  1.025821  0
H  H38  1  0.79086011  0.97718093  0.86194736  1  0  0.118848  0  0.964468  0  0  0.128456  0  1.0244  0  0  0.132327  0  1.022589  0  0  0.109271  0.12571  0  1.025799  0
H  H39  1  0.70913581  0.52281798  0.36194496  1  0  0.118869  0  0.964458  0  0  0.128456  0  1.024412  0  0  0.132326  0  1.022601  0  0  0.10928  0.125706  0  1.025814  0
H  H40  1  0.23234464  0.57105641  0.92527948  1  0  0.107139  0  0.955879  0  0  0.114285  0  1.022359  0  0  0.117829  0  1.020838  0  0  0.103273  0.111656  0  1.023713  0
H  H41  1  0.26765800  0.92894587  0.42527681  1  0  0.107145  0  0.955849  0  0  0.114282  0  1.022351  0  0  0.117827  0  1.020832  0  0  0.103272  0.11166  0  1.023699  0
H  H42  1  0.76765913  0.42894458  0.07471963  1  0  0.107158  0  0.955861  0  0  0.114295  0  1.022363  0  0  0.117842  0  1.020842  0  0  0.103277  0.111673  0  1.02371  0
H  H43  1  0.73234155  0.07105360  0.57472175  1  0  0.107155  0  0.955904  0  0  0.114301  0  1.022377  0  0  0.117847  0  1.020858  0  0  0.103278  0.111683  0  1.023723  0
H  H44  1  0.76278036  0.73336419  0.91903835  1  0  0.125229  0  0.96134  0  0  0.129269  0  1.030012  0  0  0.133942  0  1.027637  0  0  0.105014  0.125841  0  1.031988  0
H  H45  1  0.73722342  0.76663833  0.41903985  1  0  0.125213  0  0.961271  0  0  0.129252  0  1.029949  0  0  0.133924  0  1.027578  0  0  0.104986  0.125825  0  1.031919  0
H  H46  1  0.23722066  0.26663755  0.08096458  1  0  0.125209  0  0.961319  0  0  0.129238  0  1.03001  0  0  0.13391  0  1.027639  0  0  0.105002  0.125827  0  1.031965  0
H  H47  1  0.26277343  0.23336340  0.58096309  1  0  0.125144  0  0.961372  0  0  0.129178  0  1.030052  0  0  0.133845  0  1.027695  0  0  0.104967  0.125767  0  1.032005  0
C  C48  1  0.74987097  0.58038533  0.87862720  1  0  0.138818  0  3.690593  0  0  0.105095  0  3.941165  0  0  0.113097  0  3.958389  0  0  0.044948  0.099896  0  3.929602  0
C  C49  1  0.75013460  0.91961657  0.37862785  1  0  0.138883  0  3.690555  0  0  0.10512  0  3.94115  0  0  0.113122  0  3.958376  0  0  0.044961  0.099921  0  3.929583  0
C  C50  1  0.25013560  0.41961642  0.12137465  1  0  0.138925  0  3.690579  0  0  0.105185  0  3.941155  0  0  0.113186  0  3.95838  0  0  0.04499  0.099982  0  3.929593  0
C  C51  1  0.24986497  0.08038366  0.62137290  1  0  0.138947  0  3.690563  0  0  0.105191  0  3.941148  0  0  0.113194  0  3.958371  0  0  0.044982  0.099991  0  3.929579  0
C  C52  1  0.65764199  0.94995703  0.12109450  1  0  -0.147304  0  3.700307  0  0  -0.166077  0  3.949649  0  0  -0.173611  0  3.969809  0  0  -0.082318  -0.161369  0  3.936327  0
C  C53  1  0.84235526  0.55004574  0.62109592  1  0  -0.14724  0  3.700229  0  0  -0.165896  0  3.949562  0  0  -0.173428  0  3.969722  0  0  -0.082243  -0.161188  0  3.936236  0
C  C54  1  0.34235066  0.05004394  0.87890516  1  0  -0.147116  0  3.700157  0  0  -0.165803  0  3.949523  0  0  -0.173335  0  3.969683  0  0  -0.08224  -0.161095  0  3.936201  0
C  C55  1  0.15764573  0.44995525  0.37890428  1  0  -0.147177  0  3.700224  0  0  -0.16581  0  3.949557  0  0  -0.173343  0  3.969717  0  0  -0.082231  -0.161107  0  3.93624  0
C  C56  1  0.48435196  0.66537944  0.92609213  1  0  0.117114  0  3.745066  0  0  0.131176  0  3.965762  0  0  0.135511  0  3.988993  0  0  0.019964  0.128474  0  3.95001  0
C  C57  1  0.01565070  0.83462360  0.42609168  1  0  0.11712  0  3.744905  0  0  0.131186  0  3.965599  0  0  0.135521  0  3.988829  0  0  0.020008  0.128486  0  3.949849  0
C  C58  1  0.51565178  0.33462079  0.07390917  1  0  0.117148  0  3.74494  0  0  0.131197  0  3.965653  0  0  0.135531  0  3.988886  0  0  0.019984  0.12849  0  3.949912  0
C  C59  1  0.98434749  0.16537663  0.57390743  1  0  0.117044  0  3.744806  0  0  0.131085  0  3.965536  0  0  0.135421  0  3.988767  0  0  0.019997  0.128383  0  3.949793  0
C  C60  1  0.72548787  0.00218833  0.18129267  1  0  0.137159  0  3.691463  0  0  0.101103  0  3.947491  0  0  0.109226  0  3.96441  0  0  0.042275  0.095848  0  3.936051  0
C  C61  1  0.77450895  0.49781175  0.68129342  1  0  0.137287  0  3.691575  0  0  0.101255  0  3.9476  0  0  0.10938  0  3.964519  0  0  0.042342  0.096  0  3.936159  0
C  C62  1  0.27450615  0.99781189  0.81870645  1  0  0.137029  0  3.691402  0  0  0.101029  0  3.947444  0  0  0.109153  0  3.964359  0  0  0.042264  0.095776  0  3.936002  0
C  C63  1  0.22548913  0.50218545  0.31870406  1  0  0.137096  0  3.691735  0  0  0.101075  0  3.94774  0  0  0.109197  0  3.964661  0  0  0.042273  0.095818  0  3.936301  0
C  C64  1  0.46770444  0.95341556  0.10416149  1  0  0.111187  0  3.751109  0  0  0.124226  0  3.975314  0  0  0.128723  0  3.998317  0  0  0.016224  0.121457  0  3.959768  0
C  C65  1  0.03229329  0.54658629  0.60416180  1  0  0.111254  0  3.75099  0  0  0.124099  0  3.975403  0  0  0.128593  0  3.998409  0  0  0.01615  0.121333  0  3.959853  0
C  C66  1  0.53228958  0.04658465  0.89583926  1  0  0.111244  0  3.751028  0  0  0.124074  0  3.975463  0  0  0.128567  0  3.998474  0  0  0.016169  0.12131  0  3.959912  0
C  C67  1  0.96770768  0.45341394  0.39583786  1  0  0.111243  0  3.750996  0  0  0.124022  0  3.975475  0  0  0.128518  0  3.998478  0  0  0.016109  0.12125  0  3.959931  0
C  C68  1  0.48210337  0.81150420  0.01333874  1  0  -0.111357  0  3.645821  0  0  -0.151609  0  3.902965  0  0  -0.148607  0  3.917884  0  0  -0.075977  -0.152942  0  3.892746  0
C  C69  1  0.01789532  0.68849721  0.51333664  1  0  -0.111324  0  3.645782  0  0  -0.151598  0  3.902917  0  0  -0.148595  0  3.917835  0  0  -0.075966  -0.152932  0  3.892705  0
C  C70  1  0.51789762  0.18849678  0.98666255  1  0  -0.111315  0  3.64583  0  0  -0.151607  0  3.902979  0  0  -0.148611  0  3.917903  0  0  -0.075986  -0.152941  0  3.892765  0
C  C71  1  0.98210562  0.31150227  0.48666356  1  0  -0.111299  0  3.645607  0  0  -0.151575  0  3.902731  0  0  -0.148567  0  3.917643  0  0  -0.075963  -0.152912  0  3.892521  0
C  C72  1  0.21891454  0.77915040  0.93450045  1  0  -0.039621  0  3.570506  0  0  -0.090009  0  3.830829  0  0  -0.083647  0  3.84161  0  0  0.030894  -0.093792  0  3.823578  0
C  C73  1  0.28109072  0.72085034  0.43450031  1  0  -0.039691  0  3.570405  0  0  -0.090026  0  3.83072  0  0  -0.083674  0  3.84151  0  0  0.03083  -0.093808  0  3.823466  0
C  C74  1  0.78108773  0.22084756  0.06550085  1  0  -0.03965  0  3.570337  0  0  -0.089986  0  3.83061  0  0  -0.083623  0  3.84139  0  0  0.030889  -0.093775  0  3.82336  0
C  C75  1  0.71890893  0.27915215  0.56550044  1  0  -0.039731  0  3.570465  0  0  -0.090083  0  3.830771  0  0  -0.08372  0  3.841552  0  0  0.030831  -0.093872  0  3.823526  0
C  C76  1  0.39561277  0.75430906  0.95825727  1  0  0.033997  0  3.808174  0  0  0.053096  0  4.044152  0  0  0.049861  0  4.066074  0  0  0.00066  0.054819  0  4.029247  0
C  C77  1  0.10439087  0.74569236  0.45825738  1  0  0.033972  0  3.808237  0  0  0.053058  0  4.044231  0  0  0.049822  0  4.066155  0  0  0.000646  0.054778  0  4.029328  0
C  C78  1  0.60438675  0.24568966  0.04174403  1  0  0.03404  0  3.808145  0  0  0.053135  0  4.044126  0  0  0.049899  0  4.06605  0  0  0.000686  0.05486  0  4.029223  0
C  C79  1  0.89560595  0.25430861  0.54174173  1  0  0.034058  0  3.808194  0  0  0.053166  0  4.044173  0  0  0.049928  0  4.066098  0  0  0.000692  0.054888  0  4.029273  0
C  C80  1  0.38759751  0.89284775  0.04380054  1  0  0.032517  0  3.79935  0  0  0.049241  0  4.038284  0  0  0.045928  0  4.06048  0  0  -0.000418  0.050917  0  4.023317  0
C  C81  1  0.11240087  0.60715432  0.54380061  1  0  0.032554  0  3.799401  0  0  0.049369  0  4.038279  0  0  0.046056  0  4.060472  0  0  -0.000349  0.051036  0  4.023318  0
C  C82  1  0.61239510  0.10715171  0.95619967  1  0  0.032495  0  3.799412  0  0  0.049329  0  4.038294  0  0  0.046017  0  4.060485  0  0  -0.000386  0.051  0  4.023336  0
C  C83  1  0.88759742  0.39284893  0.45619905  1  0  0.032422  0  3.799225  0  0  0.04929  0  4.03814  0  0  0.045976  0  4.060334  0  0  -0.000388  0.050962  0  4.02318  0
C  C84  1  0.43440101  0.06347835  0.20817171  1  0  0.130586  0  3.698445  0  0  0.101329  0  3.941583  0  0  0.108548  0  3.959511  0  0  0.041647  0.096699  0  3.929529  0
C  C85  1  0.06559862  0.43652143  0.70817182  1  0  0.130683  0  3.698432  0  0  0.101449  0  3.941586  0  0  0.10867  0  3.959512  0  0  0.04167  0.096817  0  3.929531  0
C  C86  1  0.56559720  0.93652263  0.79182850  1  0  0.130584  0  3.698438  0  0  0.101344  0  3.941615  0  0  0.108565  0  3.959543  0  0  0.04164  0.096712  0  3.929558  0
C  C87  1  0.93440368  0.56347729  0.29182675  1  0  0.13053  0  3.698429  0  0  0.101286  0  3.941581  0  0  0.108505  0  3.959509  0  0  0.041598  0.096659  0  3.929508  0
C  C88  1  0.21099121  0.91478086  0.01795790  1  0  -0.046505  0  3.556313  0  0  -0.095569  0  3.816247  0  0  -0.089674  0  3.826308  0  0  0.031465  -0.098823  0  3.809351  0
C  C89  1  0.28901025  0.58522205  0.51795990  1  0  -0.046537  0  3.556632  0  0  -0.095595  0  3.816526  0  0  -0.089702  0  3.826589  0  0  0.031428  -0.098831  0  3.809638  0
C  C90  1  0.78900834  0.08521861  0.98204012  1  0  -0.046424  0  3.556472  0  0  -0.095491  0  3.816372  0  0  -0.089595  0  3.826433  0  0  0.031508  -0.098738  0  3.809483  0
C  C91  1  0.71099225  0.41478272  0.48204194  1  0  -0.046303  0  3.556142  0  0  -0.095463  0  3.816135  0  0  -0.089571  0  3.826204  0  0  0.031534  -0.098717  0  3.809225  0
C  C92  1  0.46496581  0.49471798  0.88002151  1  0  0.129406  0  3.7009  0  0  0.100903  0  3.940982  0  0  0.107885  0  3.959677  0  0  0.040761  0.096485  0  3.928324  0
C  C93  1  0.03503899  0.00528350  0.38001888  1  0  0.129344  0  3.700921  0  0  0.100854  0  3.940978  0  0  0.10784  0  3.959669  0  0  0.040733  0.096436  0  3.928334  0
C  C94  1  0.53504074  0.50528302  0.11997761  1  0  0.12939  0  3.700801  0  0  0.1009  0  3.940867  0  0  0.107885  0  3.959558  0  0  0.040703  0.09648  0  3.928209  0
C  C95  1  0.96496192  0.99471522  0.61997914  1  0  0.1293  0  3.700968  0  0  0.100798  0  3.941042  0  0  0.107781  0  3.95974  0  0  0.040688  0.096379  0  3.928403  0
C  C96  1  0.35656202  0.01388698  0.14854512  1  0  -0.143139  0  3.671362  0  0  -0.16011  0  3.909722  0  0  -0.167771  0  3.93004  0  0  -0.078092  -0.155327  0  3.89627  0
C  C97  1  0.14343411  0.48611376  0.64854447  1  0  -0.143187  0  3.671282  0  0  -0.160094  0  3.909654  0  0  -0.167753  0  3.929975  0  0  -0.078082  -0.155307  0  3.896199  0
C  C98  1  0.64342922  0.98611323  0.85145563  1  0  -0.143198  0  3.671411  0  0  -0.160099  0  3.90976  0  0  -0.16776  0  3.93008  0  0  -0.078087  -0.155313  0  3.896304  0
C  C99  1  0.85656546  0.51388647  0.35145355  1  0  -0.1432  0  3.671343  0  0  -0.160085  0  3.909723  0  0  -0.167745  0  3.930043  0  0  -0.07809  -0.155302  0  3.896266  0
C  C100  1  0.37926905  0.57703519  0.91128914  1  0  -0.151539  0  3.697261  0  0  -0.168061  0  3.937777  0  0  -0.176099  0  3.959429  0  0  -0.08004  -0.162937  0  3.923401  0
C  C101  1  0.12073371  0.92296638  0.41128728  1  0  -0.151621  0  3.697219  0  0  -0.168145  0  3.937738  0  0  -0.176185  0  3.959387  0  0  -0.080103  -0.163027  0  3.923368  0
C  C102  1  0.62073466  0.42296429  0.08871106  1  0  -0.151613  0  3.697216  0  0  -0.168135  0  3.937729  0  0  -0.176176  0  3.959379  0  0  -0.080054  -0.163022  0  3.923355  0
C  C103  1  0.87926440  0.07703157  0.58871129  1  0  -0.151556  0  3.697261  0  0  -0.168074  0  3.937785  0  0  -0.176115  0  3.959438  0  0  -0.080059  -0.162965  0  3.92342  0
C  C104  1  0.67474445  0.66615081  0.90962148  1  0  -0.149812  0  3.668887  0  0  -0.165025  0  3.909979  0  0  -0.172856  0  3.929743  0  0  -0.079874  -0.16005  0  3.896958  0
C  C105  1  0.82525665  0.83385173  0.40962216  1  0  -0.149789  0  3.668752  0  0  -0.165  0  3.909863  0  0  -0.172828  0  3.92962  0  0  -0.07985  -0.16002  0  3.896837  0
C  C106  1  0.32525654  0.33385017  0.09038146  1  0  -0.149753  0  3.66872  0  0  -0.164969  0  3.909849  0  0  -0.172795  0  3.929602  0  0  -0.079843  -0.160007  0  3.896819  0
C  C107  1  0.17474015  0.16614849  0.59037968  1  0  -0.14971  0  3.668798  0  0  -0.164909  0  3.90991  0  0  -0.172739  0  3.929665  0  0  -0.079831  -0.159946  0  3.896866  0
I  I108  1  0.98884296  0.24235071  0.26171110  1  0  -0.474525  0  1.102973  0  0  -0.426837  0  1.424491  0  0  -0.445218  0  1.403048  0  0  -0.232841  -0.413364  0  1.439078  0
I  I109  1  0.51116954  0.25764535  0.76171380  1  0  -0.47454  0  1.102952  0  0  -0.426852  0  1.424461  0  0  -0.445232  0  1.403017  0  0  -0.232853  -0.413379  0  1.43905  0
I  I110  1  0.01116068  0.75764650  0.73828965  1  0  -0.474556  0  1.10295  0  0  -0.426865  0  1.424459  0  0  -0.44525  0  1.403016  0  0  -0.232858  -0.41339  0  1.439046  0
I  I111  1  0.48883701  0.74235565  0.23828804  1  0  -0.474519  0  1.102941  0  0  -0.426835  0  1.424471  0  0  -0.445218  0  1.403029  0  0  -0.232842  -0.413368  0  1.43905  0
I  I112  1  0.47223634  0.18109009  0.40148108  1  0  -0.482274  0  1.091483  0  0  -0.434423  0  1.412955  0  0  -0.452297  0  1.390694  0  0  -0.240292  -0.421455  0  1.428102  0
I  I113  1  0.02776677  0.31890980  0.90148255  1  0  -0.482253  0  1.091429  0  0  -0.434396  0  1.412888  0  0  -0.452273  0  1.39063  0  0  -0.240288  -0.421428  0  1.428038  0
I  I114  1  0.52776457  0.81890863  0.59851858  1  0  -0.482276  0  1.09149  0  0  -0.434418  0  1.412959  0  0  -0.452299  0  1.390699  0  0  -0.240289  -0.421452  0  1.428108  0
I  I115  1  0.97223555  0.68108968  0.09851656  1  0  -0.482276  0  1.091449  0  0  -0.43441  0  1.412894  0  0  -0.452285  0  1.390634  0  0  -0.240301  -0.421452  0  1.428037  0
N  N116  1  0.64727688  0.49633709  0.86361142  1  0  -0.301935  0  3.333075  0  0  -0.213238  0  3.591498  0  0  -0.233225  0  3.609978  0  0  -0.333071  -0.199895  0  3.578787  0
N  N117  1  0.85272358  0.00366389  0.36361046  1  0  -0.301981  0  3.332994  0  0  -0.213281  0  3.59144  0  0  -0.233268  0  3.609919  0  0  -0.333093  -0.199937  0  3.578732  0
N  N118  1  0.35272830  0.50366467  0.13638933  1  0  -0.30211  0  3.333061  0  0  -0.213431  0  3.591535  0  0  -0.233418  0  3.61001  0  0  -0.333153  -0.200086  0  3.578814  0
N  N119  1  0.14727595  0.99633482  0.63638811  1  0  -0.302011  0  3.333058  0  0  -0.213314  0  3.591511  0  0  -0.233303  0  3.609993  0  0  -0.333103  -0.199973  0  3.578803  0
N  N120  1  0.61565339  0.05690974  0.22497050  1  0  -0.307253  0  3.354267  0  0  -0.218875  0  3.617339  0  0  -0.239266  0  3.636335  0  0  -0.33894  -0.205263  0  3.604313  0
N  N121  1  0.88434429  0.44308868  0.72497117  1  0  -0.307493  0  3.35444  0  0  -0.219224  0  3.617662  0  0  -0.239617  0  3.636658  0  0  -0.339057  -0.205612  0  3.604644  0
N  N122  1  0.38434332  0.94308821  0.77502915  1  0  -0.307249  0  3.354241  0  0  -0.21901  0  3.617458  0  0  -0.239408  0  3.636469  0  0  -0.338981  -0.205397  0  3.604431  0
N  N123  1  0.11565795  0.55690853  0.27502849  1  0  -0.307218  0  3.354385  0  0  -0.218934  0  3.617542  0  0  -0.239331  0  3.636553  0  0  -0.338947  -0.205318  0  3.604502  0
N  N124  1  0.12805198  0.85832208  0.96443411  1  0  0.286821  0  3.801311  0  0  0.34177  0  4.065004  0  0  0.343103  0  4.087862  0  0  -0.116666  0.340166  0  4.049515  0
N  N125  1  0.37195155  0.64167780  0.46443723  1  0  0.28693  0  3.80121  0  0  0.341839  0  4.064911  0  0  0.343175  0  4.087768  0  0  -0.116556  0.340236  0  4.049415  0
N  N126  1  0.87194613  0.14167587  0.03556337  1  0  0.286855  0  3.801128  0  0  0.341746  0  4.064872  0  0  0.343079  0  4.087729  0  0  -0.116688  0.340144  0  4.049381  0
N  N127  1  0.62804821  0.35832772  0.53556516  1  0  0.286854  0  3.801213  0  0  0.341796  0  4.06494  0  0  0.34313  0  4.087797  0  0  -0.116644  0.340192  0  4.049452  0
O  O128  1  0.96100588  0.87855925  0.94248074  1  0  -0.521546  0  1.713134  0  0  -0.491313  0  1.937259  0  0  -0.516081  0  1.939888  0  0  -0.237949  -0.473827  0  1.935173  0
O  O129  1  0.53899903  0.62144319  0.44248500  1  0  -0.521599  0  1.713076  0  0  -0.491323  0  1.937186  0  0  -0.51608  0  1.939796  0  0  -0.237966  -0.473845  0  1.935107  0
O  O130  1  0.03899642  0.12143947  0.05751400  1  0  -0.521663  0  1.713106  0  0  -0.491337  0  1.937167  0  0  -0.516109  0  1.939804  0  0  -0.237949  -0.473855  0  1.935084  0
O  O131  1  0.46100767  0.37856235  0.55752339  1  0  -0.521634  0  1.713305  0  0  -0.491339  0  1.937375  0  0  -0.516106  0  1.940006  0  0  -0.237963  -0.473854  0  1.93529  0
