# generated using pymatgen
data_KH10C5S2NO2
_symmetry_space_group_name_H-M   'P 1'
_cell_length_a   6.61347750
_cell_length_b   8.05512371
_cell_length_c   17.17381100
_cell_angle_alpha   90.00012105
_cell_angle_beta   89.99977273
_cell_angle_gamma   108.83366532
_symmetry_Int_Tables_number   1
_chemical_formula_structural   KH10C5S2NO2
_chemical_formula_sum   'K4 H40 C20 S8 N4 O8'
_cell_volume   865.90634130
_cell_formula_units_Z   4
loop_
 _symmetry_equiv_pos_site_id
 _symmetry_equiv_pos_as_xyz
  1  'x, y, z'
loop_
 _atom_site_type_symbol
 _atom_site_label
 _atom_site_symmetry_multiplicity
 _atom_site_fract_x
 _atom_site_fract_y
 _atom_site_fract_z
 _atom_site_occupancy
 _atom_site_hle17_bader_spin_density
 _atom_site_hle17_ddec_charge
 _atom_site_hle17_ddec_spin_density
 _atom_site_hle17_ddec_sum_bond_order
 _atom_site_hle17_magmom
 _atom_site_hse06_10hf_bader_spin_density
 _atom_site_hse06_10hf_ddec_charge
 _atom_site_hse06_10hf_ddec_spin_density
 _atom_site_hse06_10hf_ddec_sum_bond_order
 _atom_site_hse06_10hf_magmom
 _atom_site_hse06_bader_spin_density
 _atom_site_hse06_ddec_charge
 _atom_site_hse06_ddec_spin_density
 _atom_site_hse06_ddec_sum_bond_order
 _atom_site_hse06_magmom
 _atom_site_pbe_bader_spin_density
 _atom_site_pbe_cm5_charge
 _atom_site_pbe_ddec_charge
 _atom_site_pbe_ddec_spin_density
 _atom_site_pbe_ddec_sum_bond_order
 _atom_site_pbe_magmom
K  K0  1  0.30423004  0.51914594  0.75435560  1  0  0.875848  0  0.483693  0  0  0.80399  0  0.687705  0  0  0.817536  0  0.669232  0  0  0.594792  0.793804  0  0.701038  0
K  K1  1  0.69576124  0.98085462  0.25435294  1  0  0.875843  0  0.483718  0  0  0.803977  0  0.687739  0  0  0.817528  0  0.669265  0  0  0.594797  0.793785  0  0.701069  0
K  K2  1  0.69575942  0.48085441  0.24564466  1  0  0.87583  0  0.483707  0  0  0.803982  0  0.687684  0  0  0.817534  0  0.66921  0  0  0.594784  0.793795  0  0.701016  0
K  K3  1  0.30423486  0.01915491  0.74564324  1  0  0.875819  0  0.483719  0  0  0.80396  0  0.687722  0  0  0.817509  0  0.669248  0  0  0.594758  0.793772  0  0.701053  0
H  H4  1  0.72439931  0.93647899  0.69714978  1  0  0.380519  0  0.940994  0  0  0.352286  0  1.004335  0  0  0.362258  0  0.989753  0  0  0.257575  0.345193  0  1.014713  0
H  H5  1  0.27560300  0.56351357  0.19715026  1  0  0.380462  0  0.941081  0  0  0.352207  0  1.00446  0  0  0.362181  0  0.989875  0  0  0.25754  0.345111  0  1.014842  0
H  H6  1  0.27560004  0.06350428  0.30285164  1  0  0.380439  0  0.941154  0  0  0.352136  0  1.004614  0  0  0.362111  0  0.990027  0  0  0.257514  0.345044  0  1.014987  0
H  H7  1  0.72439457  0.43649202  0.80284826  1  0  0.380425  0  0.941153  0  0  0.352145  0  1.004573  0  0  0.362119  0  0.989988  0  0  0.257497  0.345049  0  1.014955  0
H  H8  1  0.12388459  0.11932542  0.41536089  1  0  0.068325  0  0.958877  0  0  0.082747  0  1.028455  0  0  0.083145  0  1.028504  0  0  0.100174  0.082334  0  1.028553  0
H  H9  1  0.87611003  0.38067766  0.91536070  1  0  0.068334  0  0.958833  0  0  0.082754  0  1.028388  0  0  0.083151  0  1.028437  0  0  0.100144  0.082339  0  1.028489  0
H  H10  1  0.87611700  0.88067885  0.58463879  1  0  0.068294  0  0.958853  0  0  0.082713  0  1.028432  0  0  0.083109  0  1.028482  0  0  0.100151  0.082302  0  1.028528  0
H  H11  1  0.12388746  0.61932005  0.08463781  1  0  0.068311  0  0.958848  0  0  0.082721  0  1.028429  0  0  0.083118  0  1.028479  0  0  0.100153  0.082309  0  1.028529  0
H  H12  1  0.30408877  0.31664944  0.45617765  1  0  0.085069  0  0.986229  0  0  0.097477  0  1.056699  0  0  0.098861  0  1.056246  0  0  0.10181  0.096412  0  1.057103  0
H  H13  1  0.69591052  0.18335502  0.95617812  1  0  0.085046  0  0.98632  0  0  0.097441  0  1.056769  0  0  0.098823  0  1.056318  0  0  0.101791  0.096377  0  1.057171  0
H  H14  1  0.69591434  0.68335483  0.54382377  1  0  0.085028  0  0.986366  0  0  0.097427  0  1.056819  0  0  0.098809  0  1.056367  0  0  0.101807  0.096365  0  1.057219  0
H  H15  1  0.30408554  0.81665056  0.04382563  1  0  0.085042  0  0.986356  0  0  0.097455  0  1.056781  0  0  0.098837  0  1.05633  0  0  0.101809  0.096395  0  1.057176  0
H  H16  1  0.70135747  0.82952459  0.77420253  1  0  0.389376  0  0.909917  0  0  0.363245  0  0.979623  0  0  0.372493  0  0.96597  0  0  0.271536  0.356611  0  0.989436  0
H  H17  1  0.29864969  0.67047073  0.27420250  1  0  0.389401  0  0.909946  0  0  0.363275  0  0.979594  0  0  0.372523  0  0.965941  0  0  0.271583  0.356639  0  0.989412  0
H  H18  1  0.29865000  0.17046392  0.22579948  1  0  0.389411  0  0.909798  0  0  0.363275  0  0.979581  0  0  0.372524  0  0.965924  0  0  0.271571  0.356635  0  0.989404  0
H  H19  1  0.70135139  0.32953223  0.72579601  1  0  0.389552  0  0.909759  0  0  0.363399  0  0.979425  0  0  0.372648  0  0.96577  0  0  0.27163  0.356764  0  0.98924  0
H  H20  1  0.08893974  0.48994542  0.40412015  1  0  0.056815  0  0.948652  0  0  0.066388  0  1.020836  0  0  0.066878  0  1.020798  0  0  0.092727  0.065941  0  1.020959  0
H  H21  1  0.91105295  0.01005633  0.90411721  1  0  0.056768  0  0.948558  0  0  0.066404  0  1.020696  0  0  0.066895  0  1.020658  0  0  0.092727  0.065963  0  1.020814  0
H  H22  1  0.91105628  0.51005623  0.59588069  1  0  0.056828  0  0.948702  0  0  0.066404  0  1.020868  0  0  0.066895  0  1.02083  0  0  0.092742  0.065959  0  1.020993  0
H  H23  1  0.08893897  0.98993877  0.09588538  1  0  0.056833  0  0.948467  0  0  0.066415  0  1.020648  0  0  0.066905  0  1.020609  0  0  0.09273  0.065972  0  1.020768  0
H  H24  1  0.14677101  0.36226622  0.32725882  1  0  0.069631  0  0.948044  0  0  0.085868  0  1.010487  0  0  0.086523  0  1.009316  0  0  0.106742  0.085246  0  1.01156  0
H  H25  1  0.85322501  0.13774194  0.82725668  1  0  0.069562  0  0.947932  0  0  0.085854  0  1.010383  0  0  0.086509  0  1.009212  0  0  0.106724  0.085233  0  1.011455  0
H  H26  1  0.85322709  0.63774068  0.67274260  1  0  0.06966  0  0.94786  0  0  0.0859  0  1.010309  0  0  0.086555  0  1.009139  0  0  0.106729  0.085277  0  1.011382  0
H  H27  1  0.14676540  0.86225316  0.17274474  1  0  0.069653  0  0.947897  0  0  0.085866  0  1.010388  0  0  0.086521  0  1.009218  0  0  0.106719  0.085244  0  1.01146  0
H  H28  1  0.54717941  0.19926643  0.41902374  1  0  0.074467  0  0.931303  0  0  0.093012  0  0.988065  0  0  0.09293  0  0.988362  0  0  0.112931  0.092977  0  0.987972  0
H  H29  1  0.45281967  0.30073271  0.91902063  1  0  0.074504  0  0.931261  0  0  0.093047  0  0.988015  0  0  0.092967  0  0.988315  0  0  0.112934  0.09301  0  0.987927  0
H  H30  1  0.45282206  0.80072603  0.58097710  1  0  0.074501  0  0.93124  0  0  0.093042  0  0.988014  0  0  0.092958  0  0.988311  0  0  0.112927  0.093012  0  0.987922  0
H  H31  1  0.54717989  0.69927025  0.08097613  1  0  0.074463  0  0.931299  0  0  0.093013  0  0.988053  0  0  0.092932  0  0.988352  0  0  0.112938  0.092979  0  0.98796  0
H  H32  1  0.73268671  0.39420183  0.45785025  1  0  0.05626  0  0.954596  0  0  0.063306  0  1.032371  0  0  0.06398  0  1.031949  0  0  0.091754  0.062696  0  1.032835  0
H  H33  1  0.26730949  0.10579870  0.95784782  1  0  0.05631  0  0.954567  0  0  0.063329  0  1.032357  0  0  0.064006  0  1.031935  0  0  0.091763  0.062722  0  1.032814  0
H  H34  1  0.26730870  0.60579063  0.54215175  1  0  0.056331  0  0.95454  0  0  0.063368  0  1.032331  0  0  0.06404  0  1.031909  0  0  0.091763  0.062764  0  1.032789  0
H  H35  1  0.73269309  0.89420426  0.04215361  1  0  0.056309  0  0.95456  0  0  0.063318  0  1.032368  0  0  0.063994  0  1.031947  0  0  0.091757  0.06271  0  1.032826  0
H  H36  1  0.69195631  0.15235981  0.55074684  1  0  0.084141  0  0.982227  0  0  0.095714  0  1.05378  0  0  0.097173  0  1.052951  0  0  0.096877  0.094569  0  1.054482  0
H  H37  1  0.30804629  0.34764256  0.05074523  1  0  0.084086  0  0.982262  0  0  0.095664  0  1.053758  0  0  0.097115  0  1.052934  0  0  0.096848  0.094519  0  1.05446  0
H  H38  1  0.30804467  0.84763527  0.44925342  1  0  0.084129  0  0.982232  0  0  0.095701  0  1.053775  0  0  0.09714  0  1.052967  0  0  0.09687  0.09456  0  1.054469  0
H  H39  1  0.69195987  0.65236564  0.94925270  1  0  0.084097  0  0.982212  0  0  0.095673  0  1.053764  0  0  0.09711  0  1.052956  0  0  0.096845  0.094535  0  1.054461  0
H  H40  1  0.73879990  0.01546889  0.47529581  1  0  0.070192  0  0.961296  0  0  0.083991  0  1.031137  0  0  0.084363  0  1.031898  0  0  0.097603  0.08367  0  1.030701  0
H  H41  1  0.26120270  0.48453298  0.97529493  1  0  0.070254  0  0.961346  0  0  0.084009  0  1.031171  0  0  0.084382  0  1.03193  0  0  0.097628  0.083685  0  1.030741  0
H  H42  1  0.26120057  0.98452489  0.52470445  1  0  0.070203  0  0.961326  0  0  0.083988  0  1.031173  0  0  0.084363  0  1.031929  0  0  0.09762  0.083665  0  1.030742  0
H  H43  1  0.73880191  0.51547128  0.02470242  1  0  0.070238  0  0.961264  0  0  0.084016  0  1.031125  0  0  0.084386  0  1.031886  0  0  0.09761  0.083695  0  1.030695  0
C  C44  1  0.09774342  0.23889232  0.58401369  1  0  0.278801  0  3.802598  0  0  0.24971  0  4.109827  0  0  0.274297  0  4.11701  0  0  0.121973  0.233372  0  4.10402  0
C  C45  1  0.90225382  0.26110881  0.08401224  1  0  0.278682  0  3.802643  0  0  0.249612  0  4.1099  0  0  0.274198  0  4.117086  0  0  0.121975  0.233269  0  4.104098  0
C  C46  1  0.90224751  0.76110409  0.41598540  1  0  0.278624  0  3.802453  0  0  0.249468  0  4.109742  0  0  0.274053  0  4.116934  0  0  0.121938  0.233131  0  4.103933  0
C  C47  1  0.09775942  0.73890201  0.91598569  1  0  0.278719  0  3.80266  0  0  0.249586  0  4.109945  0  0  0.274173  0  4.117136  0  0  0.121956  0.233257  0  4.104125  0
C  C48  1  0.13706487  0.24821884  0.44074320  1  0  -0.048157  0  3.647351  0  0  -0.11094  0  3.898223  0  0  -0.107492  0  3.908966  0  0  -0.07353  -0.113091  0  3.890915  0
C  C49  1  0.86293102  0.25178429  0.94074348  1  0  -0.048271  0  3.647474  0  0  -0.110921  0  3.89823  0  0  -0.107474  0  3.908978  0  0  -0.073503  -0.11307  0  3.890925  0
C  C50  1  0.86293012  0.75178019  0.55925532  1  0  -0.048167  0  3.647466  0  0  -0.110934  0  3.898272  0  0  -0.107483  0  3.909019  0  0  -0.073517  -0.113087  0  3.890967  0
C  C51  1  0.13707363  0.74822392  0.05925678  1  0  -0.048138  0  3.647522  0  0  -0.110867  0  3.898302  0  0  -0.107423  0  3.909054  0  0  -0.073522  -0.113021  0  3.890999  0
C  C52  1  0.06029474  0.35552443  0.38224319  1  0  0.061151  0  3.642526  0  0  0.00814  0  3.9088  0  0  0.014856  0  3.913734  0  0  -0.076853  0.00362  0  3.905386  0
C  C53  1  0.93970425  0.14448121  0.88224267  1  0  0.061357  0  3.642225  0  0  0.008183  0  3.908645  0  0  0.0149  0  3.913573  0  0  -0.07683  0.003654  0  3.905239  0
C  C54  1  0.93970883  0.64447721  0.61775590  1  0  0.061176  0  3.64242  0  0  0.008156  0  3.908651  0  0  0.014871  0  3.91358  0  0  -0.076819  0.003635  0  3.905238  0
C  C55  1  0.06029173  0.85551651  0.11775759  1  0  0.061261  0  3.642226  0  0  0.008233  0  3.908515  0  0  0.014953  0  3.913442  0  0  -0.076779  0.003705  0  3.905106  0
C  C56  1  0.71467670  0.26190380  0.43533627  1  0  0.059168  0  3.637253  0  0  0.006103  0  3.903022  0  0  0.013191  0  3.907426  0  0  -0.077034  0.001298  0  3.900033  0
C  C57  1  0.28531768  0.23809538  0.93533394  1  0  0.059084  0  3.637285  0  0  0.006037  0  3.902957  0  0  0.01312  0  3.907354  0  0  -0.077039  0.001238  0  3.899956  0
C  C58  1  0.28531569  0.73808867  0.56466399  1  0  0.059104  0  3.637384  0  0  0.006007  0  3.903187  0  0  0.013102  0  3.907582  0  0  -0.077031  0.001198  0  3.900188  0
C  C59  1  0.71467834  0.76190628  0.06466399  1  0  0.059217  0  3.637239  0  0  0.006156  0  3.903043  0  0  0.013243  0  3.907434  0  0  -0.077009  0.001358  0  3.900038  0
C  C60  1  0.77892941  0.15179392  0.49647868  1  0  -0.047924  0  3.642352  0  0  -0.109703  0  3.891564  0  0  -0.10669  0  3.902983  0  0  -0.074521  -0.111548  0  3.883747  0
C  C61  1  0.22106949  0.34821062  0.99647714  1  0  -0.048  0  3.642528  0  0  -0.109607  0  3.891488  0  0  -0.106579  0  3.902903  0  0  -0.074493  -0.111448  0  3.883672  0
C  C62  1  0.22107309  0.84820116  0.50352041  1  0  -0.047912  0  3.642501  0  0  -0.109663  0  3.891664  0  0  -0.106637  0  3.903093  0  0  -0.074514  -0.111507  0  3.883845  0
C  C63  1  0.77893365  0.65179758  0.00351962  1  0  -0.047929  0  3.64237  0  0  -0.109683  0  3.89156  0  0  -0.106646  0  3.90298  0  0  -0.074492  -0.111536  0  3.883749  0
S  S64  1  0.93522285  0.19577122  0.66609731  1  0  -0.626879  0  2.054353  0  0  -0.587525  0  2.385094  0  0  -0.602384  0  2.372077  0  0  -0.2462  -0.576878  0  2.394004  0
S  S65  1  0.06477457  0.30422482  0.16609603  1  0  -0.626847  0  2.05436  0  0  -0.587482  0  2.385115  0  0  -0.602339  0  2.372096  0  0  -0.246214  -0.576832  0  2.394027  0
S  S66  1  0.06477158  0.80422256  0.33390236  1  0  -0.626804  0  2.054429  0  0  -0.587388  0  2.385162  0  0  -0.602242  0  2.372145  0  0  -0.246179  -0.57674  0  2.39407  0
S  S67  1  0.93524015  0.69578206  0.83390365  1  0  -0.626808  0  2.054506  0  0  -0.587402  0  2.385241  0  0  -0.60226  0  2.372226  0  0  -0.246187  -0.576758  0  2.39415  0
S  S68  1  0.36852820  0.30435125  0.59540994  1  0  -0.522584  0  1.934486  0  0  -0.497754  0  2.259163  0  0  -0.513252  0  2.252838  0  0  -0.247288  -0.486803  0  2.263262  0
S  S69  1  0.63146841  0.19564859  0.09540826  1  0  -0.522562  0  1.934436  0  0  -0.497722  0  2.259097  0  0  -0.51322  0  2.25277  0  0  -0.247281  -0.486769  0  2.26319  0
S  S70  1  0.63146830  0.69564777  0.40459148  1  0  -0.522513  0  1.934524  0  0  -0.497665  0  2.259193  0  0  -0.513159  0  2.252865  0  0  -0.24728  -0.486718  0  2.26329  0
S  S71  1  0.36854436  0.80436485  0.90459375  1  0  -0.522549  0  1.934535  0  0  -0.497716  0  2.259214  0  0  -0.513214  0  2.252886  0  0  -0.247279  -0.486771  0  2.263308  0
N  N72  1  0.00875472  0.22052505  0.51196684  1  0  -0.130456  0  3.389274  0  0  -0.030585  0  3.61477  0  0  -0.049834  0  3.638559  0  0  -0.267775  -0.017826  0  3.598447  0
N  N73  1  0.99124575  0.27947857  0.01196469  1  0  -0.130308  0  3.389331  0  0  -0.030599  0  3.614854  0  0  -0.049852  0  3.638644  0  0  -0.26779  -0.01784  0  3.598533  0
N  N74  1  0.99124783  0.77947397  0.48803691  1  0  -0.130404  0  3.389102  0  0  -0.03047  0  3.614536  0  0  -0.049723  0  3.638327  0  0  -0.267789  -0.017712  0  3.598214  0
N  N75  1  0.00875484  0.72052702  0.98803732  1  0  -0.130485  0  3.389276  0  0  -0.030606  0  3.614772  0  0  -0.049858  0  3.638559  0  0  -0.267769  -0.01785  0  3.598451  0
O  O76  1  0.83702894  0.27661573  0.36473042  1  0  -0.373385  0  2.257218  0  0  -0.303856  0  2.511524  0  0  -0.320077  0  2.513061  0  0  -0.302419  -0.292307  0  2.510099  0
O  O77  1  0.16296767  0.22338725  0.86472943  1  0  -0.373384  0  2.257231  0  0  -0.303882  0  2.511591  0  0  -0.3201  0  2.513135  0  0  -0.302429  -0.292335  0  2.51017  0
O  O78  1  0.16297260  0.72338461  0.63526984  1  0  -0.373449  0  2.257399  0  0  -0.303882  0  2.51168  0  0  -0.320104  0  2.513218  0  0  -0.30244  -0.292333  0  2.51026  0
O  O79  1  0.83702119  0.77660391  0.13527141  1  0  -0.373554  0  2.257287  0  0  -0.303993  0  2.511572  0  0  -0.320213  0  2.513113  0  0  -0.302496  -0.292443  0  2.510148  0
O  O80  1  0.62053011  0.84260089  0.72777784  1  0  -0.860357  0  1.85227  0  0  -0.811629  0  2.020452  0  0  -0.82877  0  1.992334  0  0  -0.680851  -0.799311  0  2.040216  0
O  O81  1  0.37947939  0.65738384  0.22778233  1  0  -0.860331  0  1.852389  0  0  -0.811581  0  2.020518  0  0  -0.828732  0  1.992416  0  0  -0.680885  -0.799258  0  2.040283  0
O  O82  1  0.37948315  0.15736399  0.27222009  1  0  -0.860342  0  1.852148  0  0  -0.811564  0  2.020378  0  0  -0.828717  0  1.992282  0  0  -0.680844  -0.799237  0  2.04015  0
O  O83  1  0.62051875  0.34262700  0.77221618  1  0  -0.86046  0  1.852236  0  0  -0.811673  0  2.020437  0  0  -0.828821  0  1.992327  0  0  -0.680881  -0.799347  0  2.040204  0
