# generated using pymatgen
data_AlH6C19N(Cl3O5)2
_symmetry_space_group_name_H-M   'P 1'
_cell_length_a   6.85903964
_cell_length_b   25.19517744
_cell_length_c   28.80149769
_cell_angle_alpha   89.46442200
_cell_angle_beta   89.03265127
_cell_angle_gamma   90.14321290
_symmetry_Int_Tables_number   1
_chemical_formula_structural   AlH6C19N(Cl3O5)2
_chemical_formula_sum   'Al4 H24 C76 N4 Cl24 O40'
_cell_volume   4976.37840527
_cell_formula_units_Z   4
loop_
 _symmetry_equiv_pos_site_id
 _symmetry_equiv_pos_as_xyz
  1  'x, y, z'
loop_
 _atom_site_type_symbol
 _atom_site_label
 _atom_site_symmetry_multiplicity
 _atom_site_fract_x
 _atom_site_fract_y
 _atom_site_fract_z
 _atom_site_occupancy
 _atom_site_pbe_bader_charge
 _atom_site_pbe_bader_spin_density
 _atom_site_pbe_cm5_charge
 _atom_site_pbe_ddec_charge
 _atom_site_pbe_ddec_spin_density
 _atom_site_pbe_ddec_sum_bond_order
 _atom_site_pbe_magmom
Al  Al0  1  0.22028995  0.74805551  0.25302850  1  2.504295  0  0.405406  1.651596  0  2.537942  0
Al  Al1  1  0.78737941  0.25359105  0.74816020  1  2.501509  0  0.401319  1.648801  0  2.554229  0
Al  Al2  1  0.72169207  0.74967443  0.25257024  1  2.506424  0  0.404675  1.647216  0  2.549681  0
Al  Al3  1  0.28508114  0.25517137  0.74650798  1  2.50349  0  0.408051  1.647082  0  2.532564  0
H  H4  1  0.32818606  0.10733947  0.51097482  1  0.600667  0  0.324467  0.356051  0  0.899174  0
H  H5  1  0.75709171  0.90965029  0.47624081  1  0.582225  0  0.323688  0.354207  0  0.899053  0
H  H6  1  0.27603527  0.90669117  0.54459645  1  0.616289  0  0.315958  0.348162  0  0.920258  0
H  H7  1  0.76519329  0.10028555  0.45225252  1  0.603689  0  0.31566  0.347978  0  0.920963  0
H  H8  1  0.12899848  0.18642035  0.90471709  1  0.599288  0  0.312329  0.344056  0  0.927548  0
H  H9  1  0.86644201  0.81900331  0.09298716  1  0.610644  0  0.313356  0.342083  0  0.925927  0
H  H10  1  0.80658860  0.02273767  0.92234791  1  0.602184  0  0.326157  0.367883  0  0.888853  0
H  H11  1  0.06937148  0.94342921  0.07860781  1  0.610597  0  0.290861  0.323408  0  0.988513  0
H  H12  1  0.90346221  0.08295271  0.83650795  1  0.617435  0  0.334687  0.373563  0  0.877395  0
H  H13  1  0.08713998  0.91700749  0.16163995  1  0.601657  0  0.326483  0.356484  0  0.897326  0
H  H14  1  0.64226892  0.66157652  0.32951843  1  0.641208  0  0.315781  0.362867  0  0.945985  0
H  H15  1  0.34571599  0.34124336  0.66495167  1  0.649761  0  0.308754  0.346441  0  0.97565  0
H  H16  1  0.28334689  0.69211172  0.15583725  1  0.66038  0  0.317153  0.369046  0  0.94306  0
H  H17  1  0.71700478  0.30593627  0.84698047  1  0.652589  0  0.316815  0.369001  0  0.937822  0
H  H18  1  0.38370571  0.63423954  0.06620236  1  0.610502  0  0.323271  0.363374  0  0.900628  0
H  H19  1  0.60458495  0.36781409  0.93643579  1  0.628062  0  0.326193  0.366959  0  0.891132  0
H  H20  1  0.59330311  0.54656570  0.07309934  1  0.622525  0  0.311628  0.353141  0  0.932948  0
H  H21  1  0.43906045  0.44779157  0.88150768  1  0.627332  0  0.323524  0.363498  0  0.898947  0
H  H22  1  0.55930523  0.58695052  0.15915444  1  0.619956  0  0.325751  0.364168  0  0.894246  0
H  H23  1  0.34573978  0.35601078  0.81161062  1  0.641325  0  0.315226  0.365589  0  0.942528  0
H  H24  1  0.47964110  0.68120904  0.23768088  1  0.612954  0  0.344568  0.427289  0  0.862972  0
H  H25  1  0.54824236  0.32295915  0.73344989  1  0.618746  0  0.344019  0.42313  0  0.862349  0
H  H26  1  0.97547979  0.81890022  0.25780654  1  0.610301  0  0.339451  0.422208  0  0.871522  0
H  H27  1  0.03862918  0.18699622  0.76115035  1  0.62881  0  0.348406  0.430544  0  0.856019  0
C  C28  1  0.46438469  0.81055502  0.31503022  1  1.640371  0  0.268572  0.667208  0  4.082629  0
C  C29  1  0.54403288  0.19331805  0.68473222  1  1.619474  0  0.264239  0.659919  0  4.109037  0
C  C30  1  0.47743577  0.81174935  0.18994476  1  1.621994  0  0.269035  0.68008  0  4.06807  0
C  C31  1  0.52480791  0.19154202  0.80955796  1  1.60331  0  0.27467  0.692588  0  4.048271  0
C  C32  1  0.97212626  0.68536546  0.19042666  1  1.541058  0  0.271646  0.687315  0  4.036928  0
C  C33  1  0.02965473  0.31682347  0.81183901  1  1.49075  0  0.262509  0.672042  0  4.048175  0
C  C34  1  0.96271723  0.68712376  0.31760613  1  1.548658  0  0.264048  0.671912  0  4.062774  0
C  C35  1  0.03504444  0.31577008  0.68234355  1  1.537008  0  0.267915  0.680111  0  4.037426  0
C  C36  1  0.13933666  0.63981619  0.38169248  1  0.111313  0  0.023441  0.114983  0  4.00045  0
C  C37  1  0.83925944  0.36058512  0.62042682  1  0.102443  0  0.021338  0.109614  0  3.997195  0
C  C38  1  0.14285982  0.59162904  0.40719065  1  0.17035  0  0.005087  0.037712  0  4.028631  0
C  C39  1  0.82512813  0.40871398  0.59509878  1  0.139326  0  0.00676  0.040145  0  4.023413  0
C  C40  1  0.96943934  0.57698546  0.43085588  1  0.057759  0  -0.018814  -0.09146  0  4.040791  0
C  C41  1  0.99134545  0.42500086  0.56933859  1  0.085945  0  -0.013306  -0.081165  0  4.027069  0
C  C42  1  0.79561063  0.60299939  0.42034921  1  0.117683  0  -0.000557  0.007108  0  3.991446  0
C  C43  1  0.17057802  0.40056722  0.57731574  1  0.133263  0  0.001553  0.008383  0  3.995969  0
C  C44  1  0.78801141  0.62955916  0.37676456  1  0.604466  0  0.094894  0.283125  0  4.058237  0
C  C45  1  0.18992743  0.37320566  0.62013932  1  0.636824  0  0.092441  0.285183  0  4.059258  0
C  C46  1  0.96365544  0.65272698  0.35937134  1  0.070484  0  -0.048423  -0.265278  0  3.99117  0
C  C47  1  0.02166561  0.34888874  0.64013264  1  0.035155  0  -0.049995  -0.26908  0  4.001352  0
C  C48  1  0.97824180  0.46675680  0.53324497  1  1.017428  0  0.240417  0.264891  0  4.011355  0
C  C49  1  0.97177421  0.53715220  0.46864739  1  0.985264  0  0.242878  0.272115  0  3.994832  0
C  C50  1  0.13157449  0.64414009  0.12120412  1  0.489707  0  0.064144  0.180624  0  4.116302  0
C  C51  1  0.86454912  0.35433925  0.88198414  1  0.492576  0  0.060801  0.181862  0  4.1135  0
C  C52  1  0.13183254  0.60945558  0.08353362  1  0.544147  0  0.051007  0.138697  0  4.108662  0
C  C53  1  0.86145790  0.38977138  0.91899346  1  0.556168  0  0.053225  0.136878  0  4.123218  0
C  C54  1  0.97272790  0.57581867  0.07626977  1  0.071908  0  -0.033598  -0.104652  0  4.080911  0
C  C55  1  0.01888785  0.42425040  0.92590465  1  0.023264  0  -0.031863  -0.106275  0  4.044089  0
C  C56  1  0.81052031  0.57909148  0.10643614  1  0.512636  0  0.0426  0.102252  0  4.114406  0
C  C57  1  0.18312343  0.42214165  0.89633913  1  0.572713  0  0.055069  0.141138  0  4.11353  0
C  C58  1  0.80656965  0.61416971  0.14395788  1  0.500764  0  0.074204  0.215092  0  4.068352  0
C  C59  1  0.19112180  0.38575316  0.85992527  1  0.52284  0  0.063145  0.185732  0  4.101553  0
C  C60  1  0.96901418  0.64746060  0.15204675  1  0.055322  0  -0.045842  -0.276296  0  4.000582  0
C  C61  1  0.02975606  0.35194928  0.85168890  1  0.04423  0  -0.054964  -0.298899  0  4.05757  0
C  C62  1  0.87242287  0.54377125  0.99767773  1  0.052015  0  0.008123  0.038232  0  4.019209  0
C  C63  1  0.11595158  0.45558263  0.00480481  1  0.12463  0  0.016012  0.057522  0  3.999921  0
C  C64  1  0.88787866  0.50792934  0.96075212  1  0.162199  0  0.014822  0.058333  0  4.00379  0
C  C65  1  0.10361667  0.49213692  0.04124981  1  0.090214  0  0.012389  0.051437  0  4.005383  0
C  C66  1  0.00866238  0.46315760  0.96416432  1  0.12865  0  -0.002109  0.032918  0  3.940212  0
C  C67  1  0.98153521  0.53675309  0.03807354  1  0.113781  0  -0.01173  0.012736  0  3.977059  0
C  C68  1  0.43307956  0.16366114  0.60585063  1  0.158376  0  0.010984  0.031322  0  4.000097  0
C  C69  1  0.60859662  0.84547039  0.38885122  1  0.085881  0  0.013118  0.033252  0  3.999109  0
C  C70  1  0.43122686  0.12658473  0.56965092  1  0.543127  0  0.082944  0.222496  0  4.068242  0
C  C71  1  0.62166283  0.88420605  0.42352238  1  0.551065  0  0.081022  0.217317  0  4.073186  0
C  C72  1  0.54670770  0.08069748  0.57242057  1  0.124706  0  -0.033266  -0.081538  0  4.030269  0
C  C73  1  0.48868913  0.92642976  0.42463579  1  0.096321  0  -0.032581  -0.079417  0  4.03975  0
C  C74  1  0.66460574  0.07256472  0.61118398  1  0.124175  0  0.005304  0.05729  0  4.046326  0
C  C75  1  0.34404267  0.92983855  0.39098797  1  0.148467  0  0.004992  0.057576  0  4.040481  0
C  C76  1  0.66297221  0.10870242  0.64791549  1  0.118484  0  0.005206  0.061698  0  4.024719  0
C  C77  1  0.33402953  0.89239040  0.35533318  1  0.078268  0  0.00747  0.065252  0  4.017402  0
C  C78  1  0.54676914  0.15465687  0.64519171  1  0.015528  0  -0.014664  -0.121959  0  3.941281  0
C  C79  1  0.46726798  0.84979347  0.35411916  1  0.115251  0  -0.015116  -0.129215  0  3.93217  0
C  C80  1  0.43414313  0.99302089  0.54138923  1  0.092746  0  -0.00718  -0.02365  0  4.076049  0
C  C81  1  0.60280896  0.01447134  0.45524989  1  0.026659  0  -0.008364  -0.029181  0  4.088094  0
C  C82  1  0.41948890  0.95522881  0.50607615  1  0.529665  0  0.067413  0.190179  0  4.119  0
C  C83  1  0.62088137  0.05186998  0.49086161  1  0.59062  0  0.064273  0.18018  0  4.126481  0
C  C84  1  0.50445643  0.96609761  0.46213393  1  0.083569  0  -0.031632  -0.075313  0  4.073758  0
C  C85  1  0.53479492  0.04118017  0.53474359  1  0.027969  0  -0.029057  -0.068594  0  4.059701  0
C  C86  1  0.36121553  0.15423851  0.88210955  1  0.581727  0  0.082417  0.248728  0  4.087338  0
C  C87  1  0.62968055  0.84896583  0.11562258  1  0.548563  0  0.086605  0.256562  0  4.089092  0
C  C88  1  0.35664905  0.11726751  0.91881145  1  0.028438  0  -0.0237  -0.052736  0  4.082636  0
C  C89  1  0.62775074  0.88585674  0.07871605  1  0.082858  0  -0.02735  -0.067438  0  4.068526  0
C  C90  1  0.50274646  0.07900352  0.92417232  1  0.102342  0  -0.042022  -0.079585  0  4.146566  0
C  C91  1  0.47418828  0.92158114  0.07251131  1  0.024208  0  -0.033801  -0.054572  0  4.125817  0
C  C92  1  0.65768537  0.07864574  0.89230138  1  0.483498  0  0.047551  0.109645  0  4.12048  0
C  C93  1  0.31789883  0.91956616  0.10397409  1  0.515422  0  0.041023  0.094602  0  4.085613  0
C  C94  1  0.66792536  0.11558226  0.85534142  1  0.536294  0  0.085255  0.22562  0  4.046359  0
C  C95  1  0.31897520  0.88442797  0.14240790  1  0.506474  0  0.088636  0.226674  0  4.067547  0
C  C96  1  0.51861832  0.15338642  0.84936489  1  0.084205  0  -0.031505  -0.246233  0  3.901776  0
C  C97  1  0.47465867  0.84863448  0.14889265  1  0.094009  0  -0.029392  -0.238099  0  3.881307  0
C  C98  1  0.38987041  0.99131093  0.95679275  1  0.106613  0  0.005795  0.043247  0  4.040571  0
C  C99  1  0.58351872  0.00940936  0.04011012  1  0.122997  0  0.008595  0.046048  0  4.027742  0
C  C100  1  0.38383074  0.95301186  0.99257463  1  0.12515  0  0.005631  0.040494  0  4.031038  0
C  C101  1  0.58976952  0.04781993  0.00436106  1  0.095523  0  0.006062  0.036644  0  4.046887  0
C  C102  1  0.47991093  0.96177382  0.03448984  1  0.060518  0  -0.015063  0.00276  0  3.997096  0
C  C103  1  0.49393443  0.03895879  0.96230416  1  0.088073  0  -0.022799  -0.027285  0  4.040833  0
N  N104  1  0.83428845  0.49858593  0.46788189  1  -0.530714  0  -0.153555  -0.136203  0  3.175771  0
N  N105  1  0.10850268  0.50695425  0.53554679  1  -0.548607  0  -0.156617  -0.142409  0  3.192196  0
N  N106  1  0.83792213  0.46221595  0.50121560  1  -0.570665  0  -0.154507  -0.137316  0  3.193463  0
N  N107  1  0.10520877  0.54325424  0.50220392  1  -0.52542  0  -0.153576  -0.135136  0  3.186314  0
Cl  Cl108  1  0.31364076  0.68769881  0.38636183  1  -0.125104  0  0.03996  0.001186  0  1.736046  0
Cl  Cl109  1  0.66950809  0.31100516  0.61874517  1  -0.13305  0  0.040586  -0.008019  0  1.788167  0
Cl  Cl110  1  0.76306001  0.51967679  0.91047225  1  -0.178864  0  0.013206  -0.035677  0  1.580536  0
Cl  Cl111  1  0.23600257  0.48189505  0.09068865  1  -0.173112  0  0.012901  -0.034894  0  1.596838  0
Cl  Cl112  1  0.29527404  0.22005314  0.59917293  1  -0.154112  0  0.0243  -0.005404  0  1.584957  0
Cl  Cl113  1  0.76729329  0.79300355  0.39231906  1  -0.150352  0  0.02816  -0.001502  0  1.580659  0
Cl  Cl114  1  0.81266522  0.01747461  0.61289189  1  -0.19423  0  -0.020046  -0.081837  0  1.621956  0
Cl  Cl115  1  0.17803610  0.98094117  0.39442367  1  -0.199461  0  -0.022269  -0.085574  0  1.637849  0
Cl  Cl116  1  0.79462003  0.09462320  0.69694405  1  -0.177708  0  -0.001794  -0.044776  0  1.569986  0
Cl  Cl117  1  0.16481263  0.90181454  0.31242552  1  -0.17738  0  0.004033  -0.045635  0  1.581979  0
Cl  Cl118  1  0.32087658  0.97814343  0.59398363  1  -0.191113  0  0.021863  -0.038222  0  1.606662  0
Cl  Cl119  1  0.70467680  0.03052436  0.40160616  1  -0.197078  0  0.023566  -0.032599  0  1.599799  0
Cl  Cl120  1  0.16275323  0.11961123  0.95817828  1  -0.215239  0  -0.003464  -0.074084  0  1.645584  0
Cl  Cl121  1  0.82622146  0.88656846  0.04001054  1  -0.244079  0  0.006281  -0.085596  0  1.703913  0
Cl  Cl122  1  0.33424255  0.54823860  0.40599216  1  -0.151712  0  0.01809  -0.018414  0  1.700021  0
Cl  Cl123  1  0.63235477  0.45130070  0.59962344  1  -0.139542  0  0.023874  -0.009444  0  1.71734  0
Cl  Cl124  1  0.26856161  0.98063068  0.90600771  1  -0.159772  0  0.01436  -0.02388  0  1.566967  0
Cl  Cl125  1  0.70408235  0.02023035  0.09091439  1  -0.158527  0  0.022384  -0.015136  0  1.566821  0
Cl  Cl126  1  0.26249642  0.89400043  0.98485862  1  -0.175215  0  0.010342  -0.035028  0  1.612098  0
Cl  Cl127  1  0.70982805  0.10684823  0.01219827  1  -0.151118  0  0.018074  -0.021136  0  1.606317  0
Cl  Cl128  1  0.61942515  0.61047650  0.46278030  1  -0.155289  0  0.00613  -0.043585  0  1.677501  0
Cl  Cl129  1  0.34659446  0.39936146  0.53440937  1  -0.156876  0  0.015184  -0.029376  0  1.657549  0
Cl  Cl130  1  0.71859518  0.59766904  0.99343204  1  -0.192377  0  0.006099  -0.05213  0  1.583356  0
Cl  Cl131  1  0.26101941  0.40043089  0.01014822  1  -0.16674  0  0.006179  -0.04321  0  1.572332  0
O  O132  1  0.64382675  0.79727296  0.20408865  1  -1.247143  0  -0.232243  -0.579749  0  2.349553  0
O  O133  1  0.36230743  0.20854987  0.79485820  1  -1.252478  0  -0.23159  -0.585063  0  2.355655  0
O  O134  1  0.30068494  0.79183341  0.30359046  1  -1.246777  0  -0.227843  -0.589162  0  2.396664  0
O  O135  1  0.70855448  0.21003085  0.69776215  1  -1.245404  0  -0.230414  -0.596428  0  2.411172  0
O  O136  1  0.12326116  0.69726896  0.29689769  1  -1.261174  0  -0.233707  -0.587564  0  2.388476  0
O  O137  1  0.87975132  0.30530891  0.70520415  1  -1.26449  0  -0.234133  -0.596394  0  2.403872  0
O  O138  1  0.31245779  0.79856298  0.20740120  1  -1.248957  0  -0.234544  -0.590515  0  2.363159  0
O  O139  1  0.69209618  0.20415326  0.79297444  1  -1.254465  0  -0.232048  -0.591998  0  2.36165  0
O  O140  1  0.14207866  0.70336309  0.20218935  1  -1.256339  0  -0.240093  -0.614711  0  2.344135  0
O  O141  1  0.86503772  0.29673923  0.79988235  1  -1.262755  0  -0.235125  -0.597696  0  2.372682  0
O  O142  1  0.62899525  0.80036471  0.29639938  1  -1.253481  0  -0.231452  -0.595313  0  2.389736  0
O  O143  1  0.37740489  0.20486796  0.70159403  1  -1.245675  0  -0.232759  -0.59442  0  2.374766  0
O  O144  1  0.47170849  0.71578572  0.25229408  1  -1.417661  0  -0.45139  -0.983318  0  2.113641  0
O  O145  1  0.53666231  0.28815512  0.74797306  1  -1.429035  0  -0.452896  -0.982991  0  2.113989  0
O  O146  1  0.81271611  0.69872229  0.20972873  1  -1.255529  0  -0.224869  -0.573464  0  2.372634  0
O  O147  1  0.19230323  0.30833853  0.78988088  1  -1.259395  0  -0.237621  -0.60403  0  2.35137  0
O  O148  1  0.79396111  0.70253831  0.30318336  1  -1.246835  0  -0.23773  -0.607466  0  2.390899  0
O  O149  1  0.20732824  0.30142027  0.69570364  1  -1.255488  0  -0.238502  -0.60864  0  2.371697  0
O  O150  1  0.97247819  0.78081025  0.25342889  1  -1.413171  0  -0.448827  -0.979447  0  2.147304  0
O  O151  1  0.03723132  0.22243106  0.74762019  1  -1.42887  0  -0.447444  -0.974757  0  2.129307  0
O  O152  1  0.31398102  0.13638901  0.53306599  1  -1.110885  0  -0.342849  -0.412607  0  2.306363  0
O  O153  1  0.76474661  0.87933599  0.45530736  1  -1.084885  0  -0.342654  -0.412137  0  2.312655  0
O  O154  1  0.32257270  0.90855907  0.51222981  1  -1.117558  0  -0.341414  -0.394298  0  2.289419  0
O  O155  1  0.71973819  0.09834412  0.48469781  1  -1.111826  0  -0.343065  -0.398953  0  2.294281  0
O  O156  1  0.21983524  0.19141451  0.87835191  1  -1.090175  0  -0.331981  -0.388646  0  2.31876  0
O  O157  1  0.77621715  0.81347253  0.11934956  1  -1.098484  0  -0.324901  -0.37545  0  2.320687  0
O  O158  1  0.80850174  0.04260792  0.89314575  1  -1.122662  0  -0.364653  -0.46746  0  2.355535  0
O  O159  1  0.16267658  0.95495409  0.10194013  1  -1.13604  0  -0.376351  -0.466804  0  2.340454  0
O  O160  1  0.82255045  0.11227373  0.82533635  1  -1.105424  0  -0.333512  -0.402033  0  2.289656  0
O  O161  1  0.16817339  0.88764654  0.17312242  1  -1.078996  0  -0.32895  -0.384954  0  2.307004  0
O  O162  1  0.62148543  0.63348808  0.35412993  1  -1.134445  0  -0.334587  -0.418289  0  2.449669  0
O  O163  1  0.36144025  0.36970367  0.64059051  1  -1.160644  0  -0.341624  -0.430802  0  2.506568  0
O  O164  1  0.29574747  0.67421545  0.12506559  1  -1.17377  0  -0.362095  -0.45825  0  2.307099  0
O  O165  1  0.70389464  0.32279621  0.87798966  1  -1.163516  0  -0.366091  -0.457187  0  2.296578  0
O  O166  1  0.29185113  0.60802293  0.05428717  1  -1.118245  0  -0.363677  -0.449473  0  2.326251  0
O  O167  1  0.70365182  0.39170497  0.94859692  1  -1.129366  0  -0.359625  -0.438855  0  2.326183  0
O  O168  1  0.64983937  0.54587447  0.10403457  1  -1.146863  0  -0.371173  -0.473922  0  2.366004  0
O  O169  1  0.33389123  0.45647462  0.90344963  1  -1.127713  0  -0.358861  -0.438716  0  2.341469  0
O  O170  1  0.64669955  0.61347320  0.17268417  1  -1.111549  0  -0.345415  -0.415313  0  2.288988  0
O  O171  1  0.35628597  0.38666677  0.83294654  1  -1.149102  0  -0.363255  -0.451066  0  2.298722  0
