# generated using pymatgen
data_ZnH22C28(N5O2)2
_symmetry_space_group_name_H-M   'P 1'
_cell_length_a   7.09445750
_cell_length_b   12.87502821
_cell_length_c   16.11032976
_cell_angle_alpha   77.49765999
_cell_angle_beta   77.31943067
_cell_angle_gamma   74.03904989
_symmetry_Int_Tables_number   1
_chemical_formula_structural   ZnH22C28(N5O2)2
_chemical_formula_sum   'Zn2 H44 C56 N20 O8'
_cell_volume   1361.04964952
_cell_formula_units_Z   2
loop_
 _symmetry_equiv_pos_site_id
 _symmetry_equiv_pos_as_xyz
  1  'x, y, z'
loop_
 _atom_site_type_symbol
 _atom_site_label
 _atom_site_symmetry_multiplicity
 _atom_site_fract_x
 _atom_site_fract_y
 _atom_site_fract_z
 _atom_site_occupancy
 _atom_site_hle17_bader_spin_density
 _atom_site_hle17_ddec_charge
 _atom_site_hle17_ddec_spin_density
 _atom_site_hle17_ddec_sum_bond_order
 _atom_site_hle17_magmom
 _atom_site_hse06_10hf_bader_spin_density
 _atom_site_hse06_10hf_ddec_charge
 _atom_site_hse06_10hf_ddec_spin_density
 _atom_site_hse06_10hf_ddec_sum_bond_order
 _atom_site_hse06_10hf_magmom
 _atom_site_hse06_bader_spin_density
 _atom_site_hse06_ddec_charge
 _atom_site_hse06_ddec_spin_density
 _atom_site_hse06_ddec_sum_bond_order
 _atom_site_hse06_magmom
 _atom_site_pbe_bader_spin_density
 _atom_site_pbe_cm5_charge
 _atom_site_pbe_ddec_charge
 _atom_site_pbe_ddec_spin_density
 _atom_site_pbe_ddec_sum_bond_order
 _atom_site_pbe_magmom
Zn  Zn0  1  0.93379985  0.74993367  0.24998181  1  0  0.989705  0  1.881685  0  0  0.803985  0  2.35007  0  0  0.852765  0  2.295208  0  0  0.682493  0.770002  0  2.387621  0
Zn  Zn1  1  0.06618832  0.25006146  0.75001986  1  0  0.989699  0  1.881678  0  0  0.804009  0  2.350054  0  0  0.852782  0  2.295197  0  0  0.682511  0.770028  0  2.387605  0
H  H2  1  0.83820862  0.04877179  0.21465288  1  0  0.118094  0  0.953766  0  0  0.127134  0  1.015649  0  0  0.130496  0  1.013083  0  0  0.105834  0.124647  0  1.017597  0
H  H3  1  0.10208680  0.45116518  0.28558858  1  0  0.118707  0  0.952862  0  0  0.127165  0  1.015326  0  0  0.130531  0  1.012741  0  0  0.105508  0.124632  0  1.017349  0
H  H4  1  0.16178295  0.95123234  0.78534016  1  0  0.118051  0  0.953718  0  0  0.127097  0  1.015607  0  0  0.130455  0  1.013041  0  0  0.105831  0.124611  0  1.017555  0
H  H5  1  0.89791436  0.54883076  0.71440820  1  0  0.118842  0  0.952859  0  0  0.127322  0  1.015268  0  0  0.130689  0  1.012682  0  0  0.105587  0.124773  0  1.017306  0
H  H6  1  0.75105849  0.04012109  0.37473311  1  0  0.080494  0  0.975612  0  0  0.092078  0  1.039493  0  0  0.093911  0  1.039977  0  0  0.094194  0.090755  0  1.039243  0
H  H7  1  0.16591065  0.45983248  0.12548346  1  0  0.080846  0  0.974951  0  0  0.092205  0  1.039122  0  0  0.094006  0  1.03967  0  0  0.093922  0.090857  0  1.038889  0
H  H8  1  0.24892615  0.95987648  0.62526046  1  0  0.080499  0  0.975566  0  0  0.092061  0  1.039476  0  0  0.093891  0  1.039962  0  0  0.094199  0.09074  0  1.039224  0
H  H9  1  0.83408956  0.54016101  0.87451276  1  0  0.080819  0  0.974892  0  0  0.092228  0  1.039023  0  0  0.094005  0  1.039596  0  0  0.093959  0.09089  0  1.038783  0
H  H10  1  0.64115605  0.20897355  0.43995343  1  0  0.089937  0  0.952971  0  0  0.101775  0  1.013998  0  0  0.104108  0  1.013036  0  0  0.100493  0.10006  0  1.014779  0
H  H11  1  0.28945522  0.29099164  0.06027031  1  0  0.09079  0  0.951507  0  0  0.101796  0  1.013337  0  0  0.104173  0  1.012279  0  0  0.100701  0.100037  0  1.014157  0
H  H12  1  0.35882524  0.79101911  0.56004638  1  0  0.089897  0  0.952953  0  0  0.10172  0  1.014012  0  0  0.104053  0  1.013052  0  0  0.100464  0.100005  0  1.014789  0
H  H13  1  0.71053547  0.70900266  0.93972486  1  0  0.090819  0  0.951593  0  0  0.101826  0  1.013417  0  0  0.104201  0  1.012359  0  0  0.100705  0.100069  0  1.014236  0
H  H14  1  0.62850945  0.39199119  0.35021046  1  0  0.102738  0  0.972442  0  0  0.112053  0  1.035097  0  0  0.113916  0  1.036033  0  0  0.101922  0.1107  0  1.034556  0
H  H15  1  0.37005022  0.10797222  0.14999643  1  0  0.10328  0  0.971647  0  0  0.112837  0  1.034007  0  0  0.114605  0  1.035046  0  0  0.102163  0.111553  0  1.033398  0
H  H16  1  0.37149366  0.60800312  0.64979557  1  0  0.10271  0  0.972481  0  0  0.112103  0  1.035046  0  0  0.11391  0  1.036047  0  0  0.101925  0.110746  0  1.034507  0
H  H17  1  0.62993690  0.89202126  0.84999844  1  0  0.103298  0  0.971727  0  0  0.112879  0  1.034036  0  0  0.114647  0  1.035075  0  0  0.102213  0.111597  0  1.033428  0
H  H18  1  0.80690945  0.55428096  0.10579912  1  0  0.111307  0  0.893931  0  0  0.122327  0  0.954512  0  0  0.124125  0  0.951782  0  0  0.142447  0.12088  0  0.956673  0
H  H19  1  0.46717015  0.94570409  0.39448694  1  0  0.111763  0  0.893538  0  0  0.123747  0  0.952971  0  0  0.125524  0  0.950274  0  0  0.142874  0.12227  0  0.955173  0
H  H20  1  0.19309691  0.44572319  0.89421118  1  0  0.111257  0  0.893997  0  0  0.122285  0  0.9546  0  0  0.124087  0  0.951869  0  0  0.142397  0.120844  0  0.956745  0
H  H21  1  0.53282507  0.05429185  0.60550855  1  0  0.111723  0  0.893533  0  0  0.123672  0  0.952946  0  0  0.125474  0  0.950267  0  0  0.142873  0.12223  0  0.955109  0
H  H22  1  0.74014584  0.53613007  0.21992337  1  0  0.108313  0  0.909166  0  0  0.117826  0  0.974323  0  0  0.119217  0  0.973008  0  0  0.138089  0.116691  0  0.975424  0
H  H23  1  0.49615520  0.96375745  0.28036531  1  0  0.107932  0  0.908929  0  0  0.118052  0  0.973434  0  0  0.119392  0  0.972146  0  0  0.13842  0.116952  0  0.974506  0
H  H24  1  0.25986246  0.46387080  0.78008536  1  0  0.108402  0  0.909191  0  0  0.117979  0  0.974253  0  0  0.119378  0  0.97293  0  0  0.138165  0.116843  0  0.975348  0
H  H25  1  0.50384432  0.03623603  0.71963015  1  0  0.107916  0  0.908906  0  0  0.117876  0  0.973527  0  0  0.119229  0  0.972265  0  0  0.138356  0.116784  0  0.97461  0
H  H26  1  0.51372199  0.58145808  0.01659152  1  0  0.114472  0  0.963505  0  0  0.122067  0  1.03138  0  0  0.124657  0  1.030104  0  0  0.125013  0.120168  0  1.032412  0
H  H27  1  0.11199122  0.91834627  0.48366166  1  0  0.116492  0  0.962385  0  0  0.123537  0  1.030794  0  0  0.126182  0  1.029462  0  0  0.125635  0.121636  0  1.031829  0
H  H28  1  0.48629136  0.41854443  0.98341554  1  0  0.114711  0  0.963575  0  0  0.122241  0  1.031486  0  0  0.124835  0  1.030208  0  0  0.125098  0.120344  0  1.032518  0
H  H29  1  0.88800735  0.08165705  0.51633354  1  0  0.116518  0  0.962448  0  0  0.123588  0  1.03083  0  0  0.126172  0  1.029569  0  0  0.125634  0.121687  0  1.031864  0
H  H30  1  0.12123372  0.69838904  0.05536342  1  0  0.116844  0  0.977297  0  0  0.119568  0  1.045199  0  0  0.122752  0  1.042932  0  0  0.120987  0.117255  0  1.046895  0
H  H31  1  0.87567884  0.80107620  0.44481571  1  0  0.118205  0  0.977441  0  0  0.120293  0  1.045952  0  0  0.123372  0  1.043844  0  0  0.121464  0.11799  0  1.047637  0
H  H32  1  0.87877894  0.30161183  0.94464235  1  0  0.116921  0  0.977361  0  0  0.119646  0  1.045231  0  0  0.122827  0  1.042976  0  0  0.121084  0.11733  0  1.046927  0
H  H33  1  0.12430487  0.19893039  0.55518245  1  0  0.118304  0  0.977362  0  0  0.120395  0  1.045862  0  0  0.123474  0  1.043756  0  0  0.121485  0.1181  0  1.047539  0
H  H34  1  0.37965186  0.61258798  0.28083956  1  0  0.099176  0  0.932935  0  0  0.108439  0  0.997688  0  0  0.110361  0  0.995694  0  0  0.139955  0.107011  0  0.999099  0
H  H35  1  0.27312256  0.88727071  0.21941248  1  0  0.097954  0  0.932889  0  0  0.107885  0  0.996915  0  0  0.109712  0  0.995026  0  0  0.1398  0.106501  0  0.998254  0
H  H36  1  0.62035053  0.38740880  0.71917166  1  0  0.099143  0  0.933085  0  0  0.108395  0  0.997818  0  0  0.110318  0  0.995822  0  0  0.139913  0.106966  0  0.999229  0
H  H37  1  0.72686702  0.11272031  0.78058422  1  0  0.097922  0  0.932924  0  0  0.107889  0  0.996898  0  0  0.109714  0  0.995009  0  0  0.139824  0.106508  0  0.998234  0
H  H38  1  0.30078002  0.68200584  0.44236628  1  0  0.090047  0  0.987441  0  0  0.096798  0  1.056276  0  0  0.09939  0  1.056343  0  0  0.096194  0.094922  0  1.056347  0
H  H39  1  0.42735131  0.81740643  0.05719106  1  0  0.090649  0  0.988275  0  0  0.09709  0  1.057142  0  0  0.099762  0  1.057126  0  0  0.096169  0.095173  0  1.057248  0
H  H40  1  0.69920670  0.31799667  0.55764145  1  0  0.090084  0  0.987381  0  0  0.096841  0  1.056216  0  0  0.099431  0  1.056286  0  0  0.096238  0.094966  0  1.05628  0
H  H41  1  0.57267312  0.18260672  0.94280595  1  0  0.090622  0  0.98803  0  0  0.097049  0  1.056939  0  0  0.09972  0  1.056923  0  0  0.096167  0.095131  0  1.057044  0
H  H42  1  0.86756663  0.45084768  0.45198360  1  0  0.106619  0  0.939968  0  0  0.116563  0  0.999697  0  0  0.120419  0  0.997  0  0  0.10646  0.113689  0  1.001834  0
H  H43  1  0.76949611  0.05009640  0.04812968  1  0  0.108022  0  0.938436  0  0  0.117049  0  0.998987  0  0  0.12098  0  0.996181  0  0  0.10632  0.114177  0  1.00113  0
H  H44  1  0.13242289  0.54915400  0.54802176  1  0  0.106592  0  0.940048  0  0  0.116576  0  0.999745  0  0  0.120427  0  0.997051  0  0  0.10644  0.113704  0  1.00188  0
H  H45  1  0.23051994  0.94991675  0.95186852  1  0  0.107965  0  0.9383  0  0  0.116951  0  0.998942  0  0  0.120895  0  0.99612  0  0  0.106318  0.114081  0  1.001085  0
C  C46  1  0.78681216  0.22659846  0.19271534  1  0  0.101836  0  3.839174  0  0  0.108291  0  4.087052  0  0  0.10684  0  4.110479  0  0  0.089881  0.108931  0  4.071488  0
C  C47  1  0.20657961  0.27337411  0.30749120  1  0  0.102602  0  3.836479  0  0  0.108104  0  4.085589  0  0  0.106751  0  4.108872  0  0  0.088863  0.108696  0  4.070084  0
C  C48  1  0.21318012  0.77340650  0.80728386  1  0  0.101837  0  3.839172  0  0  0.108307  0  4.087047  0  0  0.106854  0  4.110475  0  0  0.089913  0.108951  0  4.071483  0
C  C49  1  0.79342418  0.72661937  0.69249991  1  0  0.102408  0  3.836498  0  0  0.108124  0  4.085393  0  0  0.10677  0  4.108678  0  0  0.08888  0.108717  0  4.069882  0
C  C50  1  0.79652814  0.12260328  0.24376013  1  0  -0.118805  0  3.706338  0  0  -0.14013  0  3.958439  0  0  -0.140319  0  3.977141  0  0  -0.08786  -0.139745  0  3.945835  0
C  C51  1  0.16325203  0.37734768  0.25644738  1  0  -0.119011  0  3.705379  0  0  -0.139384  0  3.957155  0  0  -0.139618  0  3.97587  0  0  -0.086337  -0.138941  0  3.944527  0
C  C52  1  0.20346099  0.87740085  0.75623539  1  0  -0.118766  0  3.706254  0  0  -0.140081  0  3.958313  0  0  -0.140265  0  3.977011  0  0  -0.087889  -0.139698  0  3.945708  0
C  C53  1  0.83675833  0.62264334  0.74354874  1  0  -0.119177  0  3.705435  0  0  -0.139643  0  3.957234  0  0  -0.139876  0  3.975943  0  0  -0.086453  -0.13918  0  3.944614  0
C  C54  1  0.74592974  0.11902509  0.33251759  1  0  -0.082304  0  3.767488  0  0  -0.106322  0  4.035153  0  0  -0.109825  0  4.058311  0  0  -0.104167  -0.104006  0  4.019402  0
C  C55  1  0.19750510  0.38093686  0.16770188  1  0  -0.084155  0  3.76687  0  0  -0.107858  0  4.033837  0  0  -0.111386  0  4.057103  0  0  -0.104888  -0.1055  0  4.018041  0
C  C56  1  0.25406189  0.88097331  0.66747868  1  0  -0.082371  0  3.76756  0  0  -0.106394  0  4.035256  0  0  -0.109903  0  4.058438  0  0  -0.104183  -0.104076  0  4.019502  0
C  C57  1  0.80250089  0.61905499  0.83229234  1  0  -0.084164  0  3.766728  0  0  -0.107926  0  4.03377  0  0  -0.111433  0  4.057048  0  0  -0.105049  -0.105577  0  4.017963  0
C  C58  1  0.68507335  0.21529321  0.37013577  1  0  -0.039649  0  3.737543  0  0  -0.06123  0  3.996892  0  0  -0.061338  0  4.018457  0  0  -0.087403  -0.060942  0  3.98225  0
C  C59  1  0.27027205  0.28466538  0.13008227  1  0  -0.038952  0  3.735529  0  0  -0.059687  0  3.994794  0  0  -0.059807  0  4.016358  0  0  -0.087285  -0.059354  0  3.98014  0
C  C60  1  0.31491986  0.78470356  0.62986423  1  0  -0.039516  0  3.737412  0  0  -0.061071  0  3.996768  0  0  -0.061177  0  4.018314  0  0  -0.087337  -0.060784  0  3.982123  0
C  C61  1  0.72972565  0.71532646  0.86991451  1  0  -0.038842  0  3.735396  0  0  -0.059564  0  3.994677  0  0  -0.059678  0  4.016231  0  0  -0.08716  -0.059234  0  3.980033  0
C  C62  1  0.67499485  0.31860551  0.32049931  1  0  -0.138755  0  3.744578  0  0  -0.154622  0  3.997947  0  0  -0.159317  0  4.019242  0  0  -0.091946  -0.15156  0  3.983676  0
C  C63  1  0.31392676  0.18134354  0.17972023  1  0  -0.13999  0  3.745667  0  0  -0.156043  0  3.999036  0  0  -0.160658  0  4.020384  0  0  -0.092023  -0.153047  0  3.984717  0
C  C64  1  0.32500047  0.68138962  0.67950242  1  0  -0.138884  0  3.744531  0  0  -0.154813  0  3.997908  0  0  -0.159464  0  4.019229  0  0  -0.092016  -0.151747  0  3.983636  0
C  C65  1  0.68607145  0.81864994  0.82027510  1  0  -0.140137  0  3.74585  0  0  -0.15622  0  3.999276  0  0  -0.160835  0  4.020623  0  0  -0.092102  -0.153225  0  3.984959  0
C  C66  1  0.72844738  0.32198364  0.23124428  1  0  0.099651  0  3.807211  0  0  0.083432  0  4.051895  0  0  0.088727  0  4.074527  0  0  0.102563  0.079971  0  4.036763  0
C  C67  1  0.28186896  0.17797887  0.26898134  1  0  0.100349  0  3.807953  0  0  0.084001  0  4.053162  0  0  0.089272  0  4.075788  0  0  0.103265  0.080557  0  4.038034  0
C  C68  1  0.27154851  0.67801804  0.76875899  1  0  0.099748  0  3.807139  0  0  0.083472  0  4.05191  0  0  0.088771  0  4.074532  0  0  0.10264  0.080007  0  4.03678  0
C  C69  1  0.71813307  0.82201625  0.73101355  1  0  0.100643  0  3.807767  0  0  0.084193  0  4.053006  0  0  0.089465  0  4.075625  0  0  0.103383  0.080747  0  4.037883  0
C  C70  1  0.70718301  0.52097320  0.16080656  1  0  0.087692  0  3.620705  0  0  0.010882  0  3.867498  0  0  0.021025  0  3.873426  0  0  0.069388  0.00404  0  3.863764  0
C  C71  1  0.38906224  0.97896727  0.33945949  1  0  0.087312  0  3.621259  0  0  0.009456  0  3.868277  0  0  0.019744  0  3.873956  0  0  0.068576  0.002541  0  3.864715  0
C  C72  1  0.29282918  0.47903177  0.83919880  1  0  0.087485  0  3.62088  0  0  0.010623  0  3.867646  0  0  0.02075  0  3.873588  0  0  0.069424  0.003786  0  3.863908  0
C  C73  1  0.61093886  0.02102375  0.66053430  1  0  0.087429  0  3.621346  0  0  0.009867  0  3.868071  0  0  0.020019  0  3.87393  0  0  0.06865  0.002914  0  3.864518  0
C  C74  1  0.42571917  0.60492272  0.07647475  1  0  -0.053897  0  3.660269  0  0  -0.102248  0  3.934125  0  0  -0.100535  0  3.951336  0  0  0.007856  -0.103391  0  3.922729  0
C  C75  1  0.10740969  0.89487195  0.42375244  1  0  -0.055385  0  3.656347  0  0  -0.103055  0  3.930047  0  0  -0.101398  0  3.947186  0  0  0.007401  -0.10414  0  3.918567  0
C  C76  1  0.57428360  0.39508225  0.92353580  1  0  -0.054133  0  3.660233  0  0  -0.102436  0  3.93411  0  0  -0.100726  0  3.951317  0  0  0.007742  -0.103579  0  3.922716  0
C  C77  1  0.89258411  0.10512727  0.57624262  1  0  -0.055359  0  3.656425  0  0  -0.103054  0  3.930089  0  0  -0.10134  0  3.947257  0  0  0.007444  -0.10414  0  3.918618  0
C  C78  1  0.23247243  0.66245261  0.09648392  1  0  0.009537  0  3.726267  0  0  -0.021838  0  3.990871  0  0  -0.019807  0  4.009023  0  0  0.006778  -0.023209  0  3.978762  0
C  C79  1  0.99186300  0.83714153  0.40370026  1  0  0.007657  0  3.726052  0  0  -0.023349  0  3.990617  0  0  -0.021242  0  4.008841  0  0  0.005868  -0.024729  0  3.978486  0
C  C80  1  0.76754366  0.33754498  0.90352317  1  0  0.009311  0  3.726252  0  0  -0.022073  0  3.990962  0  0  -0.020032  0  4.00909  0  0  0.006604  -0.023445  0  3.978852  0
C  C81  1  0.00812940  0.16286015  0.59629923  1  0  0.007431  0  3.726123  0  0  -0.02358  0  3.990716  0  0  -0.021471  0  4.008922  0  0  0.005771  -0.024967  0  3.978583  0
C  C82  1  0.35916575  0.62028199  0.21478986  1  0  0.174522  0  3.639209  0  0  0.112005  0  3.907065  0  0  0.125981  0  3.920077  0  0  0.149845  0.102987  0  3.89797  0
C  C83  1  0.19432363  0.87955304  0.28543960  1  0  0.177069  0  3.640559  0  0  0.114256  0  3.908193  0  0  0.128323  0  3.921198  0  0  0.15074  0.105211  0  3.899079  0
C  C84  1  0.64083894  0.37972215  0.78521480  1  0  0.17444  0  3.639225  0  0  0.111961  0  3.90706  0  0  0.125935  0  3.920065  0  0  0.149898  0.102943  0  3.897969  0
C  C85  1  0.80566619  0.12044208  0.71455746  1  0  0.177051  0  3.64054  0  0  0.114225  0  3.908191  0  0  0.128299  0  3.921184  0  0  0.150706  0.105179  0  3.899072  0
C  C86  1  0.68832987  0.65720875  0.37672477  1  0  0.623197  0  3.941235  0  0  0.578724  0  4.22818  0  0  0.612367  0  4.220632  0  0  0.192743  0.555867  0  4.232572  0
C  C87  1  0.72333097  0.84301262  0.12309345  1  0  0.624534  0  3.94142  0  0  0.580809  0  4.228112  0  0  0.614441  0  4.220546  0  0  0.193342  0.557977  0  4.232514  0
C  C88  1  0.31165548  0.34278801  0.62327442  1  0  0.62344  0  3.941027  0  0  0.578884  0  4.227996  0  0  0.612527  0  4.220443  0  0  0.192762  0.556026  0  4.232391  0
C  C89  1  0.27668432  0.15699808  0.87690694  1  0  0.624802  0  3.940834  0  0  0.580878  0  4.227752  0  0  0.614537  0  4.220189  0  0  0.193436  0.558034  0  4.232151  0
C  C90  1  0.59362641  0.57493423  0.44034087  1  0  -0.061548  0  3.766337  0  0  -0.038655  0  3.996028  0  0  -0.044678  0  4.017441  0  0  -0.018514  -0.034736  0  3.981593  0
C  C91  1  0.60968042  0.92520991  0.05949067  1  0  -0.057779  0  3.764435  0  0  -0.036753  0  3.996218  0  0  -0.042707  0  4.017518  0  0  -0.018051  -0.032951  0  3.981962  0
C  C92  1  0.40636411  0.42506171  0.55966234  1  0  -0.061655  0  3.766268  0  0  -0.038571  0  3.995769  0  0  -0.04459  0  4.017169  0  0  -0.018424  -0.034654  0  3.981337  0
C  C93  1  0.39034055  0.07479750  0.94050580  1  0  -0.05793  0  3.764542  0  0  -0.036695  0  3.996171  0  0  -0.042745  0  4.017583  0  0  -0.017923  -0.032857  0  3.981872  0
C  C94  1  0.38684293  0.60168966  0.46763706  1  0  -0.082349  0  3.746809  0  0  -0.10195  0  3.991487  0  0  -0.103136  0  4.011909  0  0  -0.088421  -0.101047  0  3.97764  0
C  C95  1  0.45747134  0.89795103  0.03210558  1  0  -0.085776  0  3.749143  0  0  -0.104448  0  3.994027  0  0  -0.105755  0  4.014423  0  0  -0.08951  -0.103446  0  3.980204  0
C  C96  1  0.61314755  0.39831120  0.53236779  1  0  -0.082581  0  3.746877  0  0  -0.102245  0  3.99152  0  0  -0.103433  0  4.011944  0  0  -0.088675  -0.101339  0  3.977675  0
C  C97  1  0.54255103  0.10205803  0.96789295  1  0  -0.085738  0  3.74918  0  0  -0.104464  0  3.994091  0  0  -0.105739  0  4.014513  0  0  -0.089646  -0.103473  0  3.980252  0
C  C98  1  0.70692912  0.47238753  0.47315157  1  0  -0.076581  0  3.736247  0  0  -0.098813  0  3.98052  0  0  -0.099184  0  3.999107  0  0  -0.085217  -0.098465  0  3.968031  0
C  C99  1  0.65197080  0.02811371  0.02692864  1  0  -0.078547  0  3.734042  0  0  -0.099478  0  3.978592  0  0  -0.099939  0  3.997136  0  0  -0.084573  -0.099078  0  3.966115  0
C  C100  1  0.29305648  0.52761251  0.52685284  1  0  -0.076615  0  3.736181  0  0  -0.098938  0  3.980421  0  0  -0.099299  0  3.99899  0  0  -0.085217  -0.098588  0  3.967933  0
C  C101  1  0.34804632  0.97189698  0.97306989  1  0  -0.078436  0  3.733727  0  0  -0.099407  0  3.97827  0  0  -0.099849  0  3.996834  0  0  -0.084663  -0.099014  0  3.965774  0
N  N102  1  0.82909190  0.25775591  0.10430946  1  0  -0.222733  0  2.949426  0  0  -0.211694  0  3.237287  0  0  -0.215287  0  3.248304  0  0  -0.192033  -0.208805  0  3.229595  0
N  N103  1  0.19185864  0.24220469  0.39590179  1  0  -0.22214  0  2.948104  0  0  -0.210642  0  3.236027  0  0  -0.214248  0  3.246988  0  0  -0.191827  -0.207745  0  3.228365  0
N  N104  1  0.17091135  0.74225232  0.89568991  1  0  -0.222726  0  2.949405  0  0  -0.211683  0  3.237259  0  0  -0.215273  0  3.248277  0  0  -0.192052  -0.208794  0  3.229569  0
N  N105  1  0.80814324  0.75778797  0.60409467  1  0  -0.222025  0  2.948331  0  0  -0.210593  0  3.236231  0  0  -0.214199  0  3.247193  0  0  -0.191922  -0.207696  0  3.228566  0
N  N106  1  0.80266948  0.36370770  0.08704071  1  0  -0.088863  0  2.905047  0  0  -0.09046  0  3.203671  0  0  -0.085985  0  3.213258  0  0  -0.081524  -0.093153  0  3.196945  0
N  N107  1  0.25402268  0.13625922  0.41317613  1  0  -0.089975  0  2.906056  0  0  -0.091736  0  3.204387  0  0  -0.087252  0  3.213969  0  0  -0.081973  -0.094437  0  3.197659  0
N  N108  1  0.19734059  0.63630054  0.91296346  1  0  -0.089052  0  2.904879  0  0  -0.090655  0  3.203511  0  0  -0.086181  0  3.213097  0  0  -0.081575  -0.093348  0  3.196787  0
N  N109  1  0.74597613  0.86373426  0.58681858  1  0  -0.089851  0  2.906196  0  0  -0.091615  0  3.204567  0  0  -0.087129  0  3.21414  0  0  -0.081775  -0.094315  0  3.197839  0
N  N110  1  0.74185294  0.40496613  0.16259436  1  0  -0.050176  0  3.553073  0  0  0.027394  0  3.789316  0  0  0.012809  0  3.815  0  0  -0.144295  0.037046  0  3.771896  0
N  N111  1  0.30972761  0.09500013  0.33762333  1  0  -0.050514  0  3.557214  0  0  0.027523  0  3.793005  0  0  0.012872  0  3.818748  0  0  -0.144012  0.037223  0  3.775536  0
N  N112  1  0.25815139  0.59503884  0.83741019  1  0  -0.049913  0  3.552875  0  0  0.027687  0  3.789098  0  0  0.013106  0  3.814785  0  0  -0.144282  0.037343  0  3.771673  0
N  N113  1  0.69027321  0.90499335  0.66237227  1  0  -0.050791  0  3.557609  0  0  0.027206  0  3.793372  0  0  0.012599  0  3.819138  0  0  -0.144163  0.036898  0  3.775918  0
N  N114  1  0.50329341  0.57880605  0.15196342  1  0  -0.069371  0  3.582551  0  0  0.017876  0  3.809578  0  0  0.003337  0  3.834774  0  0  -0.238359  0.027523  0  3.792419  0
N  N115  1  0.23410176  0.92112597  0.34827998  1  0  -0.07027  0  3.581461  0  0  0.016215  0  3.809551  0  0  0.001689  0  3.834617  0  0  -0.239284  0.025851  0  3.792485  0
N  N116  1  0.49671418  0.42119646  0.84804510  1  0  -0.069089  0  3.582362  0  0  0.018148  0  3.809388  0  0  0.003616  0  3.834588  0  0  -0.238261  0.027789  0  3.792236  0
N  N117  1  0.76589295  0.07886833  0.65171697  1  0  -0.070266  0  3.581593  0  0  0.016156  0  3.809645  0  0  0.001674  0  3.834716  0  0  -0.239292  0.025787  0  3.792591  0
N  N118  1  0.19342421  0.67150735  0.18281335  1  0  -0.377329  0  3.298555  0  0  -0.296521  0  3.588588  0  0  -0.317018  0  3.602237  0  0  -0.355046  -0.282648  0  3.579088  0
N  N119  1  0.04808706  0.82813524  0.31737084  1  0  -0.37761  0  3.301875  0  0  -0.296584  0  3.591617  0  0  -0.317114  0  3.605254  0  0  -0.354796  -0.282693  0  3.582104  0
N  N120  1  0.80658376  0.32849106  0.81719420  1  0  -0.377259  0  3.298447  0  0  -0.296445  0  3.588485  0  0  -0.316943  0  3.602143  0  0  -0.355075  -0.282574  0  3.578985  0
N  N121  1  0.95189829  0.17186152  0.68262835  1  0  -0.377503  0  3.301615  0  0  -0.296508  0  3.591385  0  0  -0.317038  0  3.605032  0  0  -0.354756  -0.282617  0  3.581872  0
O  O122  1  0.60977402  0.75759973  0.37368151  1  0  -0.617012  0  1.929734  0  0  -0.573604  0  2.163499  0  0  -0.596635  0  2.154865  0  0  -0.32198  -0.557419  0  2.168853  0
O  O123  1  0.74249384  0.74259410  0.12603139  1  0  -0.618694  0  1.930869  0  0  -0.574789  0  2.163778  0  0  -0.597832  0  2.155096  0  0  -0.32267  -0.558616  0  2.169189  0
O  O124  1  0.39022951  0.24239539  0.62631628  1  0  -0.617179  0  1.929358  0  0  -0.573751  0  2.163128  0  0  -0.596779  0  2.154489  0  0  -0.322047  -0.557565  0  2.168493  0
O  O125  1  0.25751752  0.25741742  0.87397400  1  0  -0.618872  0  1.930536  0  0  -0.574926  0  2.163561  0  0  -0.597967  0  2.154868  0  0  -0.322796  -0.558755  0  2.168974  0
O  O126  1  0.85035513  0.61895305  0.32562783  1  0  -0.650061  0  2.01706  0  0  -0.579401  0  2.278997  0  0  -0.608001  0  2.26425  0  0  -0.335115  -0.55929  0  2.288297  0
O  O127  1  0.79566644  0.88129422  0.17436297  1  0  -0.649974  0  2.0144  0  0  -0.579785  0  2.276051  0  0  -0.608351  0  2.261294  0  0  -0.334917  -0.559732  0  2.285425  0
O  O128  1  0.14962625  0.38103715  0.67436741  1  0  -0.650031  0  2.01724  0  0  -0.57941  0  2.279237  0  0  -0.608021  0  2.26452  0  0  -0.335073  -0.559304  0  2.288549  0
O  O129  1  0.20434786  0.11871894  0.82563847  1  0  -0.650019  0  2.014242  0  0  -0.579758  0  2.275954  0  0  -0.608316  0  2.261181  0  0  -0.334975  -0.559709  0  2.285333  0
