# generated using pymatgen
data_MnH9C5SNO5
_symmetry_space_group_name_H-M   'P 1'
_cell_length_a   5.02003183
_cell_length_b   8.62013422
_cell_length_c   9.54779044
_cell_angle_alpha   90.00057255
_cell_angle_beta   89.99957626
_cell_angle_gamma   94.85187531
_symmetry_Int_Tables_number   1
_chemical_formula_structural   MnH9C5SNO5
_chemical_formula_sum   'Mn2 H18 C10 S2 N2 O10'
_cell_volume   411.68436222
_cell_formula_units_Z   2
loop_
 _symmetry_equiv_pos_site_id
 _symmetry_equiv_pos_as_xyz
  1  'x, y, z'
loop_
 _atom_site_type_symbol
 _atom_site_label
 _atom_site_symmetry_multiplicity
 _atom_site_fract_x
 _atom_site_fract_y
 _atom_site_fract_z
 _atom_site_occupancy
 _atom_site_pbe_cm5_charge
 _atom_site_pbe_ddec_charge
 _atom_site_pbe_ddec_spin_density
 _atom_site_pbe_ddec_sum_bond_order
 _atom_site_pbe_magmom
Mn  Mn0  1  0.19881665  0.41775734  0.45611020  1  0.58804  1.012356  4.695757  2.194737  4.497
Mn  Mn1  1  0.80120857  0.58225965  0.95609883  1  0.588102  1.012558  4.695677  2.194585  4.497
H  H2  1  0.74337074  0.53337082  0.56574243  1  0.298919  0.382265  0.000681  0.963602  0.002
H  H3  1  0.25665282  0.46662118  0.06572995  1  0.298879  0.382204  0.000681  0.963711  0.002
H  H4  1  0.99098099  0.63081457  0.62748236  1  0.294597  0.377736  0.000689  0.966714  0.002
H  H5  1  0.00903738  0.36918970  0.12747199  1  0.294533  0.377661  0.000689  0.966762  0.002
H  H6  1  0.24796407  0.13738987  0.55954534  1  0.283426  0.260164  0.001155  1.002617  0.001
H  H7  1  0.75203367  0.86260201  0.05954826  1  0.28341  0.260121  0.001156  1.002592  0.001
H  H8  1  0.93279975  0.16185684  0.60417861  1  0.280335  0.262842  0.001262  1.002138  0.002
H  H9  1  0.06718340  0.83814945  0.10418590  1  0.280283  0.262761  0.001263  1.002108  0.002
H  H10  1  0.03958117  0.30601770  0.79735020  1  0.124201  0.102813  0.00041  0.985309  0.001
H  H11  1  0.96038743  0.69399056  0.29734454  1  0.124223  0.102885  0.00041  0.985368  0.001
H  H12  1  0.10729085  0.02576465  0.83648456  1  0.093523  0.109803  3.4e-05  1.033249  0.0
H  H13  1  0.89267027  0.97423702  0.33647541  1  0.093524  0.109849  3.4e-05  1.033452  0.0
H  H14  1  0.30412048  0.15713869  0.94566398  1  0.098827  0.116134  0.000548  1.02279  0.001
H  H15  1  0.69581058  0.84287336  0.44565960  1  0.09881  0.116089  0.000548  1.022911  0.001
H  H16  1  0.31914105  0.86472089  0.61627577  1  0.099671  0.129252  -3e-06  0.995657  0.0
H  H17  1  0.68088662  0.13527746  0.11626502  1  0.099757  0.129328  -3e-06  0.995599  0.0
H  H18  1  0.62262878  0.79078753  0.67497538  1  0.112721  0.148442  0.000706  1.003436  0.0
H  H19  1  0.37741881  0.20923125  0.17496326  1  0.112665  0.148261  0.000705  1.003671  0.0
C  C20  1  0.43675736  0.38482087  0.74584996  1  0.232185  0.590263  0.015416  4.086828  0.014
C  C21  1  0.56323059  0.61516362  0.24583875  1  0.232211  0.590378  0.015414  4.086615  0.014
C  C22  1  0.20846425  0.25395586  0.74670652  1  -0.001758  0.036526  0.003785  3.890316  0.003
C  C23  1  0.79152048  0.74604842  0.24669881  1  -0.001807  0.036217  0.003787  3.890499  0.003
C  C24  1  0.27399716  0.11675293  0.83763676  1  -0.15771  -0.239215  0.001855  3.91087  0.002
C  C25  1  0.72596991  0.88324876  0.33763473  1  -0.157731  -0.239263  0.001856  3.91125  0.002
C  C26  1  0.44411044  0.84645475  0.70807785  1  -0.156312  -0.352852  0.001614  3.912794  0.001
C  C27  1  0.55591136  0.15353988  0.20807400  1  -0.156338  -0.352798  0.001614  3.912748  0.001
C  C28  1  0.29588684  0.74221148  0.81606703  1  0.21825  0.65086  0.019136  4.14429  0.017
C  C29  1  0.70410012  0.25778770  0.31607616  1  0.218034  0.650617  0.019117  4.144751  0.017
S  S30  1  0.57608294  0.03024934  0.78346308  1  -0.007473  0.017162  0.002722  2.71887  0.002
S  S31  1  0.42390942  0.96975650  0.28345246  1  -0.007449  0.017228  0.002719  2.718922  0.002
N  N32  1  0.12446949  0.21360381  0.60260299  1  -0.619758  -0.60613  0.038917  3.367929  0.021
N  N33  1  0.87552616  0.78639201  0.10260372  1  -0.619679  -0.605868  0.038917  3.36788  0.021
O  O34  1  0.92611986  0.57779974  0.53986301  1  -0.569796  -0.752309  0.046946  2.141009  0.03
O  O35  1  0.07389672  0.42219663  0.03985184  1  -0.569743  -0.752267  0.046943  2.141049  0.03
O  O36  1  0.43956171  0.48396986  0.64678245  1  -0.293973  -0.550983  0.043123  2.345037  0.034
O  O37  1  0.56044664  0.51602179  0.14675674  1  -0.294007  -0.551077  0.043126  2.345165  0.034
O  O38  1  0.60368451  0.38992070  0.84588015  1  -0.304381  -0.537147  0.041221  2.30345  0.024
O  O39  1  0.39632320  0.61005904  0.34585798  1  -0.304379  -0.537039  0.041225  2.303438  0.024
O  O40  1  0.41891007  0.69985176  0.92232157  1  -0.301137  -0.574118  0.036104  2.321355  0.021
O  O41  1  0.58111333  0.30014859  0.42231686  1  -0.300969  -0.573779  0.036088  2.321836  0.021
O  O42  1  0.04451647  0.70570362  0.79436388  1  -0.312406  -0.583989  0.047979  2.289284  0.029
O  O43  1  0.95549140  0.29428606  0.29435356  1  -0.312319  -0.583941  0.047971  2.288964  0.029
