# generated using pymatgen
data_Cd2H17C29N2O9
_symmetry_space_group_name_H-M   'P 1'
_cell_length_a   8.34558902
_cell_length_b   11.04630125
_cell_length_c   14.17047907
_cell_angle_alpha   70.47765027
_cell_angle_beta   87.29237530
_cell_angle_gamma   84.71014389
_symmetry_Int_Tables_number   1
_chemical_formula_structural   Cd2H17C29N2O9
_chemical_formula_sum   'Cd4 H34 C58 N4 O18'
_cell_volume   1225.81455555
_cell_formula_units_Z   2
loop_
 _symmetry_equiv_pos_site_id
 _symmetry_equiv_pos_as_xyz
  1  'x, y, z'
loop_
 _atom_site_type_symbol
 _atom_site_label
 _atom_site_symmetry_multiplicity
 _atom_site_fract_x
 _atom_site_fract_y
 _atom_site_fract_z
 _atom_site_occupancy
 _atom_site_hle17_bader_spin_density
 _atom_site_hle17_ddec_charge
 _atom_site_hle17_ddec_spin_density
 _atom_site_hle17_ddec_sum_bond_order
 _atom_site_hle17_magmom
 _atom_site_hse06_10hf_bader_spin_density
 _atom_site_hse06_10hf_ddec_charge
 _atom_site_hse06_10hf_ddec_spin_density
 _atom_site_hse06_10hf_ddec_sum_bond_order
 _atom_site_hse06_10hf_magmom
 _atom_site_hse06_bader_spin_density
 _atom_site_hse06_ddec_charge
 _atom_site_hse06_ddec_spin_density
 _atom_site_hse06_ddec_sum_bond_order
 _atom_site_hse06_magmom
 _atom_site_pbe_bader_spin_density
 _atom_site_pbe_cm5_charge
 _atom_site_pbe_ddec_charge
 _atom_site_pbe_ddec_spin_density
 _atom_site_pbe_ddec_sum_bond_order
 _atom_site_pbe_magmom
Cd  Cd0  1  0.45489515  0.18047513  0.51047147  1  0  1.267516  0  1.535398  0  0  1.097123  0  1.971178  0  0  1.158859  0  1.910315  0  0  0.787143  1.052422  0  2.013328  0
Cd  Cd1  1  0.54510494  0.81952510  0.48952817  1  0  1.267526  0  1.53539  0  0  1.097132  0  1.971174  0  0  1.158865  0  1.910313  0  0  0.787153  1.052431  0  2.013325  0
Cd  Cd2  1  0.94759050  0.33764733  0.49328658  1  0  1.223155  0  1.612738  0  0  1.040269  0  2.057298  0  0  1.097434  0  2.002441  0  0  0.80242  0.999229  0  2.094944  0
Cd  Cd3  1  0.05240958  0.66235291  0.50671377  1  0  1.223151  0  1.612752  0  0  1.040261  0  2.057309  0  0  1.097424  0  2.002453  0  0  0.802424  0.999223  0  2.094955  0
H  H4  1  0.87823265  0.75554445  0.20730322  1  0  0.096481  0  0.967108  0  0  0.103685  0  1.032799  0  0  0.106408  0  1.032866  0  0  0.103437  0.10169  0  1.032998  0
H  H5  1  0.12176624  0.24445579  0.79269717  1  0  0.09653  0  0.96709  0  0  0.103713  0  1.032805  0  0  0.106436  0  1.032875  0  0  0.103444  0.101718  0  1.033005  0
H  H6  1  0.87713473  0.71415455  0.04507745  1  0  0.093837  0  0.964417  0  0  0.105648  0  1.025712  0  0  0.108332  0  1.024568  0  0  0.103884  0.103753  0  1.026499  0
H  H7  1  0.12286546  0.28584471  0.95492315  1  0  0.093825  0  0.964429  0  0  0.105638  0  1.025722  0  0  0.108319  0  1.024583  0  0  0.103882  0.103742  0  1.026508  0
H  H8  1  0.62990721  0.37285041  0.18855986  1  0  0.109337  0  0.95053  0  0  0.117173  0  1.017086  0  0  0.119972  0  1.016486  0  0  0.110087  0.115147  0  1.017661  0
H  H9  1  0.37009407  0.62714982  0.81143974  1  0  0.109329  0  0.950532  0  0  0.117165  0  1.017084  0  0  0.119964  0  1.016484  0  0  0.110082  0.115139  0  1.017659  0
H  H10  1  0.88487597  0.56619533  0.82286930  1  0  0.106955  0  0.955089  0  0  0.112375  0  1.024995  0  0  0.115744  0  1.02283  0  0  0.106769  0.109906  0  1.02659  0
H  H11  1  0.11512301  0.43380393  0.17713062  1  0  0.10701  0  0.955015  0  0  0.112421  0  1.024936  0  0  0.11579  0  1.022771  0  0  0.106791  0.10995  0  1.026533  0
H  H12  1  0.44802730  0.89529532  0.83569481  1  0  0.096689  0  0.97557  0  0  0.108441  0  1.033765  0  0  0.110776  0  1.034359  0  0  0.101815  0.10671  0  1.033633  0
H  H13  1  0.55197269  0.10470588  0.16430599  1  0  0.096694  0  0.9756  0  0  0.108452  0  1.033785  0  0  0.110788  0  1.034378  0  0  0.101817  0.106723  0  1.033653  0
H  H14  1  0.52909551  0.72081666  0.99147028  1  0  0.088968  0  0.971298  0  0  0.098587  0  1.035593  0  0  0.10068  0  1.035704  0  0  0.100619  0.097083  0  1.035492  0
H  H15  1  0.47090468  0.27918261  0.00853031  1  0  0.088979  0  0.971278  0  0  0.098616  0  1.035551  0  0  0.100711  0  1.035665  0  0  0.100628  0.097111  0  1.035454  0
H  H16  1  0.73490276  0.44141409  0.61972899  1  0  0.146504  0  0.952293  0  0  0.165229  0  1.012459  0  0  0.167792  0  1.011152  0  0  0.102262  0.163348  0  1.01343  0
H  H17  1  0.26509862  0.55858518  0.38027016  1  0  0.146518  0  0.952262  0  0  0.165224  0  1.01247  0  0  0.167788  0  1.011162  0  0  0.102262  0.163344  0  1.013441  0
H  H18  1  0.75564329  0.43537169  0.74482264  1  0  0.141337  0  0.938267  0  0  0.160111  0  1.001105  0  0  0.162359  0  1.00008  0  0  0.103759  0.158879  0  1.001285  0
H  H19  1  0.24435800  0.56462854  0.25517696  1  0  0.14132  0  0.938307  0  0  0.1601  0  1.001141  0  0  0.162348  0  1.000117  0  0  0.103743  0.158867  0  1.001322  0
H  H20  1  0.59102802  0.36743352  0.71205191  1  0  0.135993  0  0.94457  0  0  0.154598  0  1.006593  0  0  0.15641  0  1.00666  0  0  0.101036  0.153283  0  1.006584  0
H  H21  1  0.40897216  0.63256575  0.28794728  1  0  0.135987  0  0.944608  0  0  0.154608  0  1.006613  0  0  0.156421  0  1.006678  0  0  0.101037  0.153292  0  1.006605  0
H  H22  1  0.11681136  0.03682926  0.58856482  1  0  0.123238  0  0.962282  0  0  0.134771  0  1.019914  0  0  0.138382  0  1.017085  0  0  0.106189  0.132117  0  1.022084  0
H  H23  1  0.88318982  0.96317194  0.41143524  1  0  0.123262  0  0.962231  0  0  0.134776  0  1.01989  0  0  0.138386  0  1.017062  0  0  0.106192  0.132123  0  1.022059  0
H  H24  1  0.19892200  0.82138538  0.71021323  1  0  0.094181  0  0.956817  0  0  0.10463  0  1.018224  0  0  0.107191  0  1.017667  0  0  0.096905  0.102738  0  1.018751  0
H  H25  1  0.80107928  0.17861485  0.28978567  1  0  0.09418  0  0.95687  0  0  0.104649  0  1.018242  0  0  0.107211  0  1.017684  0  0  0.096902  0.102757  0  1.018769  0
H  H26  1  0.10065856  0.75593167  0.88604095  1  0  0.095309  0  0.997974  0  0  0.101805  0  1.065413  0  0  0.105291  0  1.063319  0  0  0.092699  0.099228  0  1.067144  0
H  H27  1  0.89934171  0.24406664  0.11395849  1  0  0.095264  0  0.998028  0  0  0.10179  0  1.065423  0  0  0.105275  0  1.063328  0  0  0.092702  0.099212  0  1.067154  0
H  H28  1  0.91068523  0.90599982  0.94607542  1  0  0.089201  0  0.986204  0  0  0.097942  0  1.055623  0  0  0.100471  0  1.054536  0  0  0.095123  0.09613  0  1.056429  0
H  H29  1  0.08931486  0.09400041  0.05392493  1  0  0.089194  0  0.986196  0  0  0.097936  0  1.055613  0  0  0.100466  0  1.054525  0  0  0.095121  0.096123  0  1.056418  0
H  H30  1  0.70646046  0.27093205  0.89117593  1  0  0.095796  0  0.925973  0  0  0.112075  0  0.986125  0  0  0.113292  0  0.984773  0  0  0.119736  0.111076  0  0.987284  0
H  H31  1  0.29353843  0.72906818  0.10882375  1  0  0.095806  0  0.925966  0  0  0.112081  0  0.986112  0  0  0.113298  0  0.98476  0  0  0.119741  0.111084  0  0.98727  0
H  H32  1  0.85161270  0.15057341  0.95671662  1  0  0.07893  0  0.93147  0  0  0.095115  0  0.994645  0  0  0.095476  0  0.994588  0  0  0.111253  0.0948  0  0.994763  0
H  H33  1  0.14838738  0.84942682  0.04328373  1  0  0.078937  0  0.931504  0  0  0.095134  0  0.994647  0  0  0.095494  0  0.99459  0  0  0.111256  0.094819  0  0.994764  0
H  H34  1  0.45557581  0.16216650  0.83065151  1  0  0.103152  0  0.947701  0  0  0.113669  0  1.008866  0  0  0.116661  0  1.007642  0  0  0.103945  0.111473  0  1.009851  0
H  H35  1  0.54442318  0.83783277  0.16934842  1  0  0.103167  0  0.947647  0  0  0.113683  0  1.008817  0  0  0.116674  0  1.007593  0  0  0.103946  0.111487  0  1.009802  0
H  H36  1  0.75871193  0.97901854  0.08537345  1  0  0.083809  0  0.976873  0  0  0.09382  0  1.04202  0  0  0.095887  0  1.042445  0  0  0.097056  0.092303  0  1.041868  0
H  H37  1  0.24128825  0.02098073  0.91462715  1  0  0.083817  0  0.976866  0  0  0.093829  0  1.042012  0  0  0.095896  0  1.042437  0  0  0.097057  0.092312  0  1.041859  0
C  C38  1  0.61130157  0.38358942  0.37317625  1  0  0.65273  0  3.903145  0  0  0.600459  0  4.193846  0  0  0.635678  0  4.186937  0  0  0.206205  0.576525  0  4.197672  0
C  C39  1  0.38869852  0.61641081  0.62682339  1  0  0.652645  0  3.903179  0  0  0.600426  0  4.193829  0  0  0.635644  0  4.186919  0  0  0.206258  0.576493  0  4.197655  0
C  C40  1  0.69148822  0.47624367  0.28481624  1  0  -0.063091  0  3.716812  0  0  -0.047182  0  3.952118  0  0  -0.052431  0  3.969991  0  0  -0.006523  -0.044076  0  3.940547  0
C  C41  1  0.30851436  0.52375559  0.71518287  1  0  -0.063079  0  3.716798  0  0  -0.047247  0  3.952138  0  0  -0.052495  0  3.970009  0  0  -0.006559  -0.044143  0  3.940569  0
C  C42  1  0.76145456  0.58481787  0.29006195  1  0  -0.050495  0  3.691451  0  0  -0.036766  0  3.927029  0  0  -0.038664  0  3.943822  0  0  -0.002459  -0.03567  0  3.916215  0
C  C43  1  0.23854302  0.41518332  0.70993680  1  0  -0.05053  0  3.69154  0  0  -0.036731  0  3.927052  0  0  -0.038628  0  3.94385  0  0  -0.00245  -0.035634  0  3.916237  0
C  C44  1  0.75565620  0.62287886  0.38315483  1  0  0.692103  0  3.870343  0  0  0.632048  0  4.176505  0  0  0.66789  0  4.167246  0  0  0.221105  0.607444  0  4.182151  0
C  C45  1  0.24434029  0.37712136  0.61684492  1  0  0.692215  0  3.870292  0  0  0.632132  0  4.176477  0  0  0.667965  0  4.167228  0  0  0.221138  0.60753  0  4.18212  0
C  C46  1  0.82821947  0.66973350  0.20319715  1  0  -0.07929  0  3.730937  0  0  -0.100696  0  3.985633  0  0  -0.103035  0  4.004849  0  0  -0.086069  -0.099334  0  3.973025  0
C  C47  1  0.17177942  0.33026673  0.79680183  1  0  -0.079362  0  3.730973  0  0  -0.100777  0  3.985666  0  0  -0.103115  0  4.004878  0  0  -0.086103  -0.099415  0  3.973059  0
C  C48  1  0.82532015  0.64785959  0.11235089  1  0  -0.070174  0  3.733923  0  0  -0.096172  0  3.987846  0  0  -0.095259  0  4.006777  0  0  -0.078868  -0.096535  0  3.974942  0
C  C49  1  0.17467874  0.35214064  0.88764879  1  0  -0.070134  0  3.733906  0  0  -0.096129  0  3.987818  0  0  -0.095216  0  4.006747  0  0  -0.078849  -0.096492  0  3.974916  0
C  C50  1  0.75508298  0.54000688  0.10634992  1  0  -0.035259  0  3.769247  0  0  -0.01657  0  4.004568  0  0  -0.022614  0  4.026794  0  0  -0.015942  -0.012531  0  3.989565  0
C  C51  1  0.24491961  0.45999239  0.89364990  1  0  -0.035278  0  3.769229  0  0  -0.016564  0  4.004567  0  0  -0.022606  0  4.026794  0  0  -0.015961  -0.012524  0  3.989564  0
C  C52  1  0.68851262  0.45501585  0.19284565  1  0  -0.05957  0  3.65084  0  0  -0.092398  0  3.898181  0  0  -0.090272  0  3.915131  0  0  -0.066011  -0.093756  0  3.887009  0
C  C53  1  0.31148747  0.54498438  0.80715399  1  0  -0.059548  0  3.650793  0  0  -0.092359  0  3.89814  0  0  -0.090232  0  3.915089  0  0  -0.065991  -0.093716  0  3.886969  0
C  C54  1  0.75240833  0.51756028  0.00824823  1  0  0.398882  0  3.719979  0  0  0.379254  0  3.978999  0  0  0.401792  0  3.980792  0  0  0.16637  0.363611  0  3.978098  0
C  C55  1  0.24758935  0.48243994  0.99175078  1  0  0.398992  0  3.719838  0  0  0.379272  0  3.978981  0  0  0.401806  0  3.980775  0  0  0.16641  0.36363  0  3.978077  0
C  C56  1  0.71322446  0.63093249  0.91789095  1  0  -0.057105  0  3.802827  0  0  -0.038171  0  4.040996  0  0  -0.046788  0  4.065609  0  0  -0.023327  -0.032792  0  4.024432  0
C  C57  1  0.28677562  0.36906774  0.08210869  1  0  -0.057132  0  3.802858  0  0  -0.038167  0  4.04103  0  0  -0.046779  0  4.065638  0  0  -0.023314  -0.032789  0  4.024465  0
C  C58  1  0.78993493  0.63910272  0.82650248  1  0  -0.052426  0  3.677615  0  0  -0.090142  0  3.932168  0  0  -0.086627  0  3.949193  0  0  -0.067578  -0.091808  0  3.920052  0
C  C59  1  0.21006515  0.36089751  0.17349716  1  0  -0.052472  0  3.677559  0  0  -0.090181  0  3.93211  0  0  -0.086666  0  3.949133  0  0  -0.067609  -0.091847  0  3.919992  0
C  C60  1  0.74977487  0.74082088  0.73881727  1  0  -0.066165  0  3.703282  0  0  -0.048503  0  3.934271  0  0  -0.056877  0  3.954926  0  0  -0.006942  -0.043436  0  3.920512  0
C  C61  1  0.25022521  0.25917935  0.26118307  1  0  -0.066163  0  3.70326  0  0  -0.048533  0  3.934238  0  0  -0.056907  0  3.954892  0  0  -0.006971  -0.043462  0  3.920474  0
C  C62  1  0.62555039  0.83468843  0.74233175  1  0  -0.00613  0  3.646102  0  0  0.00403  0  3.881129  0  0  0.004366  0  3.897429  0  0  0.012439  0.00367  0  3.870697  0
C  C63  1  0.37445080  0.16531277  0.25766902  1  0  -0.006164  0  3.64612  0  0  0.004018  0  3.881137  0  0  0.004355  0  3.897435  0  0  0.012439  0.003656  0  3.870704  0
C  C64  1  0.54653251  0.82453269  0.83379659  1  0  -0.086383  0  3.720185  0  0  -0.108221  0  3.972836  0  0  -0.112105  0  3.992763  0  0  -0.085493  -0.106117  0  3.960072  0
C  C65  1  0.45346758  0.17546754  0.16620446  1  0  -0.086417  0  3.720173  0  0  -0.108263  0  3.97281  0  0  -0.112146  0  3.992737  0  0  -0.085515  -0.106161  0  3.960046  0
C  C66  1  0.59168097  0.72608242  0.92125223  1  0  -0.06186  0  3.73581  0  0  -0.088828  0  3.990579  0  0  -0.087422  0  4.011266  0  0  -0.078362  -0.089409  0  3.976601  0
C  C67  1  0.40831911  0.27391781  0.07874742  1  0  -0.061821  0  3.735746  0  0  -0.0888  0  3.990497  0  0  -0.087399  0  4.011186  0  0  -0.078336  -0.089382  0  3.976517  0
C  C68  1  0.83768380  0.74055993  0.64443405  1  0  0.671565  0  3.887227  0  0  0.618024  0  4.177868  0  0  0.654761  0  4.169909  0  0  0.211139  0.593115  0  4.182201  0
C  C69  1  0.16231518  0.25943934  0.35556658  1  0  0.671457  0  3.887412  0  0  0.617976  0  4.177967  0  0  0.654714  0  4.170009  0  0  0.211132  0.593064  0  4.1823  0
C  C70  1  0.56374175  0.94770310  0.65483791  1  0  0.659183  0  3.906996  0  0  0.604018  0  4.206936  0  0  0.639737  0  4.19883  0  0  0.206335  0.579572  0  4.211572  0
C  C71  1  0.43625713  0.05229713  0.34516247  1  0  0.659236  0  3.907087  0  0  0.604056  0  4.207038  0  0  0.639776  0  4.198932  0  0  0.206356  0.57961  0  4.211673  0
C  C72  1  0.71971164  0.38120083  0.69797272  1  0  -0.39871  0  3.693003  0  0  -0.478701  0  3.932201  0  0  -0.483202  0  3.936602  0  0  -0.234809  -0.47546  0  3.928475  0
C  C73  1  0.28029104  0.61879748  0.30202735  1  0  -0.398721  0  3.69307  0  0  -0.47873  0  3.932279  0  0  -0.483232  0  3.936678  0  0  -0.234811  -0.47549  0  3.928553  0
C  C74  1  0.81431127  0.25561602  0.71828807  1  0  0.425183  0  3.685322  0  0  0.395856  0  3.962785  0  0  0.41677  0  3.973701  0  0  0.237981  0.382314  0  3.954546  0
C  C75  1  0.18569132  0.74438325  0.28171316  1  0  0.425216  0  3.685264  0  0  0.39585  0  3.962762  0  0  0.416764  0  3.97368  0  0  0.237986  0.382309  0  3.954523  0
C  C76  1  0.97078434  0.09303637  0.70034477  1  0  0.160814  0  3.847607  0  0  0.154192  0  4.100978  0  0  0.158827  0  4.123522  0  0  0.083903  0.150855  0  4.085824  0
C  C77  1  0.02921584  0.90696290  0.29965512  1  0  0.160639  0  3.847756  0  0  0.154053  0  4.101065  0  0  0.158688  0  4.12361  0  0  0.08381  0.150716  0  4.085912  0
C  C78  1  0.07343974  0.00896457  0.66595397  1  0  -0.13193  0  3.703941  0  0  -0.150173  0  3.949473  0  0  -0.152046  0  3.967796  0  0  -0.091311  -0.148695  0  3.937118  0
C  C79  1  0.92656044  0.99103470  0.33404662  1  0  -0.131845  0  3.703902  0  0  -0.150088  0  3.949428  0  0  -0.151959  0  3.967748  0  0  -0.091259  -0.14861  0  3.937073  0
C  C80  1  0.11821969  0.88844939  0.73493169  1  0  -0.061702  0  3.759002  0  0  -0.078521  0  4.014905  0  0  -0.081223  0  4.038084  0  0  -0.09874  -0.076778  0  3.99914  0
C  C81  1  0.88177920  0.11155084  0.26506869  1  0  -0.06173  0  3.758961  0  0  -0.078564  0  4.014873  0  0  -0.081266  0  4.038051  0  0  -0.098739  -0.076821  0  3.999108  0
C  C82  1  0.06195379  0.85131502  0.83493177  1  0  -0.083093  0  3.787698  0  0  -0.099134  0  4.045148  0  0  -0.102033  0  4.068794  0  0  -0.103986  -0.097077  0  4.0289  0
C  C83  1  0.93804759  0.14868425  0.16506739  1  0  -0.083066  0  3.787635  0  0  -0.099123  0  4.045078  0  0  -0.102022  0  4.068722  0  0  -0.103995  -0.097066  0  4.028826  0
C  C84  1  0.95837397  0.93440295  0.86962130  1  0  -0.171421  0  3.802159  0  0  -0.190584  0  4.063265  0  0  -0.194426  0  4.085014  0  0  -0.108258  -0.187655  0  4.048141  0
C  C85  1  0.04162501  0.06559632  0.13037863  1  0  -0.171393  0  3.802163  0  0  -0.190557  0  4.063286  0  0  -0.194399  0  4.085034  0  0  -0.108248  -0.187627  0  4.048159  0
C  C86  1  0.91468631  0.05540215  0.80079721  1  0  0.09898  0  3.807225  0  0  0.087158  0  4.057952  0  0  0.091399  0  4.079339  0  0  0.087207  0.084219  0  4.04355  0
C  C87  1  0.08531378  0.94459808  0.19920314  1  0  0.099009  0  3.807235  0  0  0.087159  0  4.057981  0  0  0.0914  0  4.079369  0  0  0.08721  0.08422  0  4.043578  0
C  C88  1  0.75152859  0.17019511  0.90464496  1  0  -0.023165  0  3.64099  0  0  -0.08799  0  3.887122  0  0  -0.082483  0  3.896823  0  0  -0.042679  -0.091555  0  3.880431  0
C  C89  1  0.24847040  0.82980416  0.09535497  1  0  -0.023173  0  3.641046  0  0  -0.087999  0  3.88715  0  0  -0.082491  0  3.896849  0  0  -0.042667  -0.091565  0  3.880457  0
C  C90  1  0.62227119  0.08034429  0.95238022  1  0  0.067009  0  3.735637  0  0  0.084914  0  3.976448  0  0  0.084067  0  4.00036  0  0  -0.0108  0.085495  0  3.96014  0
C  C91  1  0.37772900  0.91965497  0.04761968  1  0  0.066947  0  3.735764  0  0  0.084916  0  3.976482  0  0  0.08407  0  4.000389  0  0  -0.010813  0.085498  0  3.960172  0
C  C92  1  0.47542365  0.09197912  0.90527046  1  0  -0.099939  0  3.726515  0  0  -0.12165  0  3.977181  0  0  -0.123756  0  3.997824  0  0  -0.085815  -0.12005  0  3.963146  0
C  C93  1  0.52457524  0.90802112  0.09472992  1  0  -0.099918  0  3.726513  0  0  -0.12165  0  3.977165  0  0  -0.123757  0  3.997806  0  0  -0.085797  -0.12005  0  3.963131  0
C  C94  1  0.64543151  0.98745711  0.04723363  1  0  -0.118263  0  3.75924  0  0  -0.134145  0  4.003519  0  0  -0.136945  0  4.025285  0  0  -0.089207  -0.132195  0  3.988717  0
C  C95  1  0.35456867  0.01254216  0.95276626  1  0  -0.118275  0  3.759262  0  0  -0.134178  0  4.003519  0  0  -0.136978  0  4.025284  0  0  -0.089213  -0.132228  0  3.988715  0
N  N96  1  0.90648282  0.21833033  0.65160542  1  0  -0.50918  0  3.177699  0  0  -0.437287  0  3.460017  0  0  -0.463245  0  3.473117  0  0  -0.36006  -0.419449  0  3.450487  0
N  N97  1  0.09351727  0.78166991  0.34839493  1  0  -0.509155  0  3.177697  0  0  -0.437232  0  3.459994  0  0  -0.463193  0  3.473097  0  0  -0.360044  -0.419396  0  3.450464  0
N  N98  1  0.81702665  0.16001735  0.80981520  1  0  -0.170021  0  3.461587  0  0  -0.08866  0  3.687259  0  0  -0.106531  0  3.709359  0  0  -0.239487  -0.076754  0  3.672011  0
N  N99  1  0.18297343  0.83998289  0.19018514  1  0  -0.169978  0  3.46153  0  0  -0.088615  0  3.687223  0  0  -0.106485  0  3.709324  0  0  -0.239467  -0.076707  0  3.671973  0
O  O100  1  0.68651006  0.32678283  0.45527212  1  0  -0.675417  0  2.040041  0  0  -0.599206  0  2.298712  0  0  -0.63155  0  2.285008  0  0  -0.329624  -0.576232  0  2.307237  0
O  O101  1  0.31348892  0.67321643  0.54472710  1  0  -0.675359  0  2.040033  0  0  -0.59915  0  2.298663  0  0  -0.63149  0  2.284952  0  0  -0.329613  -0.576178  0  2.307191  0
O  O102  1  0.46919470  0.36066980  0.36273515  1  0  -0.607052  0  2.02146  0  0  -0.543007  0  2.261577  0  0  -0.574275  0  2.256919  0  0  -0.298713  -0.520861  0  2.263662  0
O  O103  1  0.53080549  0.63932947  0.63726545  1  0  -0.60704  0  2.021453  0  0  -0.543019  0  2.261554  0  0  -0.574286  0  2.256896  0  0  -0.298754  -0.520877  0  2.26365  0
O  O104  1  0.84731385  0.55836213  0.45652386  1  0  -0.697829  0  2.084235  0  0  -0.618092  0  2.35876  0  0  -0.650339  0  2.343604  0  0  -0.329571  -0.595118  0  2.368311  0
O  O105  1  0.15268234  0.44164099  0.54347655  1  0  -0.697913  0  2.084261  0  0  -0.618139  0  2.358746  0  0  -0.650399  0  2.343635  0  0  -0.329608  -0.595165  0  2.368297  0
O  O106  1  0.66316038  0.72116812  0.37890068  1  0  -0.613664  0  1.981209  0  0  -0.55246  0  2.235582  0  0  -0.581536  0  2.223075  0  0  -0.303765  -0.531893  0  2.243579  0
O  O107  1  0.33683601  0.27883307  0.62109812  1  0  -0.613703  0  1.981208  0  0  -0.552498  0  2.235594  0  0  -0.581571  0  2.223093  0  0  -0.303759  -0.531932  0  2.243589  0
O  O108  1  0.78043768  0.40848217  0.00171968  1  0  -0.463299  0  1.930256  0  0  -0.420098  0  2.137458  0  0  -0.437152  0  2.13397  0  0  -0.256906  -0.408734  0  2.140067  0
O  O109  1  0.21956341  0.59151999  0.99827942  1  0  -0.463371  0  1.930212  0  0  -0.420127  0  2.137446  0  0  -0.43718  0  2.133957  0  0  -0.256932  -0.408764  0  2.140053  0
O  O110  1  0.95628063  0.65508291  0.65465259  1  0  -0.634461  0  2.02593  0  0  -0.563118  0  2.280572  0  0  -0.595795  0  2.272637  0  0  -0.32028  -0.540288  0  2.285006  0
O  O111  1  0.04371825  0.34491732  0.34534709  1  0  -0.634427  0  2.025958  0  0  -0.563114  0  2.280599  0  0  -0.595791  0  2.272668  0  0  -0.32028  -0.540283  0  2.285033  0
O  O112  1  0.79519955  0.82000742  0.55951385  1  0  -0.68229  0  2.030121  0  0  -0.616562  0  2.285799  0  0  -0.645583  0  2.270775  0  0  -0.327944  -0.596108  0  2.295279  0
O  O113  1  0.20480173  0.17999281  0.44048647  1  0  -0.682221  0  2.030214  0  0  -0.616509  0  2.285859  0  0  -0.645535  0  2.270845  0  0  -0.327932  -0.596056  0  2.295338  0
O  O114  1  0.45289985  0.93185134  0.60171572  1  0  -0.675225  0  2.018127  0  0  -0.605012  0  2.268693  0  0  -0.63854  0  2.258537  0  0  -0.324697  -0.580853  0  2.274437  0
O  O115  1  0.54710143  0.06814890  0.39828389  1  0  -0.675228  0  2.018081  0  0  -0.605017  0  2.268659  0  0  -0.638546  0  2.258507  0  0  -0.3247  -0.580857  0  2.274403  0
O  O116  1  0.61246048  0.05707087  0.64353769  1  0  -0.592219  0  1.946145  0  0  -0.528978  0  2.179388  0  0  -0.559948  0  2.17141  0  0  -0.304607  -0.506925  0  2.184076  0
O  O117  1  0.38753960  0.94292936  0.35646265  1  0  -0.592247  0  1.946258  0  0  -0.528997  0  2.179501  0  0  -0.559967  0  2.171523  0  0  -0.304615  -0.506942  0  2.184188  0
