# generated using pymatgen
data_CuH23C19(NO)5
_symmetry_space_group_name_H-M   'P 1'
_cell_length_a   7.90893189
_cell_length_b   15.79365943
_cell_length_c   18.22500206
_cell_angle_alpha   89.99887490
_cell_angle_beta   87.81059938
_cell_angle_gamma   89.99417301
_symmetry_Int_Tables_number   1
_chemical_formula_structural   CuH23C19(NO)5
_chemical_formula_sum   'Cu4 H92 C76 N20 O20'
_cell_volume   2274.84094999
_cell_formula_units_Z   4
loop_
 _symmetry_equiv_pos_site_id
 _symmetry_equiv_pos_as_xyz
  1  'x, y, z'
loop_
 _atom_site_type_symbol
 _atom_site_label
 _atom_site_symmetry_multiplicity
 _atom_site_fract_x
 _atom_site_fract_y
 _atom_site_fract_z
 _atom_site_occupancy
 _atom_site_pbe_bader_charge
 _atom_site_pbe_bader_spin_density
 _atom_site_pbe_cm5_charge
 _atom_site_pbe_ddec_charge
 _atom_site_pbe_ddec_spin_density
 _atom_site_pbe_ddec_sum_bond_order
 _atom_site_pbe_magmom
Cu  Cu0  1  0.95751698  0.14131626  0.79583441  1  1.026812  -0.535626  0.744233  0.673426  -0.757293  2.230253  -0.535
Cu  Cu1  1  0.54247827  0.64132014  0.70417364  1  1.027093  0.535915  0.744467  0.673995  0.714074  2.229893  0.535
Cu  Cu2  1  0.04248423  0.85867904  0.20416489  1  1.026841  0.535822  0.744319  0.67372  0.713957  2.229894  0.535
Cu  Cu3  1  0.45751516  0.35868782  0.29582900  1  1.026817  0.535703  0.744338  0.673822  0.713785  2.230016  0.535
H  H4  1  0.73470964  0.09859352  0.71854682  1  0.485669  0.000857  0.297643  0.255995  0.000149  0.982087  0.001
H  H5  1  0.76530316  0.59858834  0.78146198  1  0.486053  -0.000856  0.297659  0.256118  -0.000221  0.982038  -0.001
H  H6  1  0.26531550  0.90139545  0.28145399  1  0.48582  -0.000857  0.297676  0.256212  -0.00022  0.981865  -0.001
H  H7  1  0.23470319  0.40142786  0.21853564  1  0.486048  -0.000856  0.297663  0.256086  -0.000219  0.982053  -0.001
H  H8  1  0.84041103  0.09855373  0.95277222  1  0.129348  -0.000245  0.100551  0.153037  -0.000203  1.031841  0.0
H  H9  1  0.65953314  0.59855721  0.54724302  1  0.129233  0.000246  0.10049  0.153064  0.00019  1.031645  0.0
H  H10  1  0.15960159  0.90145740  0.04722646  1  0.129659  0.000243  0.100466  0.152894  0.000184  1.031676  0.0
H  H11  1  0.34043537  0.40144569  0.45275318  1  0.129429  0.000246  0.100444  0.152952  0.00019  1.031392  0.0
H  H12  1  0.84126204  0.00327825  0.00573178  1  0.049066  0.000166  0.093975  0.139151  6.6e-05  1.005627  0.0
H  H13  1  0.65869842  0.50328083  0.49428219  1  0.048715  -0.000184  0.093903  0.139062  -0.000112  1.005667  0.0
H  H14  1  0.15874017  0.99673731  0.99427190  1  0.049914  -0.000159  0.093914  0.139034  -6.4e-05  1.005611  0.0
H  H15  1  0.34126644  0.49672651  0.50571129  1  0.049296  -0.000192  0.093919  0.139026  -0.00012  1.005799  0.0
H  H16  1  0.66739476  0.02763218  0.95106930  1  0.002667  0.000329  0.091205  0.130251  0.000179  1.011574  0.0
H  H17  1  0.83258016  0.52762880  0.54893510  1  0.002888  -0.00033  0.091256  0.130278  -0.000189  1.01139  0.0
H  H18  1  0.33260635  0.97238149  0.04893165  1  0.002683  -0.00033  0.091201  0.130227  -0.000187  1.011638  0.0
H  H19  1  0.16741281  0.47238169  0.45105328  1  0.003141  -0.000335  0.091209  0.130253  -0.000192  1.011523  0.0
H  H20  1  0.88133839  0.84825742  0.92606856  1  0.147061  -0.000877  0.107223  0.160528  -0.00039  1.047137  -0.001
H  H21  1  0.61867137  0.34826533  0.57395780  1  0.146648  0.001367  0.107264  0.160538  0.000808  1.046907  0.001
H  H22  1  0.11865757  0.15174991  0.07395602  1  0.146202  0.000885  0.107244  0.160461  0.000345  1.047057  0.001
H  H23  1  0.38131212  0.65174074  0.42604161  1  0.146941  0.001372  0.107209  0.160532  0.000801  1.047  0.001
H  H24  1  0.94242104  0.78561879  0.73506145  1  0.039912  0.000179  0.096612  0.1438  8.6e-05  1.009253  0.0
H  H25  1  0.55760555  0.28564483  0.76497319  1  0.039653  -0.000176  0.096545  0.143629  -9.2e-05  1.009363  0.0
H  H26  1  0.05758707  0.21435498  0.26497185  1  0.039832  -0.000245  0.096521  0.143645  -0.00014  1.009433  0.0
H  H27  1  0.44237383  0.71436440  0.23503173  1  0.03959  -0.000243  0.096485  0.143589  -0.00014  1.00936  0.0
H  H28  1  0.03628330  0.74968936  0.81584863  1  0.079056  -0.000218  0.10464  0.158919  -0.000124  0.972916  0.0
H  H29  1  0.46376118  0.24971479  0.68418536  1  0.079727  0.000229  0.104571  0.158771  0.000119  0.972927  0.0
H  H30  1  0.96372045  0.25030024  0.18419456  1  0.079872  0.000257  0.104615  0.158772  0.000154  0.972924  0.0
H  H31  1  0.53623866  0.75029000  0.31581559  1  0.07956  0.000267  0.104574  0.158711  0.000156  0.973076  0.0
H  H32  1  0.15947900  0.80656803  0.74958189  1  0.057199  0.000126  0.093725  0.127272  6.3e-05  1.042825  0.0
H  H33  1  0.34054991  0.30660773  0.75043954  1  0.057285  -0.000122  0.093809  0.127445  -6.5e-05  1.042709  0.0
H  H34  1  0.84052652  0.19340891  0.25045252  1  0.057256  -0.0001  0.093847  0.127425  -6.1e-05  1.042556  0.0
H  H35  1  0.65945151  0.69340403  0.24955592  1  0.057242  -9.7e-05  0.093832  0.127439  -6e-05  1.042677  0.0
H  H36  1  0.09902647  0.92164436  0.68114863  1  0.070644  0.0002  0.122167  0.114633  9.9e-05  0.966788  0.0
H  H37  1  0.40101377  0.42167312  0.81887483  1  0.069491  -0.000192  0.122178  0.114669  -9.9e-05  0.966919  0.0
H  H38  1  0.90095510  0.07832308  0.31886231  1  0.070872  -0.000199  0.12217  0.114591  -0.000111  0.967158  0.0
H  H39  1  0.59898857  0.57834181  0.18112666  1  0.070598  -0.000193  0.122142  0.114574  -0.000106  0.966881  0.0
H  H40  1  0.16275253  0.02449048  0.71008578  1  0.136715  0.000169  0.115562  0.110798  0.000123  1.03753  0.0
H  H41  1  0.33725744  0.52452217  0.78993753  1  0.136467  -0.000162  0.115575  0.110967  -0.000128  1.037229  0.0
H  H42  1  0.83725121  0.97547822  0.28991351  1  0.136532  -0.000155  0.115624  0.111  -0.000119  1.037269  0.0
H  H43  1  0.66275179  0.47549023  0.21005404  1  0.136529  -0.000151  0.115641  0.111017  -0.000117  1.037317  0.0
H  H44  1  0.95547558  0.02619506  0.60835602  1  0.030685  -0.002551  0.112525  0.090427  -0.001359  0.962354  -0.001
H  H45  1  0.54453690  0.52622933  0.89165917  1  0.030246  0.002648  0.112426  0.090218  0.001346  0.962628  0.001
H  H46  1  0.04454456  0.97377807  0.39164372  1  0.030576  0.002553  0.112469  0.090341  0.001282  0.96263  0.001
H  H47  1  0.45545974  0.47379066  0.10833138  1  0.030256  0.002648  0.112374  0.09016  0.001347  0.962334  0.001
H  H48  1  0.80390686  0.97468465  0.66715354  1  0.06984  -0.00303  0.109039  0.086129  -0.001664  0.994377  -0.002
H  H49  1  0.69613021  0.47468766  0.83287013  1  0.070137  0.003031  0.108997  0.086173  0.00157  0.994309  0.002
H  H50  1  0.19610554  0.02530685  0.33284899  1  0.070398  0.003049  0.109006  0.086123  0.001584  0.994167  0.002
H  H51  1  0.30389619  0.52532157  0.16713067  1  0.070154  0.00305  0.109006  0.086041  0.001583  0.994472  0.002
H  H52  1  0.75572317  0.21421898  0.65021971  1  0.072048  -0.000153  0.11858  0.104265  0.0  0.97395  0.0
H  H53  1  0.74426462  0.71422593  0.84978364  1  0.071973  0.000158  0.118567  0.104331  -2.5e-05  0.97377  0.0
H  H54  1  0.24428233  0.78575226  0.34977079  1  0.071767  0.000158  0.118524  0.10433  -2.2e-05  0.973676  0.0
H  H55  1  0.25572235  0.28579216  0.15022123  1  0.072105  0.000154  0.118581  0.104213  1e-06  0.973999  0.0
H  H56  1  0.84001051  0.14381479  0.58360815  1  0.089238  -0.005847  0.107526  0.091063  -0.003359  0.984217  -0.004
H  H57  1  0.65997940  0.64381982  0.91639714  1  0.089196  0.005957  0.107522  0.090964  0.003215  0.984228  0.004
H  H58  1  0.15999749  0.85616532  0.41638288  1  0.088472  0.005941  0.107525  0.090997  0.003203  0.984395  0.004
H  H59  1  0.33998180  0.35618308  0.08359416  1  0.088937  0.005872  0.107518  0.090948  0.003188  0.984095  0.004
H  H60  1  0.13380667  0.17532009  0.64581861  1  0.067373  0.000204  0.115587  0.10573  0.000125  0.964641  0.0
H  H61  1  0.36618217  0.67534463  0.85417822  1  0.067287  -0.000177  0.115562  0.105821  -0.000121  0.964879  0.0
H  H62  1  0.86619291  0.82467521  0.35416478  1  0.067572  -0.000178  0.115439  0.105797  -0.000122  0.96465  0.0
H  H63  1  0.63378816  0.32466397  0.14580809  1  0.067728  -0.000202  0.115571  0.105742  -0.000132  0.964967  0.0
H  H64  1  0.04718021  0.24964786  0.58368370  1  0.152619  0.000258  0.119771  0.115825  0.000157  1.02549  0.0
H  H65  1  0.45278783  0.74966512  0.91631616  1  0.152549  -0.000124  0.119761  0.115817  -5.6e-05  1.025535  0.0
H  H66  1  0.95279610  0.75035060  0.41630861  1  0.15269  -0.000122  0.11977  0.115992  -5.4e-05  1.025623  0.0
H  H67  1  0.54718175  0.25033588  0.08368332  1  0.152441  -0.000257  0.119784  0.115804  -0.000162  1.025462  0.0
H  H68  1  0.21072218  0.38239256  0.59061144  1  0.092309  0.000136  0.102877  0.149751  6.3e-05  1.000701  0.0
H  H69  1  0.28925772  0.88241620  0.90939339  1  0.092417  -0.000131  0.102912  0.149818  -6.9e-05  1.000598  0.0
H  H70  1  0.78927055  0.61759388  0.40938132  1  0.092888  -0.000161  0.10288  0.149761  -9.5e-05  1.000731  0.0
H  H71  1  0.71073067  0.11758986  0.09060873  1  0.092464  -0.000166  0.102856  0.149697  -9.4e-05  1.000493  0.0
H  H72  1  0.10767508  0.47633551  0.62203053  1  0.059823  -0.000266  0.097047  0.143011  -0.00016  1.005774  0.0
H  H73  1  0.39228937  0.97635625  0.87797856  1  0.059391  0.000263  0.096974  0.142963  0.00015  1.005719  0.0
H  H74  1  0.89231505  0.52364903  0.37796335  1  0.05947  0.000244  0.096956  0.14293  0.000125  1.005633  0.0
H  H75  1  0.60768091  0.02365298  0.12203080  1  0.059527  0.00025  0.096969  0.142976  0.000129  1.005701  0.0
H  H76  1  0.99410625  0.39794785  0.57356712  1  0.052556  0.000175  0.099959  0.143487  7.5e-05  1.005792  0.0
H  H77  1  0.50588498  0.89795909  0.92643200  1  0.051295  -0.000188  0.100031  0.143642  -0.000128  1.005659  0.0
H  H78  1  0.00588777  0.60203985  0.42642509  1  0.052373  -0.000173  0.100057  0.143682  -0.000117  1.005547  0.0
H  H79  1  0.49409327  0.10204951  0.07357073  1  0.052543  -0.000161  0.100038  0.143653  -6.9e-05  1.005616  0.0
H  H80  1  0.02096308  0.47035278  0.76782534  1  0.115425  -0.000835  0.106267  0.151953  -0.000417  1.015385  -0.001
H  H81  1  0.47900958  0.97036645  0.73216900  1  0.114803  0.000836  0.106341  0.152082  0.000392  1.015246  0.001
H  H82  1  0.97902104  0.52963619  0.23216308  1  0.114845  0.000973  0.106281  0.151968  0.000524  1.015236  0.001
H  H83  1  0.52098621  0.02965037  0.26783637  1  0.114837  0.000972  0.10627  0.151975  0.000524  1.015449  0.001
H  H84  1  0.83276839  0.29558408  0.90084209  1  0.133698  3.7e-05  0.097379  0.156048  9e-06  1.037493  0.0
H  H85  1  0.66722774  0.79558500  0.59916399  1  0.133761  -3.6e-05  0.097327  0.155953  -1.5e-05  1.037635  0.0
H  H86  1  0.16726782  0.70440489  0.09916415  1  0.133891  -2.5e-05  0.097397  0.156103  1e-06  1.037449  0.0
H  H87  1  0.33277197  0.20443689  0.40083917  1  0.133448  -2.6e-05  0.09739  0.156004  -2e-06  1.03766  0.0
H  H88  1  0.88682747  0.40558935  0.89684412  1  0.004878  0.000273  0.086632  0.120977  0.000155  1.011109  0.0
H  H89  1  0.61313805  0.90559144  0.60316104  1  0.004703  -0.000267  0.086705  0.120981  -0.00016  1.010933  0.0
H  H90  1  0.11317250  0.59439645  0.10315464  1  0.004714  3.6e-05  0.086613  0.120898  1.2e-05  1.011009  0.0
H  H91  1  0.38684142  0.09443109  0.39684223  1  0.005135  3.1e-05  0.0867  0.121007  1.1e-05  1.010858  0.0
H  H92  1  0.04100562  0.32815405  0.91657514  1  0.07764  1e-05  0.095272  0.147416  -7.2e-05  0.997857  0.0
H  H93  1  0.45899426  0.82816054  0.58342353  1  0.077817  1.4e-05  0.095273  0.147368  7e-05  0.99788  0.0
H  H94  1  0.95902015  0.67185265  0.08341469  1  0.077793  5.9e-05  0.095364  0.147493  7.9e-05  0.997712  0.0
H  H95  1  0.54100053  0.17185312  0.41657746  1  0.078144  3.4e-05  0.09526  0.147398  6.4e-05  0.997864  0.0
C  C96  1  0.80601671  0.03142778  0.95344558  1  -0.045547  -0.000381  -0.240111  -0.442303  -0.000221  3.940816  0.0
C  C97  1  0.69394677  0.53142485  0.54657033  1  -0.045315  0.00037  -0.239881  -0.442127  0.000179  3.940978  0.0
C  C98  1  0.19398763  0.96858715  0.04656523  1  -0.046606  0.000389  -0.239916  -0.442107  0.000198  3.940947  0.0
C  C99  1  0.30602692  0.46858311  0.45342364  1  -0.045935  0.000359  -0.239789  -0.442043  0.000165  3.940743  0.0
C  C100  1  0.88708794  0.98402468  0.89095849  1  0.414879  -0.00107  0.102536  0.281301  -0.001566  4.007411  -0.002
C  C101  1  0.61291069  0.48402982  0.60904546  1  0.415081  0.001096  0.102516  0.28135  0.001328  4.00744  0.002
C  C102  1  0.11291785  0.01597695  0.10904902  1  0.414913  0.001053  0.102518  0.281405  0.001308  4.007663  0.002
C  C103  1  0.38708213  0.51598005  0.39094565  1  0.414802  0.001073  0.102621  0.281689  0.00131  4.007158  0.002
C  C104  1  0.91274737  0.89600766  0.88481042  1  0.012723  -0.003722  -0.123702  -0.355579  -0.00285  3.939356  -0.003
C  C105  1  0.58725151  0.39600721  0.61521559  1  0.012572  0.004169  -0.123765  -0.355597  0.003013  3.939469  0.003
C  C106  1  0.08725257  0.10399334  0.11521084  1  0.013619  0.003742  -0.12374  -0.355507  0.002668  3.939472  0.003
C  C107  1  0.41275127  0.60400139  0.38477821  1  0.012448  0.00418  -0.123852  -0.356031  0.003009  3.939301  0.003
C  C108  1  0.98402425  0.88191001  0.81499288  1  0.364418  0.000756  0.098554  0.204649  -4.5e-05  4.012895  0.0
C  C109  1  0.51600011  0.38191570  0.68502888  1  0.36442  -0.000686  0.098464  0.204621  -5.9e-05  4.013362  0.001
C  C110  1  0.01597314  0.11808466  0.18502895  1  0.36408  -0.00075  0.098505  0.204483  -0.000101  4.012862  0.0
C  C111  1  0.48400517  0.61808657  0.31496546  1  0.364556  -0.000684  0.098486  0.204919  -7e-05  4.0133  0.001
C  C112  1  0.03350048  0.80225959  0.77676476  1  -0.036721  -0.000756  -0.237815  -0.441609  -0.000526  3.983982  -0.001
C  C113  1  0.46652883  0.30228929  0.72326279  1  -0.036929  0.000762  -0.23773  -0.441388  0.000484  3.984357  0.001
C  C114  1  0.96650368  0.19772115  0.22327130  1  -0.037664  0.000805  -0.237814  -0.441445  0.000516  3.984081  0.001
C  C115  1  0.53347221  0.69771994  0.27673926  1  -0.036881  0.000808  -0.237734  -0.441405  0.000511  3.984335  0.001
C  C116  1  0.05582123  0.98025245  0.70808144  1  0.299368  -0.004082  -0.054297  -0.132492  -0.002871  3.922154  -0.004
C  C117  1  0.44419383  0.48027409  0.79193716  1  0.3008  0.004097  -0.054339  -0.13268  0.002695  3.921706  0.004
C  C118  1  0.94417697  0.01972639  0.29192611  1  0.299351  0.004087  -0.054352  -0.132688  0.002685  3.922194  0.004
C  C119  1  0.55581897  0.51972880  0.20805823  1  0.299374  0.004096  -0.054436  -0.132797  0.002694  3.921986  0.004
C  C120  1  0.91157476  0.01877770  0.66598335  1  0.270216  -0.001838  -0.062464  -0.033073  -0.002509  3.884818  0.0
C  C121  1  0.58844891  0.51878884  0.83403576  1  0.269793  0.001846  -0.062526  -0.032974  0.002283  3.884152  0.0
C  C122  1  0.08843624  0.98119734  0.33402138  1  0.26949  0.001857  -0.062558  -0.033039  0.002275  3.884684  0.0
C  C123  1  0.41156225  0.48122419  0.16596623  1  0.270209  0.001859  -0.062468  -0.032658  0.002289  3.884423  0.0
C  C124  1  0.85986949  0.16988625  0.63849307  1  0.280264  -0.001205  -0.066539  -0.044599  -0.001846  3.894008  0.001
C  C125  1  0.64013004  0.66989650  0.86150725  1  0.280729  0.001323  -0.066511  -0.044368  0.001703  3.893712  -0.001
C  C126  1  0.14013823  0.83010335  0.36150290  1  0.281296  0.001313  -0.066597  -0.044553  0.001698  3.893856  -0.001
C  C127  1  0.35985731  0.33010893  0.13849103  1  0.280819  0.001201  -0.066495  -0.044211  0.001618  3.893854  -0.001
C  C128  1  0.02682912  0.21836394  0.63706434  1  0.288887  -0.003366  -0.050608  -0.115977  -0.002384  3.87888  -0.003
C  C129  1  0.47313929  0.71837266  0.86293669  1  0.289085  0.003633  -0.050646  -0.116417  0.002424  3.879221  0.003
C  C130  1  0.97315327  0.78161870  0.36293232  1  0.287503  0.003635  -0.050578  -0.116761  0.002423  3.878946  0.003
C  C131  1  0.52683402  0.28163974  0.13706387  1  0.289123  0.003371  -0.05064  -0.116184  0.002226  3.879453  0.003
C  C132  1  0.09150988  0.40811119  0.61405694  1  -0.041456  -0.000703  -0.231499  -0.432017  -0.000505  3.948271  -0.001
C  C133  1  0.40847331  0.90812960  0.88594407  1  -0.040464  0.000701  -0.231542  -0.432308  0.000452  3.948037  0.001
C  C134  1  0.90848025  0.59187524  0.38593694  1  -0.041745  0.000667  -0.231493  -0.432095  0.000416  3.948096  0.001
C  C135  1  0.59151236  0.09187646  0.11406136  1  -0.041573  0.00067  -0.23144  -0.432155  0.000434  3.947791  0.001
C  C136  1  0.04365328  0.36789522  0.68556647  1  0.438438  0.000401  0.106594  0.223615  -0.000266  3.985694  -0.001
C  C137  1  0.45631690  0.86791710  0.81443157  1  0.439224  -0.000399  0.106618  0.223777  0.000141  3.985723  0.001
C  C138  1  0.95633438  0.63208678  0.31442632  1  0.438644  -0.000394  0.106554  0.223275  0.000132  3.985905  0.001
C  C139  1  0.54366893  0.13209530  0.18557111  1  0.43868  -0.000401  0.106677  0.223788  0.00013  3.985817  0.001
C  C140  1  0.01346622  0.40340155  0.75478193  1  -0.073963  -0.002998  -0.127873  -0.366723  -0.002298  3.967283  -0.002
C  C141  1  0.48649888  0.90341838  0.74521819  1  -0.073982  0.003003  -0.128092  -0.367032  0.002154  3.966873  0.002
C  C142  1  0.98652407  0.59658995  0.24520921  1  -0.081168  0.003086  -0.127966  -0.366695  0.002182  3.96713  0.002
C  C143  1  0.51348920  0.09659845  0.25478943  1  -0.073441  0.003075  -0.127931  -0.366872  0.002181  3.967503  0.002
C  C144  1  0.97418166  0.33602360  0.80310513  1  0.414889  -0.000619  0.095651  0.268139  -0.001115  4.033191  -0.002
C  C145  1  0.52579253  0.83602794  0.69689533  1  0.415601  0.000621  0.095687  0.26824  0.000909  4.03299  0.002
C  C146  1  0.02581362  0.66397676  0.19688707  1  0.422202  0.000667  0.095488  0.267922  0.000935  4.033918  0.002
C  C147  1  0.47419097  0.16398636  0.30310408  1  0.414231  0.000677  0.095682  0.268176  0.000936  4.033031  0.002
C  C148  1  0.93088553  0.34129340  0.88333715  1  -0.082992  -0.000296  -0.243388  -0.441195  -0.000148  3.954762  0.0
C  C149  1  0.56909900  0.84129338  0.61666534  1  -0.082942  0.00031  -0.243439  -0.441051  0.000132  3.954791  0.0
C  C150  1  0.06912459  0.65870380  0.11666100  1  -0.082855  0.000542  -0.243389  -0.441119  0.000347  3.95479  0.0
C  C151  1  0.43089442  0.15872535  0.38333730  1  -0.083422  0.000527  -0.24356  -0.441197  0.000331  3.954672  0.0
C  C152  1  0.51476248  0.15736668  0.85060145  1  0.808807  0.000526  0.100794  0.180931  0.000326  4.148654  0.0
C  C153  1  0.98522111  0.65734969  0.64940635  1  0.80867  -0.000365  0.100455  0.180469  -0.000309  4.148948  0.0
C  C154  1  0.48522967  0.84264002  0.14940120  1  0.809339  -0.000418  0.100708  0.180763  -0.000348  4.14797  0.0
C  C155  1  0.01479533  0.34264941  0.35059176  1  0.808755  -0.000454  0.100481  0.180618  -0.000371  4.148985  0.0
C  C156  1  0.50913540  0.19745448  0.92446446  1  0.866393  -0.003382  0.101276  0.156901  -0.002519  4.164695  -0.003
C  C157  1  0.99084532  0.69743647  0.57553708  1  0.866675  0.003504  0.101443  0.157321  0.002387  4.164254  0.003
C  C158  1  0.49086754  0.80255349  0.07552660  1  0.866433  0.00354  0.101137  0.156783  0.002418  4.164185  0.003
C  C159  1  0.00915838  0.30255503  0.42446276  1  0.867042  0.003506  0.101265  0.157093  0.002401  4.164496  0.003
C  C160  1  0.33945650  0.14474787  0.82812189  1  0.787749  -0.006979  0.083533  0.146173  -0.004827  4.231764  -0.006
C  C161  1  0.16052177  0.64473533  0.67188824  1  0.786831  0.007138  0.083644  0.146155  0.004622  4.231294  0.006
C  C162  1  0.66057750  0.85526579  0.17187887  1  0.787198  0.007055  0.083639  0.14628  0.004576  4.23125  0.006
C  C163  1  0.83948317  0.35525363  0.32811214  1  0.786733  0.007019  0.083514  0.145852  0.004551  4.231793  0.006
C  C164  1  0.22686916  0.17137270  0.88936488  1  0.658219  -0.003486  0.089071  0.135012  -0.004229  4.132532  0.001
C  C165  1  0.27312198  0.67137175  0.61064793  1  0.658271  0.003744  0.089362  0.135601  0.003881  4.132374  0.0
C  C166  1  0.77317036  0.82863590  0.11062761  1  0.658432  0.003747  0.08886  0.13486  0.003883  4.133015  0.0
C  C167  1  0.72689162  0.32862671  0.38935569  1  0.659004  0.003553  0.08936  0.135618  0.003748  4.132548  -0.001
C  C168  1  0.32761399  0.20481627  0.94900925  1  0.863948  -0.014477  0.098603  0.167784  -0.011423  4.186538  -0.012
C  C169  1  0.17237161  0.70478602  0.55099799  1  0.86384  0.014603  0.098326  0.167497  0.010899  4.186782  0.012
C  C170  1  0.67242341  0.79520372  0.05097612  1  0.864285  0.014676  0.098592  0.167763  0.010938  4.186426  0.012
C  C171  1  0.82766197  0.29519091  0.44898795  1  0.863134  0.014581  0.098648  0.167785  0.010849  4.186554  0.012
N  N172  1  0.94273469  0.02182860  0.82820534  1  -0.729564  -0.076387  -0.276263  -0.272908  -0.057082  3.44896  -0.067
N  N173  1  0.55726777  0.52183406  0.67179956  1  -0.728735  0.076481  -0.27631  -0.27302  0.053873  3.449075  0.067
N  N174  1  0.05727515  0.97816924  0.17179775  1  -0.72815  0.076474  -0.276213  -0.272912  0.053874  3.449267  0.067
N  N175  1  0.44272871  0.47816821  0.32819373  1  -0.729729  0.07645  -0.276366  -0.273095  0.053852  3.449003  0.067
N  N176  1  0.00129147  0.95919433  0.78262038  1  -0.8227  -0.003724  -0.156238  0.105635  -0.002072  3.735292  -0.002
N  N177  1  0.49873350  0.45921594  0.71740023  1  -0.822728  0.003753  -0.156027  0.105712  0.001945  3.734413  0.002
N  N178  1  0.99871429  0.04078134  0.21738768  1  -0.823244  0.003715  -0.15619  0.105857  0.001923  3.734728  0.002
N  N179  1  0.50128566  0.54080025  0.28259458  1  -0.82191  0.003744  -0.155927  0.105722  0.001939  3.734426  0.002
N  N180  1  0.85436520  0.10232973  0.69453532  1  -1.078357  -0.106218  -0.486152  -0.325739  -0.076372  3.485234  -0.09
N  N181  1  0.64564967  0.60234184  0.80547011  1  -1.078707  0.106332  -0.486071  -0.326089  0.072055  3.485351  0.09
N  N182  1  0.14563890  0.89764847  0.30545738  1  -1.078677  0.10628  -0.485994  -0.325956  0.072023  3.485312  0.09
N  N183  1  0.35433202  0.39767816  0.19451668  1  -1.078968  0.106303  -0.486067  -0.326153  0.072039  3.485375  0.09
N  N184  1  0.02345591  0.28299711  0.69389257  1  -0.832592  -0.003512  -0.152153  0.101731  -0.001979  3.726985  -0.002
N  N185  1  0.47652480  0.78301352  0.80611534  1  -0.832561  0.003532  -0.152037  0.10225  0.001848  3.726135  0.002
N  N186  1  0.97654193  0.71698996  0.30609907  1  -0.830872  0.003517  -0.15182  0.102795  0.001836  3.72609  0.002
N  N187  1  0.52346790  0.21699318  0.19387798  1  -0.832309  0.003508  -0.152204  0.102055  0.001841  3.726219  0.002
N  N188  1  0.98027278  0.26229541  0.76499561  1  -0.730909  -0.063062  -0.276647  -0.293377  -0.04731  3.436432  -0.055
N  N189  1  0.51970281  0.76230328  0.73500740  1  -0.73178  0.063139  -0.276571  -0.293682  0.04464  3.43589  0.055
N  N190  1  0.01972105  0.73768659  0.23499989  1  -0.731358  0.06312  -0.276559  -0.2937  0.044614  3.436975  0.055
N  N191  1  0.48028337  0.23771798  0.26498924  1  -0.731214  0.063057  -0.276664  -0.293676  0.044577  3.435372  0.055
O  O192  1  0.64500641  0.13966245  0.81232226  1  -1.146865  0.00211  -0.289802  -0.444922  0.001381  2.337335  0.001
O  O193  1  0.85497059  0.63964793  0.68767825  1  -1.147092  -0.001895  -0.289559  -0.444717  -0.001352  2.337596  -0.001
O  O194  1  0.35498174  0.86032905  0.18768425  1  -1.147205  -0.001912  -0.289682  -0.444783  -0.001359  2.337533  -0.001
O  O195  1  0.14502523  0.36036700  0.31232657  1  -1.147204  -0.001958  -0.289521  -0.444617  -0.001391  2.337954  -0.001
O  O196  1  0.63122754  0.22270637  0.95954810  1  -1.110886  -0.005589  -0.274989  -0.382774  -0.003812  2.185844  -0.005
O  O197  1  0.86875134  0.72269725  0.54045239  1  -1.111076  0.005947  -0.275016  -0.382905  0.003757  2.185656  0.005
O  O198  1  0.36877379  0.77729210  0.04044900  1  -1.111004  0.006012  -0.274958  -0.382709  0.003791  2.185917  0.005
O  O199  1  0.13126912  0.27729932  0.45954186  1  -1.111556  0.005704  -0.274982  -0.382928  0.003601  2.185701  0.005
O  O200  1  0.29252414  0.11841384  0.76700459  1  -1.140297  -0.009819  -0.307908  -0.462425  -0.006775  2.247237  -0.009
O  O201  1  0.20746364  0.61839506  0.73300820  1  -1.139861  0.010033  -0.308019  -0.46257  0.006473  2.247283  0.009
O  O202  1  0.70748304  0.88160932  0.23300071  1  -1.139954  0.010138  -0.307919  -0.462461  0.006555  2.247231  0.009
O  O203  1  0.79253759  0.38157808  0.26699055  1  -1.139677  0.010123  -0.307883  -0.462345  0.006546  2.247422  0.009
O  O204  1  0.06649504  0.16971272  0.89077004  1  -1.019067  -0.120105  -0.271536  -0.354206  -0.084762  2.431763  -0.109
O  O205  1  0.43349071  0.66973800  0.60925382  1  -1.018824  0.120236  -0.271783  -0.354598  0.079949  2.432074  0.109
O  O206  1  0.93354288  0.83027941  0.10922850  1  -1.01926  0.120224  -0.271447  -0.354107  0.079938  2.432241  0.109
O  O207  1  0.56653146  0.33028326  0.39075469  1  -1.019124  0.120174  -0.27174  -0.354542  0.079914  2.432067  0.109
O  O208  1  0.27265465  0.23564169  0.00810312  1  -1.119504  -0.011166  -0.282665  -0.403873  -0.007269  2.21845  -0.008
O  O209  1  0.22732550  0.73560678  0.49189663  1  -1.119423  0.013644  -0.282709  -0.404009  0.008451  2.218186  0.01
O  O210  1  0.72736295  0.76437767  0.99187468  1  -1.119945  0.01331  -0.28258  -0.403866  0.008232  2.218838  0.009
O  O211  1  0.77271706  0.26434863  0.50808707  1  -1.118954  0.01175  -0.282944  -0.404207  0.00722  2.217731  0.008
