# generated using pymatgen
data_H12PbC13(N2O)2
_symmetry_space_group_name_H-M   'P 1'
_cell_length_a   7.43370001
_cell_length_b   9.62619396
_cell_length_c   9.89044785
_cell_angle_alpha   95.36894606
_cell_angle_beta   98.96737381
_cell_angle_gamma   104.01214000
_symmetry_Int_Tables_number   1
_chemical_formula_structural   H12PbC13(N2O)2
_chemical_formula_sum   'H24 Pb2 C26 N8 O4'
_cell_volume   671.89395154
_cell_formula_units_Z   2
loop_
 _symmetry_equiv_pos_site_id
 _symmetry_equiv_pos_as_xyz
  1  'x, y, z'
loop_
 _atom_site_type_symbol
 _atom_site_label
 _atom_site_symmetry_multiplicity
 _atom_site_fract_x
 _atom_site_fract_y
 _atom_site_fract_z
 _atom_site_occupancy
 _atom_site_pbe_bader_spin_density
 _atom_site_pbe_cm5_charge
 _atom_site_pbe_ddec_charge
 _atom_site_pbe_ddec_spin_density
 _atom_site_pbe_ddec_sum_bond_order
 _atom_site_pbe_magmom
H  H0  1  0.61725982  0.57252326  0.56802905  1  0  0.113834  0.089722  0  1.061925  0
H  H1  1  0.38274337  0.42750031  0.43198415  1  0  0.11382  0.089612  0  1.061988  0
H  H2  1  0.83777052  0.47129973  0.96465845  1  0  0.104565  0.099518  0  1.050422  0
H  H3  1  0.16224821  0.52868523  0.03533107  1  0  0.104657  0.099711  0  1.050388  0
H  H4  1  0.04989820  0.72576728  0.01528076  1  0  0.101528  0.101174  0  1.059066  0
H  H5  1  0.95012210  0.27422210  0.98472752  1  0  0.101477  0.101087  0  1.058971  0
H  H6  1  0.02305045  0.89182803  0.83664801  1  0  0.110394  0.077365  0  1.010907  0
H  H7  1  0.97695104  0.10818044  0.16338493  1  0  0.110357  0.077343  0  1.010907  0
H  H8  1  0.64117743  0.03089604  0.91330244  1  0  0.109447  0.089947  0  0.998334  0
H  H9  1  0.35887753  0.96909759  0.08663554  1  0  0.109543  0.090028  0  0.998248  0
H  H10  1  0.10461083  0.69846905  0.49435099  1  0  0.114351  0.080313  0  1.01499  0
H  H11  1  0.89533973  0.30151982  0.50566408  1  0  0.114329  0.080372  0  1.014846  0
H  H12  1  0.12600237  0.48121949  0.61560940  1  0  0.108053  0.112155  0  1.016458  0
H  H13  1  0.87398617  0.51877611  0.38440471  1  0  0.108062  0.112205  0  1.016385  0
H  H14  1  0.34128236  0.52242936  0.84559207  1  0  0.106272  0.099733  0  0.998703  0
H  H15  1  0.65873555  0.47757529  0.15441016  1  0  0.106266  0.099728  0  0.998687  0
H  H16  1  0.53270439  0.77328062  0.94251854  1  0  0.104035  0.115205  0  1.005135  0
H  H17  1  0.46732833  0.22672681  0.05745637  1  0  0.104007  0.115141  0  1.005202  0
H  H18  1  0.13824349  0.12040847  0.82707835  1  0  0.069458  0.051302  0  1.045599  0
H  H19  1  0.86173386  0.87952070  0.17289033  1  0  0.069429  0.051366  0  1.045598  0
H  H20  1  0.93761286  0.18921096  0.77769413  1  0  0.07786  0.067657  0  1.06672  0
H  H21  1  0.06237300  0.81074889  0.22234391  1  0  0.077764  0.067432  0  1.066912  0
H  H22  1  0.16749310  0.28846340  0.76177312  1  0  0.078643  0.072886  0  1.034832  0
H  H23  1  0.83249501  0.71151724  0.23829224  1  0  0.078684  0.072903  0  1.03478  0
Pb  Pb24  1  0.26960905  0.07323864  0.50021284  1  0  0.568444  0.845677  0  2.08403  0
Pb  Pb25  1  0.73034598  0.92679789  0.49977346  1  0  0.568414  0.845584  0  2.08413  0
C  C26  1  0.71053153  0.60227056  0.66863027  1  0  0.048653  0.064617  0  3.922132  0
C  C27  1  0.28948368  0.39774509  0.33137863  1  0  0.048783  0.064972  0  3.922273  0
C  C28  1  0.71303773  0.50142171  0.76202783  1  0  -0.010316  -0.051955  0  3.971  0
C  C29  1  0.28699291  0.49858043  0.23796661  1  0  -0.010306  -0.052106  0  3.971348  0
C  C30  1  0.83471364  0.54703810  0.88981719  1  0  -0.069614  -0.063835  0  3.929398  0
C  C31  1  0.16531698  0.45295314  0.11017732  1  0  -0.069765  -0.064096  0  3.929613  0
C  C32  1  0.94897907  0.68826569  0.91843999  1  0  -0.0904  -0.135466  0  3.989675  0
C  C33  1  0.05103935  0.31172591  0.08156826  1  0  -0.090225  -0.135133  0  3.988974  0
C  C34  1  0.93565882  0.78053353  0.81882272  1  0  0.042549  0.086565  0  3.978914  0
C  C35  1  0.06434554  0.21947153  0.18119713  1  0  0.042657  0.086695  0  3.978749  0
C  C36  1  0.58453677  0.35302484  0.72158508  1  0  0.21656  0.415045  0  4.173372  0
C  C37  1  0.41547916  0.64698523  0.27840220  1  0  0.216588  0.41494  0  4.173516  0
C  C38  1  0.53411474  0.01323315  0.81884367  1  0  0.040445  -0.069046  0  3.985082  0
C  C39  1  0.46589489  0.98676714  0.18112080  1  0  0.040288  -0.069169  0  3.984559  0
C  C40  1  0.42015705  0.86648861  0.76758470  1  0  0.109314  0.184637  0  4.092487  0
C  C41  1  0.57983712  0.13351433  0.23240038  1  0  0.109454  0.184809  0  4.092398  0
C  C42  1  0.19907863  0.70856694  0.59328541  1  0  0.053226  0.105434  0  3.979695  0
C  C43  1  0.80088965  0.29142911  0.40672429  1  0  0.053286  0.105486  0  3.979537  0
C  C44  1  0.20920814  0.58930260  0.66142822  1  0  -0.084415  -0.127629  0  3.949163  0
C  C45  1  0.79077759  0.41069630  0.33857978  1  0  -0.084371  -0.127648  0  3.949261  0
C  C46  1  0.32950365  0.61282204  0.78926702  1  0  -0.067253  -0.018231  0  3.977686  0
C  C47  1  0.67050170  0.38718181  0.21073364  1  0  -0.067249  -0.01822  0  3.977719  0
C  C48  1  0.43634773  0.75225683  0.84338384  1  0  -0.084107  -0.164922  0  3.936523  0
C  C49  1  0.56366347  0.24774788  0.15660040  1  0  -0.084084  -0.16488  0  3.936545  0
C  C50  1  0.07245181  0.17851057  0.74997899  1  0  -0.17085  -0.12275  0  4.064169  0
C  C51  1  0.92752752  0.82146782  0.25003559  1  0  -0.170806  -0.122563  0  4.064264  0
N  N52  1  0.81846627  0.73863729  0.69594602  1  0  -0.305907  -0.259788  0  3.424942  0
N  N53  1  0.18153296  0.26138316  0.30407655  1  0  -0.306086  -0.26014  0  3.425415  0
N  N54  1  0.62579087  0.25299890  0.80073795  1  0  -0.252841  -0.362222  0  3.275412  0
N  N55  1  0.37422467  0.74699913  0.19923815  1  0  -0.252813  -0.362082  0  3.275351  0
N  N56  1  0.51124734  0.11998442  0.75236799  1  0  -0.191748  -0.100569  0  3.606871  0
N  N57  1  0.48873590  0.88002204  0.24761608  1  0  -0.191701  -0.100526  0  3.60664  0
N  N58  1  0.30052849  0.84296483  0.64418823  1  0  -0.299148  -0.308958  0  3.432354  0
N  N59  1  0.69943929  0.15703334  0.35580745  1  0  -0.299334  -0.309209  0  3.432643  0
O  O60  1  0.45145493  0.33362067  0.61835544  1  0  -0.286704  -0.496216  0  2.260761  0
O  O61  1  0.54855208  0.66640929  0.38164764  1  0  -0.286786  -0.496182  0  2.260817  0
O  O62  1  0.04001872  0.10737657  0.61335077  1  0  -0.364351  -0.477362  0  2.308967  0
O  O63  1  0.95994729  0.89267821  0.38663436  1  0  -0.364318  -0.477463  0  2.309275  0
