# generated using pymatgen
data_LiH6(C2O)2
_symmetry_space_group_name_H-M   'P 1'
_cell_length_a   4.82037721
_cell_length_b   9.21456194
_cell_length_c   10.52503293
_cell_angle_alpha   115.76807911
_cell_angle_beta   89.99974468
_cell_angle_gamma   90.00033383
_symmetry_Int_Tables_number   1
_chemical_formula_structural   LiH6(C2O)2
_chemical_formula_sum   'Li4 H24 C16 O8'
_cell_volume   421.00995907
_cell_formula_units_Z   4
loop_
 _symmetry_equiv_pos_site_id
 _symmetry_equiv_pos_as_xyz
  1  'x, y, z'
loop_
 _atom_site_type_symbol
 _atom_site_label
 _atom_site_symmetry_multiplicity
 _atom_site_fract_x
 _atom_site_fract_y
 _atom_site_fract_z
 _atom_site_occupancy
 _atom_site_hle17_bader_spin_density
 _atom_site_hle17_ddec_charge
 _atom_site_hle17_ddec_spin_density
 _atom_site_hle17_ddec_sum_bond_order
 _atom_site_hle17_magmom
 _atom_site_hse06_10hf_bader_spin_density
 _atom_site_hse06_10hf_ddec_charge
 _atom_site_hse06_10hf_ddec_spin_density
 _atom_site_hse06_10hf_ddec_sum_bond_order
 _atom_site_hse06_10hf_magmom
 _atom_site_hse06_bader_spin_density
 _atom_site_hse06_ddec_charge
 _atom_site_hse06_ddec_spin_density
 _atom_site_hse06_ddec_sum_bond_order
 _atom_site_hse06_magmom
 _atom_site_pbe_bader_spin_density
 _atom_site_pbe_cm5_charge
 _atom_site_pbe_ddec_charge
 _atom_site_pbe_ddec_spin_density
 _atom_site_pbe_ddec_sum_bond_order
 _atom_site_pbe_magmom
Li  Li0  1  0.91394733  0.14152721  0.99531530  1  0  0.859252  0  0.390788  0  0  0.821751  0  0.493021  0  0  0.830626  0  0.477236  0  0  0.51102  0.815272  0  0.504465  0
Li  Li1  1  0.41393450  0.35846677  0.00467949  1  0  0.859188  0  0.390851  0  0  0.821678  0  0.493101  0  0  0.830554  0  0.477313  0  0  0.510999  0.815192  0  0.50455  0
Li  Li2  1  0.08605864  0.85847049  0.00468347  1  0  0.859173  0  0.390845  0  0  0.821651  0  0.493114  0  0  0.83053  0  0.477322  0  0  0.511001  0.815169  0  0.504562  0
Li  Li3  1  0.58605073  0.64152968  0.99531597  1  0  0.859217  0  0.39082  0  0  0.82171  0  0.493061  0  0  0.830587  0  0.477273  0  0  0.511033  0.815232  0  0.504507  0
H  H4  1  0.59000973  0.26336470  0.35466878  1  0  0.100774  0  0.94072  0  0  0.120038  0  0.998711  0  0  0.120865  0  1.000007  0  0  0.104982  0.119408  0  0.997942  0
H  H5  1  0.09001616  0.23664304  0.64533175  1  0  0.100845  0  0.940706  0  0  0.120144  0  0.998641  0  0  0.121006  0  0.999894  0  0  0.105052  0.119513  0  0.997873  0
H  H6  1  0.40999417  0.73663308  0.64533382  1  0  0.100822  0  0.940631  0  0  0.120082  0  0.998634  0  0  0.120916  0  0.999922  0  0  0.105026  0.119453  0  0.997865  0
H  H7  1  0.90996699  0.76336905  0.35466854  1  0  0.100803  0  0.94074  0  0  0.120061  0  0.998707  0  0  0.120908  0  0.999974  0  0  0.105021  0.119432  0  0.997934  0
H  H8  1  0.78665572  0.09988815  0.24024946  1  0  0.10838  0  0.955051  0  0  0.121746  0  1.020889  0  0  0.125015  0  1.018585  0  0  0.116263  0.119359  0  1.022638  0
H  H9  1  0.28664852  0.40010560  0.75974741  1  0  0.108444  0  0.954974  0  0  0.121823  0  1.02079  0  0  0.12508  0  1.018508  0  0  0.1163  0.119436  0  1.02254  0
H  H10  1  0.21335440  0.90010362  0.75975188  1  0  0.10844  0  0.955013  0  0  0.121815  0  1.020834  0  0  0.125078  0  1.018539  0  0  0.116317  0.11943  0  1.022581  0
H  H11  1  0.71333878  0.59988483  0.24024583  1  0  0.108421  0  0.955009  0  0  0.121761  0  1.020869  0  0  0.125013  0  1.01859  0  0  0.116252  0.119371  0  1.022624  0
H  H12  1  0.43907367  0.90626028  0.25233043  1  0  0.06345  0  0.950149  0  0  0.082762  0  1.012153  0  0  0.084058  0  1.012137  0  0  0.104797  0.081705  0  1.012416  0
H  H13  1  0.93909455  0.59374670  0.74767176  1  0  0.063473  0  0.950149  0  0  0.082877  0  1.012102  0  0  0.084164  0  1.012097  0  0  0.104813  0.08182  0  1.012367  0
H  H14  1  0.56092400  0.09373750  0.74767217  1  0  0.063445  0  0.950152  0  0  0.082761  0  1.012151  0  0  0.084058  0  1.012131  0  0  0.104787  0.081703  0  1.012414  0
H  H15  1  0.06091765  0.40626899  0.25232890  1  0  0.063501  0  0.950182  0  0  0.08284  0  1.012146  0  0  0.084138  0  1.012128  0  0  0.104832  0.081783  0  1.012408  0
H  H16  1  0.20956114  0.06494805  0.34984744  1  0  0.05474  0  0.956445  0  0  0.071842  0  1.024661  0  0  0.07285  0  1.024271  0  0  0.089431  0.071109  0  1.024959  0
H  H17  1  0.70956430  0.43506126  0.65015912  1  0  0.054745  0  0.95646  0  0  0.071867  0  1.024705  0  0  0.072876  0  1.024313  0  0  0.089461  0.071133  0  1.025003  0
H  H18  1  0.79044483  0.93505819  0.65016019  1  0  0.054749  0  0.956501  0  0  0.071821  0  1.024742  0  0  0.072826  0  1.024357  0  0  0.089441  0.071087  0  1.025039  0
H  H19  1  0.29043130  0.56495190  0.34983395  1  0  0.054742  0  0.956452  0  0  0.071808  0  1.02472  0  0  0.072815  0  1.024333  0  0  0.089415  0.071075  0  1.025015  0
H  H20  1  0.56619687  0.17821965  0.54469832  1  0  0.059257  0  0.949426  0  0  0.081869  0  1.008354  0  0  0.08177  0  1.010308  0  0  0.088785  0.081903  0  1.007044  0
H  H21  1  0.06618130  0.32177840  0.45529867  1  0  0.059279  0  0.949295  0  0  0.081877  0  1.0082  0  0  0.081781  0  1.010152  0  0  0.088735  0.081912  0  1.006892  0
H  H22  1  0.43382569  0.82177575  0.45530530  1  0  0.059274  0  0.949368  0  0  0.081871  0  1.008268  0  0  0.081775  0  1.010218  0  0  0.088766  0.081908  0  1.00696  0
H  H23  1  0.93382053  0.67822274  0.54469187  1  0  0.059218  0  0.949336  0  0  0.081881  0  1.008193  0  0  0.081783  0  1.010144  0  0  0.088749  0.081916  0  1.006884  0
H  H24  1  0.78912498  0.01707584  0.44675678  1  0  0.050752  0  0.955363  0  0  0.070055  0  1.021162  0  0  0.070774  0  1.021256  0  0  0.084789  0.069547  0  1.021096  0
H  H25  1  0.28912908  0.48292260  0.55323516  1  0  0.050741  0  0.95537  0  0  0.07002  0  1.021168  0  0  0.070737  0  1.021263  0  0  0.084772  0.069512  0  1.021105  0
H  H26  1  0.21088514  0.98292312  0.55324531  1  0  0.050754  0  0.955341  0  0  0.070025  0  1.02113  0  0  0.070737  0  1.021231  0  0  0.084777  0.06952  0  1.021064  0
H  H27  1  0.71087689  0.51707496  0.44675596  1  0  0.050748  0  0.955345  0  0  0.070039  0  1.021142  0  0  0.070756  0  1.021238  0  0  0.084787  0.069531  0  1.021079  0
C  C28  1  0.43165730  0.15343380  0.14890124  1  0  0.777756  0  3.811196  0  0  0.73471  0  4.108755  0  0  0.767291  0  4.098316  0  0  0.248128  0.71254  0  4.115295  0
C  C29  1  0.93166159  0.34657087  0.85108701  1  0  0.777816  0  3.810683  0  0  0.734725  0  4.108312  0  0  0.767315  0  4.097869  0  0  0.248082  0.712544  0  4.114864  0
C  C30  1  0.56834244  0.84656373  0.85108797  1  0  0.777946  0  3.810717  0  0  0.734788  0  4.108448  0  0  0.767378  0  4.098  0  0  0.248164  0.712611  0  4.115  0
C  C31  1  0.06833608  0.65344448  0.14889547  1  0  0.777902  0  3.811644  0  0  0.734854  0  4.109146  0  0  0.767431  0  4.098708  0  0  0.248188  0.712685  0  4.115689  0
C  C32  1  0.57126602  0.13871282  0.27178790  1  0  -0.283397  0  3.670493  0  0  -0.32024  0  3.915478  0  0  -0.326367  0  3.92433  0  0  -0.152451  -0.31595  0  3.909296  0
C  C33  1  0.07125036  0.36129154  0.72822663  1  0  -0.283431  0  3.670696  0  0  -0.32029  0  3.915799  0  0  -0.326435  0  3.92465  0  0  -0.152412  -0.315999  0  3.909623  0
C  C34  1  0.42875032  0.86128506  0.72822045  1  0  -0.283396  0  3.670612  0  0  -0.320241  0  3.915687  0  0  -0.326371  0  3.92454  0  0  -0.152414  -0.31595  0  3.909506  0
C  C35  1  0.92873487  0.63871110  0.27178062  1  0  -0.283452  0  3.670512  0  0  -0.320215  0  3.915386  0  0  -0.326341  0  3.924252  0  0  -0.152414  -0.315927  0  3.909197  0
C  C36  1  0.43080928  0.03313890  0.33074450  1  0  -0.082112  0  3.704579  0  0  -0.126432  0  3.968419  0  0  -0.126475  0  3.98195  0  0  -0.159757  -0.126245  0  3.95894  0
C  C37  1  0.93081472  0.46687083  0.66925892  1  0  -0.082122  0  3.704414  0  0  -0.126634  0  3.96843  0  0  -0.126673  0  3.981962  0  0  -0.159821  -0.126444  0  3.958948  0
C  C38  1  0.56919461  0.96686244  0.66925656  1  0  -0.08211  0  3.704596  0  0  -0.126412  0  3.968388  0  0  -0.126454  0  3.981914  0  0  -0.159763  -0.126223  0  3.958916  0
C  C39  1  0.06918710  0.53314002  0.33073901  1  0  -0.082169  0  3.704549  0  0  -0.126531  0  3.968429  0  0  -0.126568  0  3.98194  0  0  -0.159787  -0.126345  0  3.958954  0
C  C40  1  0.56815067  0.05051113  0.46740728  1  0  -0.107352  0  3.691903  0  0  -0.147687  0  3.954364  0  0  -0.148925  0  3.969837  0  0  -0.16624  -0.146677  0  3.943478  0
C  C41  1  0.06814835  0.44949057  0.53259296  1  0  -0.107422  0  3.691868  0  0  -0.147625  0  3.954285  0  0  -0.148861  0  3.969759  0  0  -0.16614  -0.146619  0  3.943402  0
C  C42  1  0.43185945  0.94948905  0.53259621  1  0  -0.107487  0  3.691884  0  0  -0.147684  0  3.954239  0  0  -0.148918  0  3.969715  0  0  -0.166213  -0.146692  0  3.943369  0
C  C43  1  0.93185140  0.55051067  0.46740332  1  0  -0.107329  0  3.691726  0  0  -0.147636  0  3.954143  0  0  -0.148873  0  3.969616  0  0  -0.166217  -0.146635  0  3.943264  0
O  O44  1  0.56267685  0.23302060  0.09401243  1  0  -0.812509  0  1.921817  0  0  -0.770733  0  2.171729  0  0  -0.790727  0  2.155815  0  0  -0.44986  -0.756905  0  2.18264  0
O  O45  1  0.06267698  0.26697287  0.90599619  1  0  -0.81267  0  1.921397  0  0  -0.770884  0  2.171343  0  0  -0.790882  0  2.155431  0  0  -0.449923  -0.757049  0  2.182253  0
O  O46  1  0.43731875  0.76698925  0.90599653  1  0  -0.812569  0  1.921706  0  0  -0.770745  0  2.171675  0  0  -0.79074  0  2.155758  0  0  -0.44984  -0.756914  0  2.18259  0
O  O47  1  0.93729995  0.73301550  0.09401529  1  0  -0.812459  0  1.922259  0  0  -0.770672  0  2.172139  0  0  -0.790665  0  2.156232  0  0  -0.449846  -0.756844  0  2.183048  0
O  O48  1  0.19310526  0.09160472  0.10722489  1  0  -0.788877  0  1.964116  0  0  -0.739586  0  2.210979  0  0  -0.760667  0  2.196573  0  0  -0.419868  -0.724965  0  2.220773  0
O  O49  1  0.69306218  0.40840094  0.89278036  1  0  -0.788979  0  1.963575  0  0  -0.739659  0  2.210412  0  0  -0.760741  0  2.196  0  0  -0.419942  -0.725033  0  2.220215  0
O  O50  1  0.80693805  0.90840156  0.89278465  1  0  -0.789143  0  1.96349  0  0  -0.73983  0  2.210425  0  0  -0.760914  0  2.19601  0  0  -0.420071  -0.725204  0  2.220226  0
O  O51  1  0.30687533  0.59160984  0.10721374  1  0  -0.789066  0  1.964242  0  0  -0.739819  0  2.211187  0  0  -0.760896  0  2.196771  0  0  -0.419986  -0.725194  0  2.220986  0
