# generated using pymatgen
data_TlH6C7NO3
_symmetry_space_group_name_H-M   'P 1'
_cell_length_a   7.24843254
_cell_length_b   9.38414282
_cell_length_c   11.69618902
_cell_angle_alpha   89.99995864
_cell_angle_beta   90.00003524
_cell_angle_gamma   93.83921572
_symmetry_Int_Tables_number   1
_chemical_formula_structural   TlH6C7NO3
_chemical_formula_sum   'Tl4 H24 C28 N4 O12'
_cell_volume   793.79321293
_cell_formula_units_Z   4
loop_
 _symmetry_equiv_pos_site_id
 _symmetry_equiv_pos_as_xyz
  1  'x, y, z'
loop_
 _atom_site_type_symbol
 _atom_site_label
 _atom_site_symmetry_multiplicity
 _atom_site_fract_x
 _atom_site_fract_y
 _atom_site_fract_z
 _atom_site_occupancy
 _atom_site_hle17_bader_spin_density
 _atom_site_hle17_ddec_charge
 _atom_site_hle17_ddec_spin_density
 _atom_site_hle17_ddec_sum_bond_order
 _atom_site_hle17_magmom
 _atom_site_hse06_10hf_bader_spin_density
 _atom_site_hse06_10hf_ddec_charge
 _atom_site_hse06_10hf_ddec_spin_density
 _atom_site_hse06_10hf_ddec_sum_bond_order
 _atom_site_hse06_10hf_magmom
 _atom_site_hse06_bader_spin_density
 _atom_site_hse06_ddec_charge
 _atom_site_hse06_ddec_spin_density
 _atom_site_hse06_ddec_sum_bond_order
 _atom_site_hse06_magmom
 _atom_site_pbe_bader_spin_density
 _atom_site_pbe_cm5_charge
 _atom_site_pbe_ddec_charge
 _atom_site_pbe_ddec_spin_density
 _atom_site_pbe_ddec_sum_bond_order
 _atom_site_pbe_magmom
Tl  Tl0  1  0.00709285  0.18257815  0.11667301  1  0  0.788518  0  0.826458  0  0  0.671867  0  1.117893  0  0  0.700611  0  1.098446  0  0  0.396237  0.650736  0  1.131847  0
Tl  Tl1  1  0.50708813  0.68257622  0.38332052  1  0  0.788509  0  0.826477  0  0  0.671867  0  1.117905  0  0  0.700608  0  1.098455  0  0  0.396244  0.650736  0  1.131859  0
Tl  Tl2  1  0.99290623  0.81741784  0.88332617  1  0  0.788516  0  0.826474  0  0  0.671862  0  1.117915  0  0  0.700608  0  1.098468  0  0  0.396249  0.650731  0  1.131869  0
Tl  Tl3  1  0.49290985  0.31742403  0.61667951  1  0  0.788497  0  0.826475  0  0  0.671855  0  1.11791  0  0  0.700594  0  1.098455  0  0  0.396239  0.650724  0  1.131863  0
H  H4  1  0.59495447  0.26300943  0.99642204  1  0  0.376923  0  0.916484  0  0  0.347206  0  0.994422  0  0  0.359675  0  0.981674  0  0  0.293054  0.338563  0  1.002941  0
H  H5  1  0.09496399  0.76301591  0.50357584  1  0  0.37695  0  0.916503  0  0  0.34723  0  0.994444  0  0  0.359699  0  0.981696  0  0  0.293036  0.338587  0  1.002964  0
H  H6  1  0.40504351  0.73699082  0.00357971  1  0  0.376928  0  0.916511  0  0  0.347224  0  0.994421  0  0  0.35969  0  0.981676  0  0  0.293074  0.338581  0  1.002941  0
H  H7  1  0.90503807  0.23698332  0.49642505  1  0  0.376938  0  0.916517  0  0  0.347219  0  0.99445  0  0  0.359689  0  0.981702  0  0  0.293052  0.338576  0  1.00297  0
H  H8  1  0.95221420  0.17497993  0.80370978  1  0  0.139161  0  0.961147  0  0  0.1489  0  1.020424  0  0  0.153232  0  1.018787  0  0  0.107435  0.145883  0  1.021619  0
H  H9  1  0.45221714  0.67498825  0.69628827  1  0  0.139115  0  0.961189  0  0  0.14883  0  1.020507  0  0  0.153162  0  1.018871  0  0  0.10738  0.145815  0  1.021699  0
H  H10  1  0.04778779  0.82501824  0.19628684  1  0  0.139151  0  0.961168  0  0  0.148892  0  1.020445  0  0  0.153224  0  1.018806  0  0  0.107437  0.145876  0  1.021639  0
H  H11  1  0.54778760  0.32500995  0.30371262  1  0  0.139153  0  0.96113  0  0  0.148875  0  1.020441  0  0  0.153205  0  1.018807  0  0  0.107393  0.145858  0  1.021637  0
H  H12  1  0.03497460  0.05003000  0.63139283  1  0  0.328779  0  0.882224  0  0  0.320477  0  0.931053  0  0  0.32662  0  0.926648  0  0  0.313391  0.316034  0  0.934426  0
H  H13  1  0.53498119  0.55003250  0.86860768  1  0  0.328775  0  0.882213  0  0  0.320474  0  0.931054  0  0  0.326615  0  0.926645  0  0  0.313373  0.316032  0  0.934427  0
H  H14  1  0.96502324  0.94996811  0.36860976  1  0  0.328819  0  0.882188  0  0  0.320513  0  0.93101  0  0  0.326661  0  0.926605  0  0  0.313381  0.316071  0  0.934383  0
H  H15  1  0.46501941  0.44996565  0.13139406  1  0  0.328796  0  0.882195  0  0  0.320492  0  0.931048  0  0  0.326631  0  0.92664  0  0  0.313391  0.316048  0  0.934422  0
H  H16  1  0.88848911  0.91529449  0.57092780  1  0  0.323944  0  0.94076  0  0  0.305865  0  1.005234  0  0  0.3132  0  0.999491  0  0  0.295511  0.30073  0  1.009151  0
H  H17  1  0.38849683  0.41529505  0.92906841  1  0  0.323983  0  0.940797  0  0  0.305896  0  1.005273  0  0  0.313234  0  0.99952  0  0  0.295518  0.300761  0  1.009189  0
H  H18  1  0.11150597  0.08470359  0.42907309  1  0  0.324019  0  0.940806  0  0  0.305935  0  1.005269  0  0  0.313271  0  0.999519  0  0  0.295526  0.300799  0  1.009186  0
H  H19  1  0.61150239  0.58470308  0.07093163  1  0  0.324002  0  0.940809  0  0  0.30592  0  1.005272  0  0  0.313259  0  0.999518  0  0  0.295514  0.300784  0  1.00919  0
H  H20  1  0.31313680  0.95895985  0.75364447  1  0  0.078887  0  0.977363  0  0  0.088126  0  1.047158  0  0  0.091277  0  1.043754  0  0  0.096616  0.085814  0  1.049634  0
H  H21  1  0.81314403  0.45896025  0.74635169  1  0  0.078815  0  0.97746  0  0  0.088046  0  1.047278  0  0  0.091196  0  1.043875  0  0  0.096518  0.08573  0  1.049759  0
H  H22  1  0.68686001  0.04104359  0.24635813  1  0  0.078816  0  0.977478  0  0  0.088044  0  1.047284  0  0  0.091194  0  1.043881  0  0  0.096558  0.08573  0  1.04976  0
H  H23  1  0.18685678  0.54104110  0.25364749  1  0  0.078879  0  0.977409  0  0  0.088095  0  1.047232  0  0  0.091246  0  1.043827  0  0  0.096543  0.085781  0  1.049711  0
H  H24  1  0.55558980  0.89775362  0.61750531  1  0  0.112045  0  0.959736  0  0  0.122098  0  1.021229  0  0  0.125995  0  1.019643  0  0  0.101264  0.119192  0  1.022727  0
H  H25  1  0.05559588  0.39775102  0.88248737  1  0  0.111979  0  0.959766  0  0  0.122036  0  1.021255  0  0  0.125932  0  1.019673  0  0  0.101269  0.119132  0  1.02275  0
H  H26  1  0.44440549  0.10224766  0.38249473  1  0  0.112044  0  0.959747  0  0  0.122123  0  1.021207  0  0  0.12602  0  1.019623  0  0  0.101281  0.119217  0  1.022706  0
H  H27  1  0.94440472  0.60224713  0.11751010  1  0  0.111993  0  0.959761  0  0  0.122044  0  1.021267  0  0  0.125939  0  1.019685  0  0  0.101261  0.11914  0  1.022762  0
C  C28  1  0.81176168  0.12939585  0.79069612  1  0  -0.362893  0  3.722369  0  0  -0.376632  0  3.967029  0  0  -0.390779  0  3.986631  0  0  -0.127845  -0.366821  0  3.953099  0
C  C29  1  0.31176443  0.62940096  0.70930104  1  0  -0.362784  0  3.722317  0  0  -0.376526  0  3.966943  0  0  -0.390673  0  3.986548  0  0  -0.127803  -0.366716  0  3.953015  0
C  C30  1  0.18823768  0.87060442  0.20930391  1  0  -0.362863  0  3.722386  0  0  -0.376631  0  3.967036  0  0  -0.390774  0  3.986635  0  0  -0.127851  -0.366822  0  3.953109  0
C  C31  1  0.68823762  0.37059828  0.29069814  1  0  -0.362864  0  3.722329  0  0  -0.376554  0  3.966982  0  0  -0.390709  0  3.986585  0  0  -0.127817  -0.366747  0  3.953054  0
C  C32  1  0.67406472  0.16279103  0.86746554  1  0  0.345374  0  3.852688  0  0  0.331544  0  4.109398  0  0  0.348629  0  4.124703  0  0  0.084693  0.319818  0  4.099318  0
C  C33  1  0.17406594  0.66279514  0.63253156  1  0  0.345369  0  3.852774  0  0  0.331562  0  4.109532  0  0  0.34865  0  4.124839  0  0  0.084702  0.319837  0  4.099453  0
C  C34  1  0.32593471  0.83721030  0.13253449  1  0  0.345333  0  3.852691  0  0  0.331508  0  4.109404  0  0  0.348594  0  4.124708  0  0  0.08466  0.319782  0  4.099325  0
C  C35  1  0.82593328  0.33720300  0.36746762  1  0  0.345368  0  3.852803  0  0  0.331532  0  4.109579  0  0  0.348633  0  4.124878  0  0  0.084695  0.319807  0  4.0995  0
C  C36  1  0.48998176  0.10164594  0.85574461  1  0  -0.281964  0  3.84218  0  0  -0.265134  0  4.087234  0  0  -0.283195  0  4.112941  0  0  -0.063799  -0.253492  0  4.070204  0
C  C37  1  0.98998565  0.60165291  0.64425433  1  0  -0.282017  0  3.842283  0  0  -0.265293  0  4.087479  0  0  -0.283362  0  4.113184  0  0  -0.06376  -0.253652  0  4.070447  0
C  C38  1  0.51001898  0.89835435  0.14425542  1  0  -0.282005  0  3.842224  0  0  -0.265175  0  4.087283  0  0  -0.283235  0  4.112988  0  0  -0.063825  -0.253531  0  4.07025  0
C  C39  1  0.01001786  0.39834741  0.35574485  1  0  -0.281971  0  3.842229  0  0  -0.265218  0  4.087402  0  0  -0.283291  0  4.113109  0  0  -0.063758  -0.253578  0  4.070372  0
C  C40  1  0.34303856  0.14059878  0.93494986  1  0  0.659091  0  3.918435  0  0  0.608117  0  4.211283  0  0  0.64371  0  4.203927  0  0  0.195869  0.583938  0  4.215368  0
C  C41  1  0.84303919  0.64059940  0.56504559  1  0  0.659195  0  3.91845  0  0  0.608276  0  4.211264  0  0  0.643875  0  4.203904  0  0  0.195974  0.584098  0  4.215348  0
C  C42  1  0.65696087  0.85940255  0.06505103  1  0  0.659093  0  3.918271  0  0  0.608114  0  4.211126  0  0  0.643707  0  4.20377  0  0  0.195941  0.583935  0  4.215211  0
C  C43  1  0.15696149  0.35939982  0.43495359  1  0  0.659134  0  3.918536  0  0  0.608215  0  4.211349  0  0  0.64381  0  4.20399  0  0  0.195917  0.584037  0  4.215434  0
C  C44  1  0.77280264  0.03167081  0.70116783  1  0  0.337766  0  3.935616  0  0  0.33269  0  4.176654  0  0  0.347334  0  4.19673  0  0  0.101928  0.323007  0  4.161933  0
C  C45  1  0.27280665  0.53167263  0.79883278  1  0  0.337512  0  3.935946  0  0  0.332514  0  4.176878  0  0  0.347158  0  4.196955  0  0  0.101832  0.322828  0  4.162166  0
C  C46  1  0.22719541  0.96833051  0.29883221  1  0  0.337616  0  3.935768  0  0  0.332587  0  4.176744  0  0  0.347227  0  4.196834  0  0  0.101851  0.322902  0  4.162027  0
C  C47  1  0.72719388  0.46832445  0.20116811  1  0  0.337661  0  3.9358  0  0  0.332545  0  4.176894  0  0  0.347194  0  4.196954  0  0  0.101863  0.322864  0  4.162175  0
C  C48  1  0.45383748  0.00580278  0.76453714  1  0  -0.035784  0  3.852099  0  0  -0.057652  0  4.101678  0  0  -0.050218  0  4.12031  0  0  -0.08829  -0.062145  0  4.088227  0
C  C49  1  0.95384401  0.50580648  0.73545927  1  0  -0.035678  0  3.852212  0  0  -0.057524  0  4.10182  0  0  -0.050085  0  4.120449  0  0  -0.08821  -0.062014  0  4.088365  0
C  C50  1  0.54616210  0.99420069  0.23546290  1  0  -0.03567  0  3.85205  0  0  -0.057528  0  4.101618  0  0  -0.050091  0  4.120247  0  0  -0.088233  -0.06202  0  4.088166  0
C  C51  1  0.04615943  0.49419277  0.26453991  1  0  -0.03578  0  3.85223  0  0  -0.057623  0  4.101831  0  0  -0.050184  0  4.120456  0  0  -0.088241  -0.062115  0  4.088378  0
C  C52  1  0.58921102  0.97095977  0.68791199  1  0  -0.252689  0  3.768835  0  0  -0.264895  0  4.017335  0  0  -0.276664  0  4.039306  0  0  -0.120243  -0.257031  0  4.00196  0
C  C53  1  0.08921442  0.47095934  0.81208323  1  0  -0.252526  0  3.768928  0  0  -0.264768  0  4.01744  0  0  -0.276539  0  4.039418  0  0  -0.120196  -0.256904  0  4.002061  0
C  C54  1  0.41078579  0.02904366  0.31208548  1  0  -0.252626  0  3.768853  0  0  -0.264872  0  4.017334  0  0  -0.276643  0  4.03931  0  0  -0.120197  -0.257008  0  4.001957  0
C  C55  1  0.91078480  0.52903879  0.18791595  1  0  -0.25257  0  3.768904  0  0  -0.26477  0  4.017434  0  0  -0.276541  0  4.039408  0  0  -0.120174  -0.256907  0  4.002054  0
N  N56  1  0.91098381  0.99360393  0.63077463  1  0  -0.666981  0  3.15271  0  0  -0.625996  0  3.377646  0  0  -0.646779  0  3.377767  0  0  -0.587395  -0.611279  0  3.377144  0
N  N57  1  0.41098900  0.49360880  0.86922668  1  0  -0.666861  0  3.152929  0  0  -0.625894  0  3.377836  0  0  -0.646671  0  3.377955  0  0  -0.587287  -0.611175  0  3.377334  0
N  N58  1  0.08901293  0.00639843  0.36922541  1  0  -0.667019  0  3.152842  0  0  -0.626032  0  3.377758  0  0  -0.646818  0  3.377882  0  0  -0.587356  -0.611314  0  3.37726  0
N  N59  1  0.58901291  0.50638830  0.13077421  1  0  -0.66698  0  3.152807  0  0  -0.625984  0  3.377753  0  0  -0.64676  0  3.377869  0  0  -0.587352  -0.611266  0  3.377252  0
O  O60  1  0.71924725  0.25492202  0.95404330  1  0  -0.543922  0  2.116786  0  0  -0.480872  0  2.335737  0  0  -0.502726  0  2.327523  0  0  -0.348716  -0.465449  0  2.341058  0
O  O61  1  0.21925259  0.75492733  0.54595634  1  0  -0.543969  0  2.116855  0  0  -0.480929  0  2.335832  0  0  -0.502782  0  2.327613  0  0  -0.348752  -0.465506  0  2.341154  0
O  O62  1  0.28075211  0.74507825  0.04595844  1  0  -0.543897  0  2.116803  0  0  -0.480848  0  2.335749  0  0  -0.502703  0  2.32754  0  0  -0.348708  -0.465426  0  2.341071  0
O  O63  1  0.78075077  0.24507085  0.45404284  1  0  -0.543927  0  2.116932  0  0  -0.480906  0  2.335968  0  0  -0.502742  0  2.327694  0  0  -0.348748  -0.465482  0  2.341288  0
O  O64  1  0.17946479  0.08436855  0.92481321  1  0  -0.662687  0  1.992887  0  0  -0.589081  0  2.232476  0  0  -0.617297  0  2.225024  0  0  -0.31517  -0.569213  0  2.236859  0
O  O65  1  0.67946688  0.58437024  0.57518136  1  0  -0.662719  0  1.992954  0  0  -0.589123  0  2.232533  0  0  -0.617334  0  2.225067  0  0  -0.315231  -0.569256  0  2.236916  0
O  O66  1  0.82053602  0.91563280  0.07518340  1  0  -0.662636  0  1.992907  0  0  -0.589032  0  2.232495  0  0  -0.617259  0  2.225067  0  0  -0.315193  -0.569165  0  2.236878  0
O  O67  1  0.32053255  0.41563109  0.42482039  1  0  -0.662747  0  1.992957  0  0  -0.589151  0  2.232527  0  0  -0.617369  0  2.225076  0  0  -0.31526  -0.569283  0  2.236911  0
O  O68  1  0.38623488  0.23663765  0.01270244  1  0  -0.683577  0  1.973494  0  0  -0.616617  0  2.193288  0  0  -0.642621  0  2.184299  0  0  -0.334551  -0.598274  0  2.198626  0
O  O69  1  0.88623759  0.73664210  0.48729119  1  0  -0.683625  0  1.973403  0  0  -0.616668  0  2.19316  0  0  -0.642675  0  2.184173  0  0  -0.334591  -0.598324  0  2.198499  0
O  O70  1  0.61376296  0.76336047  0.98729674  1  0  -0.683636  0  1.973322  0  0  -0.616679  0  2.193118  0  0  -0.642679  0  2.184129  0  0  -0.334598  -0.598336  0  2.198458  0
O  O71  1  0.11376191  0.26336030  0.51270628  1  0  -0.683578  0  1.973527  0  0  -0.616608  0  2.193268  0  0  -0.642614  0  2.184276  0  0  -0.334517  -0.598265  0  2.198607  0
