# generated using pymatgen
data_ZnH12C12S2(NO)10
_symmetry_space_group_name_H-M   'P 1'
_cell_length_a   6.72842543
_cell_length_b   8.83578570
_cell_length_c   10.04927751
_cell_angle_alpha   64.20073845
_cell_angle_beta   76.24775712
_cell_angle_gamma   82.75689521
_symmetry_Int_Tables_number   1
_chemical_formula_structural   ZnH12C12S2(NO)10
_chemical_formula_sum   'Zn1 H12 C12 S2 N10 O10'
_cell_volume   522.29420874
_cell_formula_units_Z   1
loop_
 _symmetry_equiv_pos_site_id
 _symmetry_equiv_pos_as_xyz
  1  'x, y, z'
loop_
 _atom_site_type_symbol
 _atom_site_label
 _atom_site_symmetry_multiplicity
 _atom_site_fract_x
 _atom_site_fract_y
 _atom_site_fract_z
 _atom_site_occupancy
 _atom_site_hle17_bader_spin_density
 _atom_site_hle17_ddec_charge
 _atom_site_hle17_ddec_spin_density
 _atom_site_hle17_ddec_sum_bond_order
 _atom_site_hle17_magmom
 _atom_site_hse06_10hf_bader_spin_density
 _atom_site_hse06_10hf_ddec_charge
 _atom_site_hse06_10hf_ddec_spin_density
 _atom_site_hse06_10hf_ddec_sum_bond_order
 _atom_site_hse06_10hf_magmom
 _atom_site_hse06_bader_spin_density
 _atom_site_hse06_ddec_charge
 _atom_site_hse06_ddec_spin_density
 _atom_site_hse06_ddec_sum_bond_order
 _atom_site_hse06_magmom
 _atom_site_pbe_bader_spin_density
 _atom_site_pbe_cm5_charge
 _atom_site_pbe_ddec_charge
 _atom_site_pbe_ddec_spin_density
 _atom_site_pbe_ddec_sum_bond_order
 _atom_site_pbe_magmom
Zn  Zn0  1  0.50000067  0.00000061  0.49999972  1  0  0.93787  0  1.940684  0  0  0.750798  0  2.382898  0  0  0.791248  0  2.341592  0  0  0.704787  0.722029  0  2.411855  0
H  H1  1  0.20650207  0.30987687  0.52967432  1  0  0.122199  0  0.943693  0  0  0.126779  0  1.012068  0  0  0.130049  0  1.007709  0  0  0.143275  0.124266  0  1.015573  0
H  H2  1  0.79349710  0.69012280  0.47032760  1  0  0.122199  0  0.943699  0  0  0.12677  0  1.012077  0  0  0.13004  0  1.007719  0  0  0.143277  0.124255  0  1.015584  0
H  H3  1  0.16828055  0.08772092  0.00666742  1  0  0.132179  0  0.987852  0  0  0.129723  0  1.064821  0  0  0.134329  0  1.061134  0  0  0.123067  0.125589  0  1.0687  0
H  H4  1  0.83172020  0.91227750  0.99333273  1  0  0.132181  0  0.987819  0  0  0.129749  0  1.064772  0  0  0.134356  0  1.061086  0  0  0.123063  0.125613  0  1.068653  0
H  H5  1  0.40642375  0.88312020  0.88042013  1  0  0.111732  0  0.944245  0  0  0.12059  0  1.003707  0  0  0.122877  0  1.003056  0  0  0.12341  0.11903  0  1.004091  0
H  H6  1  0.59357704  0.11687696  0.11958050  1  0  0.111726  0  0.944312  0  0  0.120607  0  1.003747  0  0  0.122893  0  1.003097  0  0  0.123386  0.119052  0  1.004121  0
H  H7  1  0.14258508  0.74749023  0.54548486  1  0  0.117753  0  0.959138  0  0  0.116773  0  1.03696  0  0  0.120957  0  1.031129  0  0  0.138845  0.113537  0  1.041394  0
H  H8  1  0.85741404  0.25251070  0.45451261  1  0  0.117748  0  0.95918  0  0  0.116737  0  1.037029  0  0  0.120921  0  1.031199  0  0  0.138841  0.113503  0  1.041458  0
H  H9  1  0.33406509  0.38287506  0.94418593  1  0  0.13142  0  0.963465  0  0  0.139594  0  1.025703  0  0  0.142742  0  1.023474  0  0  0.128519  0.137275  0  1.027427  0
H  H10  1  0.66593404  0.61712587  0.05581353  1  0  0.131408  0  0.96347  0  0  0.139585  0  1.025701  0  0  0.14273  0  1.023477  0  0  0.128517  0.137266  0  1.027424  0
H  H11  1  0.59780820  0.65517764  0.79983421  1  0  0.107645  0  0.988502  0  0  0.107419  0  1.064086  0  0  0.111213  0  1.061062  0  0  0.115249  0.104558  0  1.066465  0
H  H12  1  0.40219083  0.34482580  0.20016430  1  0  0.107613  0  0.988519  0  0  0.1074  0  1.064084  0  0  0.11119  0  1.061068  0  0  0.115248  0.104539  0  1.066462  0
C  C13  1  0.23284243  0.22025629  0.63958021  1  0  0.230601  0  3.583595  0  0  0.165725  0  3.85457  0  0  0.182318  0  3.863242  0  0  0.158039  0.154532  0  3.849193  0
C  C14  1  0.76716127  0.77974464  0.36042151  1  0  0.23064  0  3.58356  0  0  0.165773  0  3.854537  0  0  0.182368  0  3.863203  0  0  0.158033  0.15458  0  3.849159  0
C  C15  1  0.21226022  0.09937441  0.89145421  1  0  -0.026338  0  3.623665  0  0  -0.063923  0  3.887323  0  0  -0.062494  0  3.904462  0  0  0.006198  -0.064459  0  3.876369  0
C  C16  1  0.78774052  0.90062400  0.10854694  1  0  -0.026277  0  3.623637  0  0  -0.063894  0  3.887289  0  0  -0.062465  0  3.904432  0  0  0.006198  -0.064431  0  3.876336  0
C  C17  1  0.33096673  0.00303936  0.82596988  1  0  0.041499  0  3.670559  0  0  0.005033  0  3.935992  0  0  0.007016  0  3.955289  0  0  0.009067  0.003762  0  3.922752  0
C  C18  1  0.66903397  0.99696031  0.17402981  1  0  0.041475  0  3.670623  0  0  0.004988  0  3.936068  0  0  0.006972  0  3.955364  0  0  0.009079  0.003718  0  3.922828  0
C  C19  1  0.23135400  0.68833817  0.63326978  1  0  0.23294  0  3.587163  0  0  0.166559  0  3.858618  0  0  0.183348  0  3.866776  0  0  0.157913  0.155543  0  3.853025  0
C  C20  1  0.76864211  0.31166150  0.36672865  1  0  0.232871  0  3.587173  0  0  0.166537  0  3.85863  0  0  0.183327  0  3.866788  0  0  0.157906  0.155521  0  3.853037  0
C  C21  1  0.33863350  0.49722386  0.84130409  1  0  -0.009565  0  3.610224  0  0  -0.051443  0  3.867064  0  0  -0.048201  0  3.883637  0  0  0.004868  -0.053657  0  3.856103  0
C  C22  1  0.66136716  0.50277707  0.15869513  1  0  -0.009584  0  3.610253  0  0  -0.05145  0  3.867089  0  0  -0.048207  0  3.883662  0  0  0.00487  -0.053665  0  3.856129  0
C  C23  1  0.46273736  0.63248782  0.77041880  1  0  0.022028  0  3.686379  0  0  -0.009169  0  3.951337  0  0  -0.007734  0  3.969328  0  0  0.002022  -0.010095  0  3.939391  0
C  C24  1  0.53726172  0.36751437  0.22957919  1  0  0.022138  0  3.686277  0  0  -0.009058  0  3.951236  0  0  -0.007626  0  3.969225  0  0  0.002066  -0.009984  0  3.939289  0
S  S25  1  0.00536411  0.40339946  0.78376144  1  0  1.321425  0  5.385986  0  0  1.195508  0  5.911472  0  0  1.246017  0  5.89513  0  0  0.70918  1.160659  0  5.922251  0
S  S26  1  0.99463370  0.59659514  0.21624859  1  0  1.321528  0  5.385798  0  0  1.195619  0  5.911298  0  0  1.246125  0  5.894955  0  0  0.709151  1.160765  0  5.922082  0
N  N27  1  0.34271351  0.07934677  0.67074090  1  0  -0.338861  0  3.229723  0  0  -0.26676  0  3.511717  0  0  -0.285391  0  3.527197  0  0  -0.331406  -0.253749  0  3.501198  0
N  N28  1  0.65728719  0.92065291  0.32925878  1  0  -0.338867  0  3.229749  0  0  -0.266767  0  3.511754  0  0  -0.285397  0  3.52723  0  0  -0.331397  -0.253759  0  3.501236  0
N  N29  1  0.14860713  0.23741966  0.77142771  1  0  -0.2656  0  3.500661  0  0  -0.178143  0  3.74573  0  0  -0.197373  0  3.764934  0  0  -0.247814  -0.165343  0  3.73258  0
N  N30  1  0.85139663  0.76258002  0.22857249  1  0  -0.265752  0  3.500741  0  0  -0.178276  0  3.745815  0  0  -0.197505  0  3.765011  0  0  -0.247806  -0.165472  0  3.732658  0
N  N31  1  0.19161609  0.53360555  0.75322826  1  0  -0.26173  0  3.479254  0  0  -0.174701  0  3.727738  0  0  -0.193886  0  3.746241  0  0  -0.246461  -0.161809  0  3.714992  0
N  N32  1  0.80838303  0.46639538  0.24677120  1  0  -0.261732  0  3.479256  0  0  -0.174723  0  3.727742  0  0  -0.193905  0  3.746241  0  0  -0.246462  -0.16183  0  3.714996  0
N  N33  1  0.39366445  0.74951740  0.64279702  1  0  -0.348525  0  3.233849  0  0  -0.274509  0  3.511221  0  0  -0.293546  0  3.52705  0  0  -0.332983  -0.261594  0  3.500196  0
N  N34  1  0.60633162  0.25048352  0.35720194  1  0  -0.348467  0  3.233688  0  0  -0.274478  0  3.511085  0  0  -0.293513  0  3.526911  0  0  -0.332978  -0.261563  0  3.500062  0
N  N35  1  0.19087599  0.06523075  0.29012293  1  0  0.697857  0  4.128081  0  0  0.744938  0  4.405875  0  0  0.773322  0  4.410309  0  0  0.099611  0.725686  0  4.40225  0
N  N36  1  0.80912467  0.93477018  0.70987729  1  0  0.697985  0  4.127937  0  0  0.744931  0  4.405891  0  0  0.773314  0  4.410329  0  0  0.099594  0.725681  0  4.402269  0
O  O37  1  0.91144081  0.47963240  0.65591524  1  0  -0.539789  0  1.993903  0  0  -0.491564  0  2.242166  0  0  -0.512799  0  2.231838  0  0  -0.260473  -0.47699  0  2.249113  0
O  O38  1  0.08855836  0.52036728  0.34408170  1  0  -0.53972  0  1.994413  0  0  -0.491478  0  2.242669  0  0  -0.512703  0  2.232336  0  0  -0.260416  -0.4769  0  2.249619  0
O  O39  1  0.89693642  0.34899980  0.93604090  1  0  -0.521107  0  1.977417  0  0  -0.472937  0  2.219285  0  0  -0.493919  0  2.211233  0  0  -0.251855  -0.458669  0  2.224729  0
O  O40  1  0.10306127  0.65099862  0.06395576  1  0  -0.521187  0  1.976731  0  0  -0.47307  0  2.218659  0  0  -0.49406  0  2.210612  0  0  -0.251898  -0.458801  0  2.224102  0
O  O41  1  0.22024868  0.07992133  0.40636804  1  0  -0.515414  0  1.84359  0  0  -0.496237  0  2.096312  0  0  -0.514029  0  2.086975  0  0  -0.215465  -0.483551  0  2.102768  0
O  O42  1  0.77974906  0.92007581  0.59363407  1  0  -0.515453  0  1.843553  0  0  -0.496231  0  2.096332  0  0  -0.514028  0  2.086997  0  0  -0.215457  -0.483522  0  2.102733  0
O  O43  1  0.16739659  0.19791209  0.17479697  1  0  -0.470286  0  1.750265  0  0  -0.472137  0  1.965277  0  0  -0.48546  0  1.958528  0  0  -0.198429  -0.462097  0  1.969808  0
O  O44  1  0.83260702  0.80209136  0.82520281  1  0  -0.470278  0  1.750181  0  0  -0.472108  0  1.965267  0  0  -0.485421  0  1.958502  0  0  -0.198408  -0.462066  0  1.969793  0
O  O45  1  0.18522563  0.92238306  0.29327648  1  0  -0.441008  0  1.73588  0  0  -0.442519  0  1.937315  0  0  -0.454987  0  1.931937  0  0  -0.186786  -0.433457  0  1.941112  0
O  O46  1  0.81477345  0.07761913  0.70672151  1  0  -0.441118  0  1.735922  0  0  -0.442559  0  1.93739  0  0  -0.455024  0  1.932006  0  0  -0.186784  -0.433497  0  1.941182  0
