# generated using pymatgen
data_CuP2H36(C4O)4
_symmetry_space_group_name_H-M   'P 1'
_cell_length_a   9.67782717
_cell_length_b   9.71583605
_cell_length_c   12.24500000
_cell_angle_alpha   93.82718504
_cell_angle_beta   106.01632981
_cell_angle_gamma   101.12650233
_symmetry_Int_Tables_number   1
_chemical_formula_structural   CuP2H36(C4O)4
_chemical_formula_sum   'Cu2 P4 H72 C32 O8'
_cell_volume   1077.05600960
_cell_formula_units_Z   2
loop_
 _symmetry_equiv_pos_site_id
 _symmetry_equiv_pos_as_xyz
  1  'x, y, z'
loop_
 _atom_site_type_symbol
 _atom_site_label
 _atom_site_symmetry_multiplicity
 _atom_site_fract_x
 _atom_site_fract_y
 _atom_site_fract_z
 _atom_site_occupancy
 _atom_site_hle17_ddec_charge
 _atom_site_hle17_ddec_spin_density
 _atom_site_hle17_ddec_sum_bond_order
 _atom_site_hle17_magmom
 _atom_site_hse06_10hf_ddec_charge
 _atom_site_hse06_10hf_ddec_spin_density
 _atom_site_hse06_10hf_ddec_sum_bond_order
 _atom_site_hse06_10hf_magmom
 _atom_site_hse06_ddec_charge
 _atom_site_hse06_ddec_spin_density
 _atom_site_hse06_ddec_sum_bond_order
 _atom_site_hse06_magmom
 _atom_site_pbe_bader_charge
 _atom_site_pbe_bader_spin_density
 _atom_site_pbe_cm5_charge
 _atom_site_pbe_ddec_charge
 _atom_site_pbe_ddec_spin_density
 _atom_site_pbe_ddec_sum_bond_order
 _atom_site_pbe_magmom
Cu  Cu0  1  0.74064939  0.97262089  0.98858790  1  1.084711  0.706361  1.70155  0.543  1.099988  0.804002  2.089435  0.669  1.182255  0.86441  2.028021  0.755  1.140802  0.612036  0.75119  1.038663  0.758477  2.143374  0.61
Cu  Cu1  1  0.25934816  0.02737702  0.01141538  1  1.084849  0.706356  1.701099  0.543  1.100109  0.80403  2.088949  0.669  1.182362  0.864469  2.027554  0.755  1.140911  0.612132  0.751359  1.038814  0.758542  2.142745  0.61
P  P2  1  0.47580666  0.09069729  0.85692341  1  1.29009  -0.00031  4.571663  -0.005  1.188345  0.004832  5.046334  0.0  1.232035  0.002816  5.02492  0.0  2.984369  0.003629  0.286532  1.157621  0.006908  5.059786  0.0
P  P3  1  0.52416713  0.90930485  0.14308798  1  1.289896  -0.000328  4.571744  -0.005  1.188262  0.004834  5.046377  0.0  1.23195  0.002818  5.024971  0.0  2.984267  0.00363  0.286475  1.157538  0.006909  5.059826  0.0
P  P4  1  0.96238316  0.04740084  0.84018101  1  1.28695  -0.000282  4.567506  -0.005  1.185246  0.004786  5.042146  0.0  1.228903  0.002789  5.021001  0.0  2.975713  0.003719  0.287706  1.15438  0.006846  5.055596  0.0
P  P5  1  0.03763100  0.95259919  0.15982029  1  1.287099  -0.000284  4.567463  -0.005  1.18536  0.004782  5.04215  0.0  1.229023  0.002787  5.020991  0.0  2.975847  0.003713  0.287803  1.154496  0.006843  5.055589  0.0
H  H6  1  0.33600886  0.24153901  0.75338814  1  0.117539  0.000868  0.939122  0.001  0.13567  0.00076  0.993965  0.001  0.136477  0.000492  0.995392  0.001  0.054129  0.002231  0.103603  0.134711  0.001025  0.993401  0.001
H  H7  1  0.66399660  0.75846525  0.24661475  1  0.117494  0.000842  0.939126  0.001  0.135609  0.00076  0.994007  0.001  0.136411  0.000491  0.995448  0.001  0.054134  0.002229  0.103575  0.134651  0.001024  0.993446  0.001
H  H8  1  0.48180115  0.21931124  0.69665420  1  0.106409  -0.000288  0.963425  0.0  0.122123  6.8e-05  1.025508  0.0  0.12343  4e-05  1.026342  0.0  0.033634  0.000286  0.098563  0.12111  7.2e-05  1.024899  0.0
H  H9  1  0.51819786  0.78069302  0.30334810  1  0.106298  -0.000297  0.963423  0.0  0.122013  6.8e-05  1.025546  0.0  0.123322  4e-05  1.026379  0.0  0.033602  0.000286  0.098516  0.121001  7.3e-05  1.024939  0.0
H  H10  1  0.66564183  0.37104130  0.87178554  1  0.060518  0.000161  0.935746  0.0  0.081416  0.000137  0.993457  0.0  0.081647  9.1e-05  0.994417  0.0  0.007953  0.000294  0.08977  0.080974  0.000175  0.993191  0.0
H  H11  1  0.33435645  0.62895978  0.12821888  1  0.060551  0.000159  0.935858  0.0  0.081453  0.000137  0.993558  0.0  0.081681  9.1e-05  0.994522  0.0  0.007987  0.000294  0.089775  0.08101  0.000174  0.993292  0.0
H  H12  1  0.51995923  0.39803337  0.92461442  1  0.062736  0.000151  0.930787  0.0  0.083706  0.000139  0.987433  0.0  0.083893  0.000101  0.988437  0.0  0.013005  0.000284  0.090965  0.08375  0.000177  0.986204  0.0
H  H13  1  0.48003989  0.60196665  0.07538767  1  0.062681  0.000149  0.930803  0.0  0.083672  0.00014  0.987441  0.0  0.083859  0.000102  0.988444  0.0  0.013016  0.000284  0.09094  0.083713  0.000177  0.986214  0.0
H  H14  1  0.56177679  0.48457129  0.69704174  1  0.046244  -1e-06  0.935694  0.0  0.068482  1.1e-05  0.991516  0.0  0.068969  7e-06  0.992348  0.0  0.003855  4.5e-05  0.081516  0.068263  1.4e-05  0.990531  0.0
H  H15  1  0.43822617  0.51543614  0.30296567  1  0.046239  1.2e-05  0.935776  0.0  0.068481  1.2e-05  0.991566  0.0  0.068989  7e-06  0.992382  0.0  0.004154  4.6e-05  0.081546  0.068254  1.5e-05  0.990586  0.0
H  H16  1  0.41794728  0.51315816  0.75155967  1  0.044302  1e-05  0.957253  0.0  0.064036  2.7e-05  1.020611  0.0  0.064296  2.2e-05  1.021706  0.0  -0.010415  7.7e-05  0.081995  0.063664  4.5e-05  1.020141  0.0
H  H17  1  0.58205735  0.48684715  0.24844636  1  0.044297  2.2e-05  0.957255  0.0  0.064038  2.7e-05  1.020599  0.0  0.064306  2.2e-05  1.021694  0.0  -0.010091  7.7e-05  0.082022  0.063664  4.5e-05  1.020127  0.0
H  H18  1  0.60389244  0.66631381  0.92560681  1  0.098135  -0.00019  0.969328  0.0  0.114592  -0.000209  1.041709  0.0  0.116607  -0.000205  1.04038  0.0  0.024379  -0.000106  0.083002  0.113482  -0.00017  1.041921  0.0
H  H19  1  0.39610858  0.33368516  0.07439810  1  0.097865  -0.000174  0.96927  0.0  0.114393  -0.000209  1.041602  0.0  0.11641  -0.000206  1.040267  0.0  0.024463  -0.000107  0.082891  0.113282  -0.000171  1.041817  0.0
H  H20  1  0.74873334  0.63973842  0.86932123  1  0.089718  2.9e-05  0.958634  0.0  0.111478  2.4e-05  1.022823  0.0  0.112708  1.2e-05  1.023012  0.0  0.016433  2.8e-05  0.081784  0.110504  2.3e-05  1.022791  0.0
H  H21  1  0.25126671  0.36025632  0.13069059  1  0.08967  5e-05  0.958575  0.0  0.111417  2.4e-05  1.022798  0.0  0.112645  1.2e-05  1.022989  0.0  0.016486  2.8e-05  0.081761  0.110439  2.2e-05  1.022773  0.0
H  H22  1  0.61883982  0.73330804  0.79759039  1  0.092253  -0.000215  0.97136  0.0  0.110246  -0.00026  1.041364  0.0  0.111885  -0.000256  1.040394  0.0  0.025198  -0.000187  0.082857  0.109558  -0.000226  1.040935  0.0
H  H23  1  0.38117043  0.26669833  0.20241855  1  0.092229  -0.000207  0.971398  0.0  0.110212  -0.00026  1.041417  0.0  0.111849  -0.000256  1.04045  0.0  0.02511  -0.000188  0.082835  0.109522  -0.000227  1.040991  0.0
H  H24  1  0.37270427  0.84620455  0.81905936  1  0.132921  -0.000107  0.940075  0.0  0.149532  -0.0001  0.99717  0.0  0.150701  -0.000128  0.99819  0.0  0.079261  1.2e-05  0.110392  0.148783  -7.9e-05  0.996185  0.0
H  H25  1  0.62729152  0.15379971  0.18093897  1  0.13289  -0.000107  0.94  0.0  0.149521  -0.000101  0.997114  0.0  0.15069  -0.000129  0.998134  0.0  0.079175  1.2e-05  0.110382  0.148773  -7.9e-05  0.996128  0.0
H  H26  1  0.24820182  0.94274062  0.74288419  1  0.132219  -0.000167  0.954431  0.0  0.147567  -8.7e-05  1.012178  0.0  0.150203  -0.0001  1.011606  0.0  0.082075  -8e-05  0.102453  0.14563  -4.1e-05  1.01243  0.0
H  H27  1  0.75179622  0.05725940  0.25711767  1  0.132274  -0.000192  0.954417  0.0  0.147618  -8.7e-05  1.012194  0.0  0.150259  -0.0001  1.011619  0.0  0.082125  -8e-05  0.10246  0.14568  -4.1e-05  1.012447  0.0
H  H28  1  0.41358960  0.99109538  0.60940526  1  0.044923  -1.1e-05  0.951013  0.0  0.064419  7e-06  1.015618  0.0  0.064984  1e-05  1.016094  0.0  0.00772  3.4e-05  0.083712  0.063735  1e-05  1.015818  0.0
H  H29  1  0.58641537  0.00890676  0.39059741  1  0.044911  -3e-06  0.950919  0.0  0.064399  7e-06  1.015564  0.0  0.064964  1e-05  1.016042  0.0  0.007739  3.4e-05  0.083677  0.063726  1e-05  1.015755  0.0
H  H30  1  0.52423528  0.88354377  0.68450535  1  0.061075  -6.3e-05  0.940744  0.0  0.082001  -6.4e-05  0.998626  0.0  0.082355  -6.1e-05  0.999513  0.0  0.023231  -4e-06  0.089625  0.081594  -2.3e-05  0.997913  0.0
H  H31  1  0.47576061  0.11645625  0.31549604  1  0.061068  -6.3e-05  0.940745  0.0  0.081996  -6.4e-05  0.998633  0.0  0.082356  -6.1e-05  0.999514  0.0  0.023144  -5e-06  0.0896  0.081608  -2.3e-05  0.997898  0.0
H  H32  1  0.30127860  0.67841440  0.62605688  1  0.055979  -3e-06  0.941862  0.0  0.077216  1e-05  1.000217  0.0  0.076937  1.1e-05  1.00224  0.0  0.021337  -2e-06  0.087762  0.077031  2e-06  0.999389  0.0
H  H33  1  0.69871420  0.32159091  0.37393921  1  0.055989  -4e-06  0.941813  0.0  0.077169  1e-05  1.000205  0.0  0.076889  1.1e-05  1.002231  0.0  0.021605  -2e-06  0.08774  0.076987  3e-06  0.999376  0.0
H  H34  1  0.19604749  0.78917041  0.54959020  1  0.05019  -3.1e-05  0.936242  0.0  0.072361  -4e-06  0.992465  0.0  0.072578  -1e-06  0.993623  0.0  -0.005255  8e-06  0.084312  0.072068  -4e-06  0.991509  0.0
H  H35  1  0.80395142  0.21083808  0.45040086  1  0.050187  -7e-06  0.936303  0.0  0.072365  -3e-06  0.992464  0.0  0.072585  -1e-06  0.993616  0.0  -0.004888  8e-06  0.084317  0.072072  -4e-06  0.991509  0.0
H  H36  1  0.46769419  0.70768022  0.49994709  1  0.089102  3e-06  0.954234  0.0  0.11148  -1e-06  1.015467  0.0  0.112576  -0.0  1.015875  0.0  0.014844  6e-06  0.084381  0.110749  -3e-06  1.014866  0.0
H  H37  1  0.53231152  0.29232509  0.50005917  1  0.089143  -5e-06  0.954133  0.0  0.111506  -0.0  1.015379  0.0  0.1126  0.0  1.015789  0.0  0.014726  6e-06  0.084411  0.110775  -3e-06  1.014779  0.0
H  H38  1  0.36878516  0.82575982  0.42510318  1  0.085276  8e-06  0.968821  0.0  0.105908  2.1e-05  1.03528  0.0  0.107229  1.5e-05  1.035396  0.0  0.003288  6.8e-05  0.081628  0.104748  3.8e-05  1.035648  0.0
H  H39  1  0.63123036  0.17425078  0.57489734  1  0.085105  7e-06  0.968907  0.0  0.105784  2.1e-05  1.035317  0.0  0.107105  1.5e-05  1.035431  0.0  0.003392  6.8e-05  0.081591  0.104622  3.8e-05  1.035687  0.0
H  H40  1  0.28146553  0.64538155  0.41492113  1  0.090258  2.6e-05  0.956746  0.0  0.112858  7e-06  1.016233  0.0  0.114114  1e-06  1.016448  0.0  0.02919  3.7e-05  0.084654  0.111874  1.5e-05  1.016155  0.0
H  H41  1  0.71854579  0.35462482  0.58507661  1  0.090403  2.1e-05  0.956676  0.0  0.112913  7e-06  1.016254  0.0  0.114166  1e-06  1.016473  0.0  0.029098  3.7e-05  0.084713  0.111929  1.4e-05  1.016176  0.0
H  H42  1  0.76986765  0.02369672  0.66348183  1  0.113415  0.000839  0.94445  0.001  0.130402  0.00076  1.000579  0.001  0.131387  0.000496  1.00184  0.001  0.051954  0.002277  0.100698  0.129554  0.001038  0.999876  0.001
H  H43  1  0.23013518  0.97630542  0.33651220  1  0.113458  0.000843  0.944496  0.001  0.13041  0.00076  1.000637  0.001  0.131392  0.000495  1.001902  0.001  0.05187  0.002277  0.100734  0.129563  0.001038  0.999934  0.001
H  H44  1  0.94686412  0.07847509  0.64413956  1  0.108261  -0.000306  0.949899  0.0  0.123953  6.4e-05  1.008453  0.0  0.125679  3.9e-05  1.008766  0.0  0.030892  0.000305  0.098458  0.122708  7.7e-05  1.008076  0.0
H  H45  1  0.05314946  0.92152705  0.35586743  1  0.108259  -0.00029  0.949934  0.0  0.12396  6.5e-05  1.008443  0.0  0.125686  3.9e-05  1.008755  0.0  0.031026  0.000305  0.098434  0.122718  7.7e-05  1.008061  0.0
H  H46  1  0.99282321  0.83232303  0.68048059  1  0.063041  0.000139  0.942068  0.0  0.083174  0.000132  1.001778  0.0  0.083252  9.1e-05  1.002961  0.0  0.040738  0.000269  0.090956  0.083154  0.000178  1.000809  0.0
H  H47  1  0.00718558  0.16767699  0.31951871  1  0.063084  0.00013  0.942121  0.0  0.083178  0.000132  1.001852  0.0  0.083254  9.1e-05  1.003044  0.0  0.040838  0.000268  0.090974  0.083157  0.000178  1.000885  0.0
H  H48  1  0.81053895  0.78004473  0.68539834  1  0.067705  0.00015  0.929772  0.0  0.090881  0.000136  0.982175  0.0  0.090882  9.8e-05  0.983527  0.0  0.030009  0.000266  0.093314  0.091097  0.000167  0.980696  0.0
H  H49  1  0.18946769  0.21995529  0.31459968  1  0.067657  0.000133  0.929737  0.0  0.090839  0.000137  0.982142  0.0  0.090855  9.8e-05  0.983476  0.0  0.030311  0.000266  0.093295  0.091055  0.000167  0.980666  0.0
H  H50  1  0.71687475  0.82972673  0.48203409  1  0.047476  5e-06  0.949657  0.0  0.066942  3.2e-05  1.012777  0.0  0.067149  1.7e-05  1.013929  0.0  -0.008972  0.000116  0.082627  0.066695  5.4e-05  1.011907  0.0
H  H51  1  0.28312821  0.17028070  0.51796760  1  0.047497  3e-06  0.9496  0.0  0.066954  3.2e-05  1.012734  0.0  0.067162  1.8e-05  1.013887  0.0  -0.008963  0.000116  0.08261  0.066706  5.4e-05  1.011865  0.0
H  H52  1  0.89919224  0.88542094  0.47785494  1  0.048606  -2.3e-05  0.940065  0.0  0.069163  -7e-06  0.999159  0.0  0.069802  -6e-06  0.999534  0.0  0.005762  4.3e-05  0.082609  0.068842  -3e-06  0.998317  0.0
H  H53  1  0.10081048  0.11458543  0.52214502  1  0.048597  -3.8e-05  0.939985  0.0  0.069142  -6e-06  0.9991  0.0  0.069785  -6e-06  0.999468  0.0  0.005845  4.3e-05  0.082592  0.068821  -2e-06  0.998259  0.0
H  H54  1  0.75984498  0.58568659  0.51604949  1  0.088885  -1.8e-05  0.958465  0.0  0.111728  -2e-06  1.018471  0.0  0.112639  -3e-06  1.019199  0.0  0.015201  3e-06  0.084251  0.111122  -1e-05  1.017615  0.0
H  H55  1  0.24015785  0.41431555  0.48393964  1  0.088812  9e-06  0.958572  0.0  0.111633  -2e-06  1.018612  0.0  0.112553  -3e-06  1.019325  0.0  0.015061  3e-06  0.084224  0.111027  -1e-05  1.017756  0.0
H  H56  1  0.94432856  0.64117458  0.51309942  1  0.085245  -9e-06  0.961682  0.0  0.105309  -7e-06  1.027068  0.0  0.106453  -5e-06  1.027329  0.0  0.034335  1.2e-05  0.081919  0.104439  -5e-06  1.02688  0.0
H  H57  1  0.05567583  0.35882967  0.48689098  1  0.085222  -4e-06  0.96173  0.0  0.10528  -7e-06  1.027124  0.0  0.106417  -5e-06  1.027389  0.0  0.034387  1.2e-05  0.081928  0.104411  -5e-06  1.026936  0.0
H  H58  1  0.79591393  0.63258826  0.38748421  1  0.08613  3.7e-05  0.978409  0.0  0.104507  4.2e-05  1.04928  0.0  0.105652  2.2e-05  1.049719  0.0  0.02286  9.8e-05  0.08219  0.103428  6.5e-05  1.049403  0.0
H  H59  1  0.20408917  0.36742445  0.61250963  1  0.086044  5.5e-05  0.978458  0.0  0.104439  4.2e-05  1.049321  0.0  0.105572  2.2e-05  1.049768  0.0  0.023071  9.8e-05  0.082137  0.103361  6.5e-05  1.049442  0.0
H  H60  1  0.00278410  0.24584856  0.97467198  1  0.131831  -0.000118  0.931141  0.0  0.147664  -0.000134  0.988993  0.0  0.149254  -0.000155  0.98915  0.0  0.051426  -2.3e-05  0.109576  0.146524  -0.00011  0.988898  0.0
H  H61  1  0.99721238  0.75414935  0.02532943  1  0.131845  -0.000128  0.931138  0.0  0.147682  -0.000134  0.989  0.0  0.149268  -0.000156  0.989161  0.0  0.05145  -2.3e-05  0.10959  0.146541  -0.000111  0.988901  0.0
H  H62  1  0.84577186  0.23950744  0.85702088  1  0.132255  -0.000144  0.954232  0.0  0.146455  -8.1e-05  1.013448  0.0  0.149161  -9.7e-05  1.012791  0.0  0.090441  -8e-05  0.10247  0.14431  -4.1e-05  1.014217  0.0
H  H63  1  0.15421900  0.76048941  0.14297598  1  0.132282  -0.000152  0.954233  0.0  0.146529  -8.1e-05  1.013411  0.0  0.149234  -9.7e-05  1.012749  0.0  0.090484  -8e-05  0.102491  0.144384  -4.1e-05  1.014174  0.0
H  H64  1  0.17027917  0.32223708  0.85479346  1  0.065895  -9.9e-05  0.930337  0.0  0.087253  -9.1e-05  0.986226  0.0  0.087574  -8.5e-05  0.987405  0.0  0.025681  -2.1e-05  0.091393  0.086705  -4.6e-05  0.985796  0.0
H  H65  1  0.82971703  0.67775025  0.14520815  1  0.065963  -9.4e-05  0.930243  0.0  0.087322  -9.1e-05  0.986156  0.0  0.087646  -8.4e-05  0.987331  0.0  0.025691  -2.1e-05  0.091429  0.08677  -4.6e-05  0.985727  0.0
H  H66  1  0.01689110  0.31648502  0.73485630  1  0.048877  -7e-06  0.939287  0.0  0.071977  6e-06  0.995364  0.0  0.072265  8e-06  0.996421  0.0  0.009016  1e-05  0.085415  0.071486  -4e-06  0.994997  0.0
H  H67  1  0.98310569  0.68350020  0.26513960  1  0.048868  8e-06  0.939336  0.0  0.071985  6e-06  0.995401  0.0  0.072271  9e-06  0.996462  0.0  0.009068  1e-05  0.085455  0.071497  -4e-06  0.995029  0.0
H  H68  1  0.09498840  0.51022555  0.96088971  1  0.054454  -1.6e-05  0.949947  0.0  0.073422  1.3e-05  1.013011  0.0  0.073318  1.6e-05  1.014804  0.0  -0.011949  1e-06  0.087293  0.073115  7e-06  1.012399  0.0
H  H69  1  0.90500148  0.48976707  0.03910427  1  0.054461  -5e-06  0.949897  0.0  0.073353  1.3e-05  1.013014  0.0  0.073248  1.6e-05  1.014807  0.0  -0.011966  2e-06  0.087291  0.073046  7e-06  1.0124  0.0
H  H70  1  0.93992291  0.50300877  0.84263349  1  0.049625  -2.9e-05  0.93393  0.0  0.071376  3e-06  0.990422  0.0  0.071745  7e-06  0.991097  0.0  0.003447  -2e-06  0.084384  0.070959  2e-06  0.989987  0.0
H  H71  1  0.06007246  0.49697962  0.15735819  1  0.049612  2e-06  0.933914  0.0  0.071313  4e-06  0.990439  0.0  0.071685  7e-06  0.991107  0.0  0.003499  -2e-06  0.084318  0.070898  2e-06  0.989999  0.0
H  H72  1  0.11026465  0.58148280  0.72242190  1  0.081549  5e-06  0.963037  0.0  0.10191  4e-06  1.029701  0.0  0.103201  3e-06  1.030065  0.0  -0.013127  -1e-06  0.07998  0.100747  -1e-06  1.029961  0.0
H  H73  1  0.88972953  0.41850983  0.27757383  1  0.081527  4e-06  0.963158  0.0  0.101937  4e-06  1.029765  0.0  0.103224  3e-06  1.030131  0.0  -0.013379  -1e-06  0.080027  0.100772  -1e-06  1.030025  0.0
H  H74  1  0.26433655  0.59264533  0.84479799  1  0.092387  3.1e-05  0.955925  0.0  0.115836  3.7e-05  1.014898  0.0  0.116849  2.9e-05  1.015657  0.0  0.039632  4.7e-05  0.085131  0.115047  3.7e-05  1.014432  0.0
H  H75  1  0.73565455  0.40735258  0.15519735  1  0.092424  2.7e-05  0.956001  0.0  0.115859  3.7e-05  1.014992  0.0  0.116875  2.9e-05  1.015744  0.0  0.039996  4.7e-05  0.08515  0.115069  3.8e-05  1.014527  0.0
H  H76  1  0.14133854  0.70660680  0.84396685  1  0.099173  -0.000166  0.955689  0.0  0.116779  -0.000216  1.02455  0.0  0.118544  -0.000193  1.023131  0.0  0.046449  -0.000123  0.087901  0.115875  -0.000205  1.025049  0.0
H  H77  1  0.85864978  0.29338371  0.15602586  1  0.099268  -0.00016  0.95568  0.0  0.116863  -0.000216  1.024551  0.0  0.118615  -0.000193  1.023149  0.0  0.046315  -0.000121  0.087948  0.115959  -0.000203  1.025049  0.0
C  C78  1  0.45386013  0.23930756  0.77660512  1  -0.407862  0.011881  3.666812  0.013  -0.431993  0.007142  3.917293  0.008  -0.441753  0.004492  3.929411  0.005  -0.523967  0.015623  -0.168602  -0.424746  0.009602  3.908493  0.01
C  C79  1  0.54614495  0.76069035  0.22339735  1  -0.407594  0.011945  3.666614  0.013  -0.431774  0.007146  3.917209  0.008  -0.441539  0.004494  3.929328  0.005  -0.523951  0.015629  -0.168488  -0.424533  0.009606  3.908418  0.01
C  C80  1  0.54931701  0.37916441  0.84494396  1  -0.056035  -0.000556  3.691741  -0.001  -0.092408  0.000116  3.944775  0.0  -0.092115  8e-05  3.960147  0.0  0.015641  0.000251  -0.159112  -0.092159  0.000196  3.933144  0.0
C  C81  1  0.45067947  0.62083350  0.15506153  1  -0.056052  -0.000549  3.691878  -0.001  -0.092431  0.000114  3.944908  0.0  -0.092138  8.3e-05  3.9603  0.0  0.015494  0.000251  -0.159108  -0.092183  0.000195  3.933273  0.0
C  C82  1  0.53425081  0.50483940  0.77744301  1  -0.063739  0.000217  3.730438  0.0  -0.09599  5.4e-05  3.98854  0.0  -0.097123  -5e-06  4.005322  0.0  0.034539  0.000138  -0.169894  -0.094526  0.000117  3.975885  0.0
C  C83  1  0.46575045  0.49516062  0.22256037  1  -0.063686  0.000179  3.730568  0.0  -0.095923  5.3e-05  3.988615  0.0  -0.097088  -6e-06  4.005422  0.0  0.03407  0.000138  -0.169847  -0.094445  0.000117  3.97595  0.0
C  C84  1  0.63135035  0.64310992  0.84594498  1  -0.295924  -0.000442  3.726387  0.0  -0.374501  -0.000603  3.984656  0.0  -0.376237  -0.000607  3.993778  0.0  -0.079127  -0.000223  -0.253005  -0.372919  -0.000479  3.97712  0.0
C  C85  1  0.36865331  0.35689117  0.15406388  1  -0.295622  -0.000541  3.72619  0.0  -0.374259  -0.000602  3.984471  0.0  -0.375992  -0.000604  3.993609  0.0  -0.079246  -0.000224  -0.252911  -0.372678  -0.000481  3.976934  0.0
C  C86  1  0.36335362  0.93181816  0.76473454  1  -0.434504  0.000824  3.667691  0.002  -0.458517  -2.3e-05  3.918679  0.001  -0.467925  -0.000586  3.929589  0.0  -0.582801  0.002165  -0.173344  -0.451775  0.000623  3.910885  0.002
C  C87  1  0.63664598  0.06818398  0.23526368  1  -0.434393  0.00087  3.667423  0.002  -0.45851  -2.6e-05  3.918577  0.001  -0.467918  -0.000589  3.929485  0.0  -0.58249  0.002165  -0.173292  -0.451768  0.000624  3.91079  0.002
C  C88  1  0.41065816  0.89953829  0.65801424  1  -0.055526  0.000136  3.699089  0.0  -0.09536  -5.1e-05  3.956933  0.0  -0.09545  -0.000161  3.972615  0.0  -0.012518  0.000152  -0.160888  -0.09537  0.000117  3.946499  0.0
C  C89  1  0.58933714  0.10046385  0.34198550  1  -0.055527  0.000106  3.698971  0.0  -0.095384  -4.8e-05  3.956846  0.0  -0.095483  -0.00016  3.972531  0.0  -0.01252  0.000152  -0.160816  -0.095411  0.000117  3.946419  0.0
C  C90  1  0.30843062  0.77007936  0.57795911  1  -0.05992  0.000292  3.701258  0.0  -0.090687  0.000125  3.957953  0.0  -0.091809  6.1e-05  3.974824  0.0  0.022979  0.000325  -0.16536  -0.089989  0.000243  3.946888  0.0
C  C91  1  0.69156971  0.22992596  0.42203781  1  -0.059963  0.000257  3.701259  0.0  -0.090589  0.000124  3.95778  0.0  -0.091709  6e-05  3.974651  0.0  0.022319  0.000325  -0.165328  -0.089897  0.000243  3.946728  0.0
C  C92  1  0.35908037  0.73504667  0.47386088  1  -0.291257  4.3e-05  3.74282  0.0  -0.366453  3.5e-05  3.992104  0.0  -0.369027  1e-05  4.003325  0.0  -0.073264  0.000151  -0.247162  -0.364695  0.000101  3.984863  0.0
C  C93  1  0.64092821  0.26496182  0.52613801  1  -0.291281  7.8e-05  3.742702  0.0  -0.366453  3.4e-05  3.991957  0.0  -0.369022  1e-05  4.003174  0.0  -0.073109  0.00015  -0.247257  -0.364694  0.000101  3.98472  0.0
C  C94  1  0.88231000  0.00472306  0.68565018  1  -0.400873  0.011558  3.657121  0.012  -0.424308  0.006941  3.91001  0.007  -0.433891  0.004409  3.921539  0.005  -0.526666  0.015279  -0.166848  -0.41702  0.009421  3.901661  0.01
C  C95  1  0.11769161  0.99527379  0.31434902  1  -0.400982  0.011537  3.657224  0.012  -0.424315  0.006937  3.909955  0.007  -0.433901  0.004407  3.921495  0.005  -0.526553  0.015272  -0.166876  -0.417022  0.009416  3.901589  0.01
C  C96  1  0.88118554  0.85135063  0.64657060  1  -0.066636  -0.000487  3.694752  -0.001  -0.104399  0.000179  3.947235  0.0  -0.104007  0.000122  3.962693  0.0  -0.023601  0.000306  -0.161785  -0.104507  0.000235  3.935809  0.0
C  C97  1  0.11881895  0.14864940  0.35342777  1  -0.066649  -0.000434  3.69469  -0.001  -0.104401  0.000176  3.947125  0.0  -0.104017  0.00012  3.962581  0.0  -0.024267  0.000306  -0.161804  -0.104506  0.000234  3.935698  0.0
C  C98  1  0.82930682  0.81265984  0.51653231  1  -0.061751  0.0002  3.716895  0.0  -0.095414  7.8e-05  3.981161  0.0  -0.096423  1.3e-05  3.997296  0.0  0.028106  0.000238  -0.168097  -0.094214  0.000151  3.968986  0.0
C  C99  1  0.17069385  0.18734230  0.48346371  1  -0.061733  0.000231  3.716699  0.0  -0.095395  7.7e-05  3.980938  0.0  -0.096408  1.2e-05  3.997071  0.0  0.028115  0.000237  -0.168045  -0.094195  0.00015  3.968766  0.0
C  C100  1  0.83239874  0.65989443  0.48095344  1  -0.29061  0.000141  3.739914  0.0  -0.366461  6.7e-05  3.990097  0.0  -0.368936  2.7e-05  4.001711  0.0  -0.092867  0.00022  -0.247527  -0.36441  0.000123  3.981635  0.0
C  C101  1  0.16760481  0.34011088  0.51904010  1  -0.290445  5.9e-05  3.740022  0.0  -0.366275  6.7e-05  3.990144  0.0  -0.368759  2.7e-05  4.001807  0.0  -0.093028  0.00022  -0.247479  -0.364225  0.000123  3.98168  0.0
C  C102  1  0.96142520  0.22995874  0.88033143  1  -0.432782  0.000635  3.670814  0.002  -0.456506  -0.00012  3.925548  0.001  -0.465817  -0.000651  3.936035  0.0  -0.573356  0.002089  -0.17204  -0.449887  0.000556  3.918522  0.002
C  C103  1  0.03856552  0.77003282  0.11966920  1  -0.432832  0.000662  3.670982  0.002  -0.456592  -0.000119  3.925711  0.001  -0.465891  -0.000651  3.936183  0.0  -0.57365  0.002089  -0.172062  -0.450015  0.000555  3.91879  0.002
C  C104  1  0.05615336  0.33692869  0.82924150  1  -0.058968  0.000142  3.702279  0.0  -0.098257  -7.8e-05  3.959897  0.0  -0.098287  -0.000182  3.975483  0.0  0.004952  0.000141  -0.161591  -0.098146  9.8e-05  3.94963  0.0
C  C105  1  0.94384104  0.66305547  0.17075382  1  -0.059097  0.000113  3.702481  0.0  -0.098455  -7.7e-05  3.960134  0.0  -0.098489  -0.000186  3.975727  0.0  0.005412  0.000141  -0.161747  -0.098339  9.9e-05  3.949849  0.0
C  C106  1  0.05479012  0.48980197  0.86678165  1  -0.063704  0.000299  3.714587  0.0  -0.096175  0.000122  3.974422  0.0  -0.097205  6.5e-05  3.990994  0.0  0.019467  0.000304  -0.168133  -0.095227  0.000232  3.963028  0.0
C  C107  1  0.94520236  0.51018325  0.13320923  1  -0.063628  0.000254  3.714403  0.0  -0.095916  0.000121  3.974057  0.0  -0.096948  6.6e-05  3.990638  0.0  0.019521  0.000304  -0.16799  -0.094952  0.000232  3.962634  0.0
C  C108  1  0.14761122  0.59854756  0.81670122  1  -0.289381  -2e-06  3.727516  0.0  -0.363964  -4e-05  3.976393  0.0  -0.366361  -4.8e-05  3.987881  0.0  -0.070131  4.7e-05  -0.247315  -0.362335  2e-05  3.968709  0.0
C  C109  1  0.85237842  0.40144400  0.18329510  1  -0.289499  7e-06  3.72768  0.0  -0.364138  -4.1e-05  3.976512  0.0  -0.366522  -4.8e-05  3.988007  0.0  -0.070202  4.7e-05  -0.247453  -0.362508  2.1e-05  3.968826  0.0
O  O110  1  0.63918841  0.08410976  0.88137122  1  -0.813676  0.070256  2.032761  0.098  -0.771895  0.04434  2.338435  0.066  -0.809838  0.031699  2.317809  0.052  -1.383429  0.087785  -0.38821  -0.744589  0.053456  2.352615  0.075
O  O111  1  0.36081726  0.91588603  0.11863126  1  -0.813605  0.070199  2.033416  0.098  -0.771818  0.044312  2.339081  0.066  -0.809742  0.031681  2.318431  0.052  -1.383887  0.087693  -0.388188  -0.744538  0.053399  2.353258  0.075
O  O112  1  0.57315952  0.88354906  0.03598122  1  -0.81382  0.064686  2.06038  0.091  -0.77497  0.04152  2.371807  0.063  -0.812677  0.029717  2.351178  0.049  -1.394119  0.08148  -0.385986  -0.747836  0.048869  2.38505  0.069
O  O113  1  0.42684043  0.11644991  0.96400957  1  -0.813861  0.064645  2.06102  0.091  -0.774941  0.041501  2.372414  0.062  -0.812638  0.029703  2.351773  0.049  -1.394443  0.081406  -0.385963  -0.747844  0.048826  2.385682  0.069
O  O114  1  0.87003060  0.94592916  0.89698453  1  -0.811761  0.064795  2.057056  0.091  -0.772134  0.04162  2.369135  0.062  -0.810089  0.029844  2.34916  0.049  -1.394  0.081709  -0.385582  -0.744798  0.049119  2.38199  0.069
O  O115  1  0.12996129  0.05405817  0.10302757  1  -0.811796  0.064778  2.057559  0.091  -0.772111  0.041618  2.369585  0.062  -0.810063  0.029838  2.349617  0.049  -1.394367  0.081679  -0.385519  -0.744789  0.049097  2.382424  0.069
O  O116  1  0.87685969  0.96778679  0.13681875  1  -0.817743  0.069246  2.040935  0.096  -0.777206  0.043795  2.350729  0.065  -0.814817  0.031349  2.329534  0.051  -1.384042  0.086288  -0.388712  -0.749713  0.052766  2.364741  0.074
O  O117  1  0.12312722  0.03220689  0.86318606  1  -0.817656  0.069235  2.041527  0.096  -0.777089  0.043788  2.351356  0.065  -0.814697  0.031342  2.33016  0.051  -1.384162  0.086237  -0.388614  -0.749605  0.052735  2.365338  0.074
