# generated using pymatgen
data_Zn2H17C28N3O10
_symmetry_space_group_name_H-M   'P 1'
_cell_length_a   9.72686128
_cell_length_b   11.12930558
_cell_length_c   14.22828105
_cell_angle_alpha   86.35146086
_cell_angle_beta   98.66177233
_cell_angle_gamma   88.76354988
_symmetry_Int_Tables_number   1
_chemical_formula_structural   Zn2H17C28N3O10
_chemical_formula_sum   'Zn2 H17 C28 N3 O10'
_cell_volume   1518.84541914
_cell_formula_units_Z   1
loop_
 _symmetry_equiv_pos_site_id
 _symmetry_equiv_pos_as_xyz
  1  'x, y, z'
loop_
 _atom_site_type_symbol
 _atom_site_label
 _atom_site_symmetry_multiplicity
 _atom_site_fract_x
 _atom_site_fract_y
 _atom_site_fract_z
 _atom_site_occupancy
 _atom_site_pbe_bader_charge
 _atom_site_pbe_bader_spin_density
 _atom_site_pbe_cm5_charge
 _atom_site_pbe_ddec_charge
 _atom_site_pbe_ddec_spin_density
 _atom_site_pbe_ddec_sum_bond_order
 _atom_site_pbe_magmom
Zn  Zn0  1  0.13644943  0.49377671  0.47413753  1  1.284051  0  0.667052  0.855122  0  2.40849  0
Zn  Zn1  1  0.86580822  0.49867231  0.51453605  1  1.296459  0  0.66823  0.85583  0  2.427136  0
H  H2  1  0.75162949  0.25025292  0.91506747  1  0.05051  0  0.106019  0.109081  0  0.985327  0
H  H3  1  0.92112651  0.51897878  0.82384056  1  0.087247  0  0.112619  0.123162  0  0.986024  0
H  H4  1  0.20164268  0.51736114  0.12628089  1  0.091082  0  0.107993  0.113749  0  0.996005  0
H  H5  1  0.95228401  0.27605928  0.03941435  1  0.049136  0  0.103178  0.103375  0  0.995846  0
H  H6  1  0.05040077  0.35222798  0.19649839  1  0.128636  0  0.1052  0.110692  0  1.005674  0
H  H7  1  0.65152369  0.49877615  0.22696448  1  0.067089  0  0.099444  0.100931  0  1.036601  0
H  H8  1  0.51152155  0.29150509  0.84756091  1  0.066429  0  0.103206  0.100836  0  1.044635  0
H  H9  1  0.44991720  0.48727858  0.18864630  1  0.027828  0  0.103625  0.104511  0  1.009149  0
H  H10  1  0.01346921  0.52970083  0.99712449  1  0.087347  0  0.107172  0.111313  0  0.998877  0
H  H11  1  0.80783730  0.11151829  0.49908316  1  0.086662  0  0.105341  0.103008  0  0.986403  0
H  H12  1  0.12718415  0.08560728  0.52450094  1  0.098113  0  0.10755  0.125959  0  0.989575  0
H  H13  1  0.81652913  0.88728569  0.52883028  1  0.118185  0  0.107301  0.106579  0  0.983342  0
H  H14  1  0.09835266  0.90075905  0.45579650  1  0.072819  0  0.105881  0.121847  0  0.993812  0
H  H15  1  0.38420357  0.33735295  0.56018544  1  0.186123  0  0.13868  0.114695  0  0.982307  0
H  H16  1  0.39357044  0.58057680  0.47020163  1  0.433339  0  0.315561  0.283281  0  0.915678  0
H  H17  1  0.63404733  0.38616628  0.62761359  1  0.151124  0  0.145861  0.115683  0  0.934694  0
H  H18  1  0.60127006  0.53236814  0.44650808  1  0.423594  0  0.313175  0.279836  0  0.921963  0
C  C19  1  0.00533527  0.72875992  0.48684207  1  1.587377  0  0.207238  0.635028  0  4.180807  0
C  C20  1  0.91204289  0.47504243  0.31403620  1  1.586991  0  0.209769  0.593134  0  4.173243  0
C  C21  1  0.01953785  0.26157842  0.50667106  1  1.5273  0  0.205492  0.628681  0  4.185078  0
C  C22  1  0.06329895  0.48015975  0.68266537  1  1.598  0  0.212013  0.597007  0  4.187142  0
C  C23  1  0.85413076  0.43093574  0.21909295  1  -0.037066  0  -0.019763  -0.029329  0  3.978258  0
C  C24  1  0.11937138  0.46704372  0.78754863  1  0.042839  0  -0.008265  -0.068355  0  3.944734  0
C  C25  1  0.88616770  0.32508805  0.08047441  1  -0.022428  0  -0.089025  -0.135059  0  4.002284  0
C  C26  1  0.94102856  0.36731698  0.16680030  1  -0.079983  0  -0.086547  -0.098217  0  3.999311  0
C  C27  1  0.71371741  0.44922873  0.18402218  1  0.002657  0  -0.081412  -0.134505  0  3.943729  0
C  C28  1  0.65434187  0.40774761  0.09567840  1  -0.024964  0  -0.003402  0.029905  0  3.947501  0
C  C29  1  0.74368349  0.34548989  0.04260763  1  -0.027613  0  -0.005119  0.081388  0  4.022616  0
C  C30  1  0.50829964  0.42721700  0.05705684  1  0.02688  0  0.002009  0.041087  0  3.944193  0
C  C31  1  0.45795164  0.39727526  0.96246754  1  -0.016216  0  -0.003108  0.037815  0  3.935618  0
C  C32  1  0.54974280  0.32963352  0.91452182  1  0.008725  0  -0.099011  -0.134643  0  4.020395  0
C  C33  1  0.68561639  0.30382563  0.95322279  1  -0.059358  0  -0.088206  -0.125953  0  4.008813  0
C  C34  1  0.41286708  0.47139285  0.11455696  1  0.072869  0  -0.089609  -0.121709  0  4.023017  0
C  C35  1  0.27458519  0.48878153  0.08021453  1  -0.168354  0  -0.088078  -0.132641  0  4.01434  0
C  C36  1  0.22258660  0.47378123  0.98279724  1  0.065576  0  -0.001483  0.089433  0  4.016183  0
C  C37  1  0.31541809  0.43274925  0.92116850  1  -0.001219  0  0.004516  -0.014661  0  3.899374  0
C  C38  1  0.08107951  0.50198042  0.94735776  1  -0.148195  0  -0.081642  -0.125054  0  3.993486  0
C  C39  1  0.02965114  0.49670514  0.85224841  1  0.067682  0  -0.080604  -0.085033  0  3.994718  0
C  C40  1  0.25776074  0.43543621  0.82303094  1  0.200391  0  0.08504  0.015011  0  3.873297  0
C  C41  1  0.90795968  0.06258933  0.50588665  1  -0.086203  0  -0.073394  -0.025915  0  3.991352  0
C  C42  1  0.02352537  0.12833578  0.51357733  1  -0.003261  0  -0.091039  -0.223848  0  3.882003  0
C  C43  1  0.90703094  0.93212848  0.50752267  1  -0.075033  0  -0.073254  -0.0294  0  3.993677  0
C  C44  1  0.00839811  0.86189303  0.48234832  1  -0.050535  0  -0.090013  -0.221768  0  3.883364  0
C  C45  1  0.43001402  0.42053967  0.53572563  1  0.671812  0  0.116731  0.175188  0  3.862711  0
C  C46  1  0.58195433  0.43348443  0.56164877  1  0.732621  0  0.126716  0.185397  0  3.852077  0
N  N47  1  0.34850293  0.50077982  0.48661095  1  -1.198457  0  -0.442521  -0.390266  0  3.256176  0
N  N48  1  0.65521337  0.49406585  0.50936143  1  -1.181102  0  -0.43902  -0.383364  0  3.276578  0
N  N49  1  0.34846606  0.40570795  0.75252298  1  0.38678  0  0.057105  0.527783  0  4.223324  0
O  O50  1  0.10884094  0.67521813  0.45953972  1  -1.160872  0  -0.330044  -0.557405  0  2.267912  0
O  O51  1  0.90297185  0.67727471  0.51710003  1  -1.162776  0  -0.323336  -0.556471  0  2.302744  0
O  O52  1  0.04394082  0.46629637  0.33834585  1  -1.173414  0  -0.321422  -0.548309  0  2.29109  0
O  O53  1  0.82610650  0.51548180  0.36454657  1  -1.187051  0  -0.327718  -0.57005  0  2.299527  0
O  O54  1  0.13657981  0.31119581  0.50439893  1  -1.149621  0  -0.321501  -0.550598  0  2.287456  0
O  O55  1  0.90259880  0.31754876  0.50229147  1  -1.170925  0  -0.323363  -0.56668  0  2.310517  0
O  O56  1  0.14954585  0.50395655  0.62615097  1  -1.155794  0  -0.313281  -0.560431  0  2.342206  0
O  O57  1  0.93264268  0.46959551  0.65950815  1  -1.148782  0  -0.318911  -0.539284  0  2.262482  0
O  O58  1  0.43624236  0.47940833  0.73489761  1  -0.433081  0  -0.115842  -0.322524  0  1.921878  0
O  O59  1  0.33444001  0.30590818  0.71876658  1  -0.461974  0  -0.119786  -0.32488  0  1.915055  0
