# generated using pymatgen
data_ZnH13C23(NO2)4
_symmetry_space_group_name_H-M   'P 1'
_cell_length_a   8.17152305
_cell_length_b   11.56842004
_cell_length_c   14.40410178
_cell_angle_alpha   69.99632568
_cell_angle_beta   82.60043802
_cell_angle_gamma   74.86981621
_symmetry_Int_Tables_number   1
_chemical_formula_structural   ZnH13C23(NO2)4
_chemical_formula_sum   'Zn2 H26 C46 N8 O16'
_cell_volume   1233.97093504
_cell_formula_units_Z   2
loop_
 _symmetry_equiv_pos_site_id
 _symmetry_equiv_pos_as_xyz
  1  'x, y, z'
loop_
 _atom_site_type_symbol
 _atom_site_label
 _atom_site_symmetry_multiplicity
 _atom_site_fract_x
 _atom_site_fract_y
 _atom_site_fract_z
 _atom_site_occupancy
 _atom_site_hle17_bader_spin_density
 _atom_site_hle17_ddec_charge
 _atom_site_hle17_ddec_spin_density
 _atom_site_hle17_ddec_sum_bond_order
 _atom_site_hle17_magmom
 _atom_site_hse06_10hf_bader_spin_density
 _atom_site_hse06_10hf_ddec_charge
 _atom_site_hse06_10hf_ddec_spin_density
 _atom_site_hse06_10hf_ddec_sum_bond_order
 _atom_site_hse06_10hf_magmom
 _atom_site_hse06_bader_spin_density
 _atom_site_hse06_ddec_charge
 _atom_site_hse06_ddec_spin_density
 _atom_site_hse06_ddec_sum_bond_order
 _atom_site_hse06_magmom
 _atom_site_pbe_bader_spin_density
 _atom_site_pbe_cm5_charge
 _atom_site_pbe_ddec_charge
 _atom_site_pbe_ddec_spin_density
 _atom_site_pbe_ddec_sum_bond_order
 _atom_site_pbe_magmom
Zn  Zn0  1  0.41417167  0.84285313  0.05413080  1  0  1.078099  0  1.749538  0  0  0.891993  0  2.220971  0  0  0.941954  0  2.162601  0  0  0.705099  0.856937  0  2.261271  0
Zn  Zn1  1  0.58581817  0.15713555  0.94587805  1  0  1.078046  0  1.749521  0  0  0.891959  0  2.220949  0  0  0.941926  0  2.162585  0  0  0.705082  0.856867  0  2.261325  0
H  H2  1  0.35707462  0.45962245  0.30160031  1  0  0.407694  0  0.842134  0  0  0.378574  0  0.919958  0  0  0.389707  0  0.90662  0  0  0.318367  0.370546  0  0.929715  0
H  H3  1  0.64292405  0.54037676  0.69840537  1  0  0.407686  0  0.842155  0  0  0.378529  0  0.920031  0  0  0.389662  0  0.906697  0  0  0.318365  0.370502  0  0.929785  0
H  H4  1  0.83512650  0.35178734  0.62297258  1  0  0.418763  0  0.779447  0  0  0.403475  0  0.829185  0  0  0.411888  0  0.820623  0  0  0.35831  0.397335  0  0.835543  0
H  H5  1  0.16487794  0.64821285  0.37703392  1  0  0.418734  0  0.779472  0  0  0.403485  0  0.829183  0  0  0.411897  0  0.820621  0  0  0.358291  0.397347  0  0.835547  0
H  H6  1  0.99537376  0.74217903  0.64953775  1  0  0.311951  0  0.834162  0  0  0.305015  0  0.872695  0  0  0.311352  0  0.868753  0  0  0.355712  0.300475  0  0.875738  0
H  H7  1  0.00462792  0.25782322  0.35046143  1  0  0.31193  0  0.83415  0  0  0.305004  0  0.872689  0  0  0.311338  0  0.868751  0  0  0.355727  0.300463  0  0.875728  0
H  H8  1  0.36852058  0.14409670  0.17748978  1  0  0.105243  0  0.956892  0  0  0.110833  0  1.027578  0  0  0.114198  0  1.025431  0  0  0.105175  0.108359  0  1.029231  0
H  H9  1  0.63147981  0.85590931  0.82250921  1  0  0.105177  0  0.956918  0  0  0.110801  0  1.027569  0  0  0.114169  0  1.025415  0  0  0.105166  0.108324  0  1.02923  0
H  H10  1  0.70566482  0.81942311  0.36289953  1  0  0.110124  0  0.932553  0  0  0.117159  0  0.996707  0  0  0.121815  0  0.992221  0  0  0.106187  0.113819  0  0.999912  0
H  H11  1  0.29434380  0.18058123  0.63709457  1  0  0.110168  0  0.932452  0  0  0.117141  0  0.996687  0  0  0.121798  0  0.992206  0  0  0.106168  0.113805  0  0.999893  0
H  H12  1  0.59429323  0.17527988  0.41946224  1  0  0.113906  0  0.945371  0  0  0.119888  0  1.012014  0  0  0.124394  0  1.007599  0  0  0.108009  0.11668  0  1.015124  0
H  H13  1  0.40570315  0.82472322  0.58053842  1  0  0.113879  0  0.945445  0  0  0.119827  0  1.012113  0  0  0.124332  0  1.0077  0  0  0.107986  0.116622  0  1.015226  0
H  H14  1  0.75956557  0.16450788  0.62606418  1  0  0.114461  0  0.938576  0  0  0.120204  0  1.005434  0  0  0.124747  0  1.001243  0  0  0.113953  0.116929  0  1.008432  0
H  H15  1  0.24044137  0.83549349  0.37393425  1  0  0.114448  0  0.938585  0  0  0.120203  0  1.00543  0  0  0.124746  0  1.00124  0  0  0.113939  0.116929  0  1.008435  0
H  H16  1  0.01036334  0.11381570  0.88907257  1  0  0.116946  0  0.94075  0  0  0.124174  0  1.004562  0  0  0.127805  0  1.001927  0  0  0.113777  0.121477  0  1.006627  0
H  H17  1  0.98963403  0.88617965  0.11093625  1  0  0.116845  0  0.940811  0  0  0.124063  0  1.004644  0  0  0.127701  0  1.002  0  0  0.113747  0.121377  0  1.00667  0
H  H18  1  0.10694251  0.81152481  0.76762431  1  0  0.110717  0  0.929441  0  0  0.120547  0  0.9897  0  0  0.124647  0  0.986393  0  0  0.112995  0.117495  0  0.992267  0
H  H19  1  0.89305692  0.18847641  0.23237735  1  0  0.110711  0  0.929458  0  0  0.120536  0  0.989719  0  0  0.124637  0  0.986412  0  0  0.112977  0.11748  0  0.992284  0
H  H20  1  0.49446319  0.58040401  0.05442042  1  0  0.089041  0  0.93523  0  0  0.098336  0  0.997347  0  0  0.100616  0  0.995292  0  0  0.123225  0.096625  0  0.998893  0
H  H21  1  0.50553588  0.41959391  0.94556403  1  0  0.089028  0  0.935389  0  0  0.098378  0  0.99746  0  0  0.10066  0  0.995402  0  0  0.123214  0.096663  0  0.999014  0
H  H22  1  0.75108337  0.41811221  0.03752349  1  0  0.127527  0  0.993857  0  0  0.136345  0  1.055788  0  0  0.140317  0  1.053385  0  0  0.111393  0.133384  0  1.057888  0
H  H23  1  0.24891190  0.58189549  0.96244619  1  0  0.127582  0  0.993808  0  0  0.136402  0  1.055724  0  0  0.140388  0  1.053304  0  0  0.11143  0.133437  0  1.05783  0
H  H24  1  0.04112279  0.70135037  0.98462944  1  0  0.112216  0  0.995996  0  0  0.122387  0  1.055513  0  0  0.12522  0  1.055401  0  0  0.108452  0.120213  0  1.055934  0
H  H25  1  0.95887456  0.29864877  0.01537842  1  0  0.112196  0  0.996078  0  0  0.122348  0  1.055616  0  0  0.125201  0  1.055478  0  0  0.108437  0.120167  0  1.056043  0
H  H26  1  0.77125375  0.85064194  0.00695447  1  0  0.094804  0  0.938271  0  0  0.103902  0  1.0016  0  0  0.106575  0  0.999118  0  0  0.121761  0.101845  0  1.003612  0
H  H27  1  0.22873980  0.14934832  0.99306628  1  0  0.094768  0  0.938263  0  0  0.103893  0  1.001568  0  0  0.106559  0  0.999078  0  0  0.121707  0.10183  0  1.003591  0
C  C28  1  0.37065728  0.30738698  0.27316018  1  0  0.653969  0  3.813098  0  0  0.608076  0  4.109629  0  0  0.640915  0  4.100889  0  0  0.227932  0.585658  0  4.115127  0
C  C29  1  0.62934506  0.69261721  0.72683709  1  0  0.653878  0  3.81297  0  0  0.608053  0  4.10941  0  0  0.640862  0  4.100713  0  0  0.228007  0.58564  0  4.114898  0
C  C30  1  0.47120123  0.17449360  0.29576727  1  0  -0.073543  0  3.768015  0  0  -0.049095  0  4.004283  0  0  -0.059365  0  4.028126  0  0  -0.019046  -0.042532  0  3.988239  0
C  C31  1  0.52880041  0.82550862  0.70423262  1  0  -0.073554  0  3.768146  0  0  -0.049124  0  4.004417  0  0  -0.059385  0  4.028263  0  0  -0.019057  -0.042551  0  3.988351  0
C  C32  1  0.45181100  0.10191334  0.23946325  1  0  -0.045644  0  3.672314  0  0  -0.086965  0  3.925621  0  0  -0.082611  0  3.943966  0  0  -0.071715  -0.089314  0  3.913005  0
C  C33  1  0.54818986  0.89808800  0.76053413  1  0  -0.0455  0  3.672346  0  0  -0.086864  0  3.925653  0  0  -0.082518  0  3.944014  0  0  -0.071725  -0.089214  0  3.913034  0
C  C34  1  0.53863936  0.97493175  0.26316873  1  0  -0.066983  0  3.746643  0  0  -0.03916  0  3.980828  0  0  -0.049972  0  4.005814  0  0  -0.01788  -0.032355  0  3.964091  0
C  C35  1  0.46136171  0.02506859  0.73683098  1  0  -0.067103  0  3.7467  0  0  -0.039256  0  3.980866  0  0  -0.050065  0  4.005846  0  0  -0.017897  -0.032448  0  3.964133  0
C  C36  1  0.64243519  0.91932712  0.34460394  1  0  -0.058665  0  3.643761  0  0  -0.095952  0  3.890833  0  0  -0.093172  0  3.908529  0  0  -0.066879  -0.097331  0  3.878639  0
C  C37  1  0.35757109  0.08067613  0.65539474  1  0  -0.058627  0  3.643678  0  0  -0.095876  0  3.890749  0  0  -0.093097  0  3.908451  0  0  -0.066791  -0.097262  0  3.878564  0
C  C38  1  0.66437596  0.99183084  0.40040823  1  0  -0.003441  0  3.781124  0  0  0.018074  0  4.016754  0  0  0.01318  0  4.040642  0  0  -0.005156  0.021022  0  4.000546  0
C  C39  1  0.33563003  0.00817337  0.59958953  1  0  -0.003478  0  3.781128  0  0  0.018089  0  4.016672  0  0  0.013182  0  4.040579  0  0  -0.005182  0.021033  0  4.000471  0
C  C40  1  0.57887052  0.11988956  0.37494088  1  0  -0.064499  0  3.650945  0  0  -0.104953  0  3.904171  0  0  -0.101946  0  3.921414  0  0  -0.070718  -0.106484  0  3.892223  0
C  C41  1  0.42113361  0.88011272  0.62505816  1  0  -0.064493  0  3.650914  0  0  -0.104908  0  3.904098  0  0  -0.101901  0  3.921357  0  0  -0.070709  -0.106438  0  3.892146  0
C  C42  1  0.51749077  0.89593950  0.20374379  1  0  0.62498  0  3.942816  0  0  0.578979  0  4.232047  0  0  0.611664  0  4.228537  0  0  0.190988  0.556822  0  4.233608  0
C  C43  1  0.48250876  0.10406177  0.79625576  1  0  0.625  0  3.942685  0  0  0.578992  0  4.231936  0  0  0.611676  0  4.228422  0  0  0.190973  0.556833  0  4.233495  0
C  C44  1  0.77136408  0.94150725  0.48608973  1  0  0.286573  0  3.810458  0  0  0.269308  0  4.08375  0  0  0.279729  0  4.102716  0  0  0.212288  0.262557  0  4.070769  0
C  C45  1  0.22864093  0.05849596  0.51390972  1  0  0.286543  0  3.810386  0  0  0.269212  0  4.083758  0  0  0.279636  0  4.102724  0  0  0.212235  0.262465  0  4.070777  0
C  C46  1  0.88400802  0.94147500  0.61166841  1  0  0.323636  0  3.780817  0  0  0.288004  0  4.055991  0  0  0.302946  0  4.07103  0  0  0.228522  0.278405  0  4.045487  0
C  C47  1  0.11599555  0.05852921  0.38832878  1  0  0.323589  0  3.780869  0  0  0.288021  0  4.05599  0  0  0.302959  0  4.071033  0  0  0.228583  0.278427  0  4.045485  0
C  C48  1  0.92764159  0.98350976  0.68798685  1  0  0.00421  0  3.774605  0  0  0.025885  0  4.016843  0  0  0.021007  0  4.038487  0  0  0.003106  0.028618  0  4.002258  0
C  C49  1  0.07236129  0.01649629  0.31201130  1  0  0.004208  0  3.774717  0  0  0.025861  0  4.016943  0  0  0.020985  0  4.038585  0  0  0.003045  0.028586  0  4.002365  0
C  C50  1  0.84867402  0.10839786  0.68411107  1  0  -0.070523  0  3.677069  0  0  -0.11266  0  3.935324  0  0  -0.109147  0  3.952482  0  0  -0.068875  -0.114411  0  3.923421  0
C  C51  1  0.15132766  0.89160438  0.31588811  1  0  -0.070519  0  3.677074  0  0  -0.112623  0  3.93533  0  0  -0.109112  0  3.952496  0  0  -0.068841  -0.114379  0  3.923439  0
C  C52  1  0.87572237  0.15411176  0.75738356  1  0  -0.126818  0  3.860718  0  0  -0.101684  0  4.104628  0  0  -0.113335  0  4.128855  0  0  -0.024794  -0.09419  0  4.088204  0
C  C53  1  0.12428081  0.84588572  0.24261814  1  0  -0.126812  0  3.860792  0  0  -0.101772  0  4.104801  0  0  -0.113427  0  4.129037  0  0  -0.024744  -0.094273  0  4.088368  0
C  C54  1  0.98740884  0.07841285  0.83233173  1  0  -0.032807  0  3.666384  0  0  -0.073233  0  3.916395  0  0  -0.067972  0  3.932943  0  0  -0.064673  -0.076347  0  3.905132  0
C  C55  1  0.01258888  0.92158538  0.16767495  1  0  -0.032691  0  3.666397  0  0  -0.073064  0  3.916425  0  0  -0.067811  0  3.932972  0  0  -0.064713  -0.076172  0  3.905163  0
C  C56  1  0.07247860  0.95667514  0.83355808  1  0  -0.050033  0  3.735019  0  0  -0.022702  0  3.96928  0  0  -0.032952  0  3.993276  0  0  -0.00877  -0.016315  0  3.953275  0
C  C57  1  0.92751904  0.04332417  0.16644347  1  0  -0.050111  0  3.735036  0  0  -0.022785  0  3.969311  0  0  -0.033035  0  3.993311  0  0  -0.008773  -0.016401  0  3.9533  0
C  C58  1  0.03989066  0.90800083  0.76299701  1  0  -0.059025  0  3.642457  0  0  -0.099617  0  3.895345  0  0  -0.095858  0  3.912318  0  0  -0.061065  -0.101661  0  3.883841  0
C  C59  1  0.96010761  0.09200041  0.23700332  1  0  -0.059036  0  3.642496  0  0  -0.099613  0  3.89538  0  0  -0.095855  0  3.912353  0  0  -0.061045  -0.101647  0  3.883865  0
C  C60  1  0.78023624  0.27977923  0.76164671  1  0  0.686256  0  3.750223  0  0  0.631572  0  4.046249  0  0  0.666152  0  4.03653  0  0  0.256544  0.607811  0  4.05275  0
C  C61  1  0.21976571  0.72021442  0.23835673  1  0  0.686152  0  3.750726  0  0  0.631611  0  4.046635  0  0  0.66618  0  4.03692  0  0  0.256593  0.607846  0  4.053144  0
C  C62  1  0.20166465  0.87981572  0.90991007  1  0  0.630814  0  3.937362  0  0  0.581442  0  4.229915  0  0  0.615118  0  4.224336  0  0  0.205007  0.558574  0  4.232921  0
C  C63  1  0.79833421  0.12017979  0.09009307  1  0  0.6308  0  3.937474  0  0  0.581418  0  4.230025  0  0  0.61509  0  4.224454  0  0  0.20501  0.558551  0  4.23302  0
C  C64  1  0.61876956  0.60245753  0.03873452  1  0  0.151003  0  3.67494  0  0  0.116927  0  3.923992  0  0  0.124781  0  3.942113  0  0  0.057343  0.111866  0  3.911696  0
C  C65  1  0.38122573  0.39754410  0.96125059  1  0  0.150925  0  3.674988  0  0  0.116808  0  3.924061  0  0  0.12466  0  3.942187  0  0  0.05733  0.11175  0  3.911759  0
C  C66  1  0.76370744  0.51287352  0.02820644  1  0  -0.144848  0  3.654919  0  0  -0.164138  0  3.896664  0  0  -0.171871  0  3.916444  0  0  -0.074016  -0.159178  0  3.883646  0
C  C67  1  0.23628669  0.48713194  0.97177568  1  0  -0.144848  0  3.654597  0  0  -0.164148  0  3.89636  0  0  -0.171892  0  3.916133  0  0  -0.074016  -0.159185  0  3.883343  0
C  C68  1  0.92130667  0.54581511  0.00707283  1  0  0.117944  0  3.708344  0  0  0.129084  0  3.936664  0  0  0.134034  0  3.956659  0  0  0.025303  0.125916  0  3.922959  0
C  C69  1  0.07868499  0.45418919  0.99291667  1  0  0.117923  0  3.708163  0  0  0.129073  0  3.936478  0  0  0.134018  0  3.956481  0  0  0.02529  0.125902  0  3.922763  0
C  C70  1  0.92350584  0.66950989  0.00017948  1  0  -0.145929  0  3.669054  0  0  -0.164242  0  3.909693  0  0  -0.172528  0  3.931455  0  0  -0.075913  -0.158822  0  3.895317  0
C  C71  1  0.07648541  0.33049034  0.99982080  1  0  -0.145884  0  3.669138  0  0  -0.164194  0  3.909804  0  0  -0.17249  0  3.931548  0  0  -0.075902  -0.158765  0  3.895415  0
C  C72  1  0.77359326  0.75391171  0.01221057  1  0  0.136881  0  3.67954  0  0  0.104537  0  3.929499  0  0  0.111914  0  3.947534  0  0  0.052761  0.099656  0  3.917525  0
C  C73  1  0.22639659  0.24608460  0.98779495  1  0  0.136804  0  3.679559  0  0  0.104461  0  3.929525  0  0  0.111847  0  3.947557  0  0  0.052741  0.099581  0  3.917534  0
N  N74  1  0.78402740  0.01744835  0.53804072  1  0  -0.459359  0  2.9677  0  0  -0.4314  0  3.240926  0  0  -0.448437  0  3.255209  0  0  -0.330934  -0.419936  0  3.230951  0
N  N75  1  0.21597701  0.98255296  0.46195925  1  0  -0.459357  0  2.967646  0  0  -0.431395  0  3.240867  0  0  -0.448437  0  3.255172  0  0  -0.330964  -0.419933  0  3.230897  0
N  N76  1  0.86096220  0.82140409  0.52289113  1  0  -0.28058  0  2.809733  0  0  -0.280986  0  3.08572  0  0  -0.28838  0  3.097862  0  0  -0.240125  -0.27611  0  3.077668  0
N  N77  1  0.13903645  0.17860006  0.47710635  1  0  -0.280587  0  2.809717  0  0  -0.280962  0  3.085741  0  0  -0.288355  0  3.097884  0  0  -0.240072  -0.27609  0  3.077691  0
N  N78  1  0.93145262  0.82429296  0.60213310  1  0  -0.214226  0  3.455378  0  0  -0.15955  0  3.706248  0  0  -0.172585  0  3.720445  0  0  -0.264593  -0.150962  0  3.696684  0
N  N79  1  0.06854748  0.17571020  0.39786663  1  0  -0.21411  0  3.455333  0  0  -0.159488  0  3.706242  0  0  -0.172521  0  3.720443  0  0  -0.264606  -0.150894  0  3.696674  0
N  N80  1  0.62289337  0.72129092  0.03026927  1  0  -0.337363  0  3.348693  0  0  -0.247589  0  3.629539  0  0  -0.268282  0  3.642741  0  0  -0.333192  -0.233726  0  3.620607  0
N  N81  1  0.37709909  0.27870551  0.96973260  1  0  -0.337202  0  3.348497  0  0  -0.247483  0  3.62942  0  0  -0.268168  0  3.642616  0  0  -0.333134  -0.233613  0  3.620473  0
O  O82  1  0.43392077  0.37518887  0.31384501  1  0  -0.549443  0  2.043432  0  0  -0.500053  0  2.243896  0  0  -0.520051  0  2.22755  0  0  -0.342451  -0.485991  0  2.255092  0
O  O83  1  0.56607431  0.62481036  0.68615878  1  0  -0.549362  0  2.043407  0  0  -0.499984  0  2.243881  0  0  -0.519971  0  2.227547  0  0  -0.342488  -0.485927  0  2.255075  0
O  O84  1  0.24246333  0.35115930  0.22470531  1  0  -0.561254  0  1.882193  0  0  -0.531321  0  2.085673  0  0  -0.550449  0  2.078492  0  0  -0.308675  -0.518081  0  2.090464  0
O  O85  1  0.75754849  0.64884211  0.77529352  1  0  -0.561256  0  1.882028  0  0  -0.531356  0  2.085481  0  0  -0.550472  0  2.078316  0  0  -0.308713  -0.518115  0  2.090268  0
O  O86  1  0.44098456  0.95865264  0.12037458  1  0  -0.675354  0  2.039492  0  0  -0.599547  0  2.321514  0  0  -0.630135  0  2.307473  0  0  -0.338095  -0.577843  0  2.330208  0
O  O87  1  0.55901901  0.04134775  0.87962428  1  0  -0.675349  0  2.039481  0  0  -0.599546  0  2.321496  0  0  -0.630149  0  2.307487  0  0  -0.338076  -0.577837  0  2.330189  0
O  O88  1  0.56739245  0.77850295  0.23514891  1  0  -0.608648  0  1.878346  0  0  -0.568734  0  2.081491  0  0  -0.590723  0  2.07464  0  0  -0.338639  -0.553163  0  2.08572  0
O  O89  1  0.43260497  0.22149737  0.76485031  1  0  -0.608605  0  1.878254  0  0  -0.568691  0  2.081403  0  0  -0.590676  0  2.074553  0  0  -0.33862  -0.553116  0  2.085631  0
O  O90  1  0.76806409  0.37858885  0.67658734  1  0  -0.517384  0  2.043259  0  0  -0.463863  0  2.233356  0  0  -0.483145  0  2.216749  0  0  -0.30283  -0.450438  0  2.244976  0
O  O91  1  0.23193610  0.62140941  0.32341919  1  0  -0.517219  0  2.043377  0  0  -0.463855  0  2.233518  0  0  -0.48314  0  2.216911  0  0  -0.302753  -0.450429  0  2.245148  0
O  O92  1  0.71288880  0.30055268  0.83775478  1  0  -0.527464  0  2.007139  0  0  -0.469986  0  2.248725  0  0  -0.492995  0  2.234807  0  0  -0.252757  -0.454358  0  2.2585  0
O  O93  1  0.28710559  0.69944077  0.16225330  1  0  -0.527391  0  2.007493  0  0  -0.469972  0  2.249063  0  0  -0.492955  0  2.235136  0  0  -0.252846  -0.454351  0  2.258836  0
O  O94  1  0.23069072  0.93957441  0.96549289  1  0  -0.647962  0  2.073811  0  0  -0.571689  0  2.351126  0  0  -0.602439  0  2.3373  0  0  -0.326487  -0.550048  0  2.359911  0
O  O95  1  0.76930404  0.06041813  0.03451401  1  0  -0.647872  0  2.073682  0  0  -0.571631  0  2.351044  0  0  -0.602384  0  2.337229  0  0  -0.326528  -0.54999  0  2.359827  0
O  O96  1  0.27296775  0.76791396  0.91648122  1  0  -0.606011  0  1.960015  0  0  -0.565609  0  2.191066  0  0  -0.588324  0  2.183075  0  0  -0.313909  -0.549436  0  2.195954  0
O  O97  1  0.72703445  0.23208253  0.08352218  1  0  -0.606005  0  1.960065  0  0  -0.56557  0  2.191096  0  0  -0.588293  0  2.183129  0  0  -0.313871  -0.549391  0  2.195974  0
