# generated using pymatgen
data_Zn2H24C50SN2O21
_symmetry_space_group_name_H-M   'P 1'
_cell_length_a   16.51957002
_cell_length_b   17.88737611
_cell_length_c   33.13448588
_cell_angle_alpha   90.24135053
_cell_angle_beta   89.42347660
_cell_angle_gamma   89.99208545
_symmetry_Int_Tables_number   1
_chemical_formula_structural   Zn2H24C50SN2O21
_chemical_formula_sum   'Zn4 H48 C100 S2 N4 O42'
_cell_volume   9790.38494099
_cell_formula_units_Z   2
loop_
 _symmetry_equiv_pos_site_id
 _symmetry_equiv_pos_as_xyz
  1  'x, y, z'
loop_
 _atom_site_type_symbol
 _atom_site_label
 _atom_site_symmetry_multiplicity
 _atom_site_fract_x
 _atom_site_fract_y
 _atom_site_fract_z
 _atom_site_occupancy
 _atom_site_pbe_bader_charge
 _atom_site_pbe_bader_spin_density
 _atom_site_pbe_cm5_charge
 _atom_site_pbe_ddec_charge
 _atom_site_pbe_ddec_spin_density
 _atom_site_pbe_ddec_sum_bond_order
 _atom_site_pbe_magmom
Zn  Zn0  1  0.58408340  0.50141721  0.50052855  1  1.273762  0  0.668076  0.814899  0  2.426863  0
Zn  Zn1  1  0.41528185  0.49856698  0.50112972  1  1.286642  0  0.669928  0.814028  0  2.445157  0
Zn  Zn2  1  0.41619269  0.50413448  0.96183270  1  1.272234  0  0.668409  0.81578  0  2.424401  0
Zn  Zn3  1  0.58502049  0.50148135  0.96121623  1  1.286532  0  0.670226  0.81426  0  2.445615  0
H  H4  1  0.28404794  0.58381433  0.54142572  1  0.145561  0  0.140883  0.122824  0  0.946499  0
H  H5  1  0.13229244  0.58888815  0.54093751  1  0.086258  0  0.129704  0.142878  0  0.961086  0
H  H6  1  0.28858968  0.41584159  0.45471572  1  0.175787  0  0.141526  0.122857  0  0.966113  0
H  H7  1  0.71096967  0.60071308  0.53531009  1  0.192251  0  0.139685  0.123397  0  0.9763  0
H  H8  1  0.71607991  0.40387801  0.46865339  1  0.14786  0  0.139445  0.118509  0  0.962072  0
H  H9  1  0.86827097  0.40435063  0.46592386  1  0.137272  0  0.130312  0.144384  0  0.960968  0
H  H10  1  0.63023047  0.74227860  0.50716272  1  0.131666  0  0.116464  0.122823  0  0.983536  0
H  H11  1  0.62564024  0.88106763  0.50435900  1  0.083714  0  0.115305  0.122384  0  0.976318  0
H  H12  1  0.37097511  0.73507841  0.49632101  1  0.173421  0  0.114519  0.125473  0  1.003859  0
H  H13  1  0.63597081  0.26273775  0.49324309  1  0.141428  0  0.112636  0.121176  0  1.008292  0
H  H14  1  0.37581894  0.26026141  0.49958027  1  0.1248  0  0.115818  0.122279  0  0.980908  0
H  H15  1  0.37793637  0.12106228  0.49813173  1  0.125751  0  0.115057  0.122366  0  0.976902  0
H  H16  1  0.36315210  0.50203907  0.63165665  1  0.104155  0  0.110731  0.118504  0  0.99388  0
H  H17  1  0.29194384  0.49904014  0.69787223  1  0.126646  0  0.119631  0.133096  0  0.983308  0
H  H18  1  0.62172710  0.50336057  0.62529979  1  0.1424  0  0.103545  0.111128  0  1.051301  0
H  H19  1  0.63699699  0.50152850  0.83072806  1  0.105194  0  0.110536  0.11812  0  0.993026  0
H  H20  1  0.70820279  0.49835598  0.76449126  1  0.130376  0  0.119779  0.133142  0  0.982315  0
H  H21  1  0.37841286  0.50426800  0.83708551  1  0.136933  0  0.103573  0.110022  0  1.05287  0
H  H22  1  0.37248765  0.51106048  0.09182752  1  0.115062  0  0.112892  0.117624  0  0.985723  0
H  H23  1  0.37534873  0.50571797  0.16703650  1  0.092586  0  0.113602  0.120445  0  0.98044  0
H  H24  1  0.63226330  0.49672807  0.08827519  1  0.148853  0  0.116197  0.127427  0  0.998598  0
H  H25  1  0.36774581  0.49286843  0.37424509  1  0.157859  0  0.115956  0.127092  0  0.998942  0
H  H26  1  0.62752886  0.50715082  0.37046163  1  0.11074  0  0.1128  0.117674  0  0.985401  0
H  H27  1  0.62419157  0.50371375  0.29519906  1  0.089956  0  0.113406  0.119575  0  0.980073  0
H  H28  1  0.71627170  0.58628217  0.92080532  1  0.142682  0  0.140985  0.118114  0  0.952529  0
H  H29  1  0.86807356  0.59094544  0.92113812  1  0.105013  0  0.129951  0.143186  0  0.960616  0
H  H30  1  0.71164248  0.41940952  0.00737166  1  0.172892  0  0.141469  0.122278  0  0.966161  0
H  H31  1  0.28926290  0.60295768  0.92710854  1  0.165291  0  0.139769  0.123497  0  0.976957  0
H  H32  1  0.28424998  0.40663552  0.99330900  1  0.169473  0  0.139346  0.118919  0  0.961628  0
H  H33  1  0.13205019  0.40700370  0.99594233  1  0.126578  0  0.130291  0.144409  0  0.960183  0
H  H34  1  0.36966838  0.74454919  0.95372817  1  0.110634  0  0.11659  0.123752  0  0.982738  0
H  H35  1  0.37386048  0.88344646  0.95615355  1  0.114366  0  0.115331  0.12297  0  0.975418  0
H  H36  1  0.62892522  0.73817548  0.96471573  1  0.152386  0  0.114675  0.125882  0  1.003147  0
H  H37  1  0.36434875  0.26583602  0.96885889  1  0.145719  0  0.112792  0.121411  0  1.009392  0
H  H38  1  0.62447330  0.26267980  0.96231616  1  0.11553  0  0.11607  0.122623  0  0.980298  0
H  H39  1  0.62196529  0.12348945  0.96283380  1  0.090993  0  0.114959  0.122098  0  0.976797  0
H  H40  1  0.03107445  0.44664897  0.44179016  1  0.598011  0  0.309531  0.339044  0  0.959212  0
H  H41  1  0.97306207  0.58954531  0.53930444  1  0.597723  0  0.300418  0.327914  0  0.989848  0
H  H42  1  0.38249662  0.97631866  0.49035307  1  0.590197  0  0.293773  0.325934  0  0.999664  0
H  H43  1  0.62056969  0.02142416  0.49208863  1  0.590304  0  0.29364  0.325866  0  1.001355  0
H  H44  1  0.61795485  0.48467520  0.21854978  1  0.595098  0  0.292992  0.325983  0  1.002031  0
H  H45  1  0.38132904  0.48419457  0.24378977  1  0.601792  0  0.29248  0.324652  0  1.004036  0
H  H46  1  0.96928023  0.44991685  0.02014942  1  0.593868  0  0.309187  0.338238  0  0.960101  0
H  H47  1  0.02722071  0.59129792  0.92274803  1  0.580697  0  0.300629  0.32833  0  0.989089  0
H  H48  1  0.61677946  0.97959504  0.96976462  1  0.582932  0  0.293665  0.326177  0  1.000413  0
H  H49  1  0.37895526  0.02451858  0.96838786  1  0.595113  0  0.293823  0.326217  0  1.000696  0
H  H50  1  0.29484258  0.40775883  0.82230586  1  0.625216  0  0.345682  0.395116  0  0.853727  0
H  H51  1  0.70505872  0.40720860  0.63962700  1  0.621388  0  0.345298  0.394684  0  0.853963  0
C  C52  1  0.50268464  0.64588159  0.50227687  1  1.591118  0  0.217459  0.592664  0  4.1694  0
C  C53  1  0.49101242  0.49949172  0.57944742  1  1.526193  0  0.215714  0.595193  0  4.162945  0
C  C54  1  0.50463075  0.35427426  0.49834147  1  1.588858  0  0.216798  0.591827  0  4.172268  0
C  C55  1  0.49921935  0.50053948  0.42227349  1  1.544551  0  0.217087  0.591337  0  4.173968  0
C  C56  1  0.49744668  0.64859734  0.95914801  1  1.567099  0  0.21777  0.592305  0  4.17105  0
C  C57  1  0.50916169  0.50009032  0.88291238  1  1.520013  0  0.216119  0.595661  0  4.16242  0
C  C58  1  0.49584543  0.35706139  0.96429448  1  1.530755  0  0.216808  0.592122  0  4.171328  0
C  C59  1  0.50104017  0.50517638  0.04009917  1  1.57007  0  0.216676  0.590808  0  4.173672  0
C  C60  1  0.24869153  0.54740059  0.52188645  1  0.581365  0  0.077965  0.117593  0  3.894338  0
C  C61  1  0.16492535  0.54979944  0.52146015  1  -0.014637  0  -0.056497  -0.149862  0  3.881414  0
C  C62  1  0.12258760  0.50089064  0.49568690  1  0.137482  0  0.027025  0.146324  0  4.085507  0
C  C63  1  0.16748654  0.45113473  0.47072009  1  0.044713  0  0.0062  -0.132208  0  3.895424  0
C  C64  1  0.25188195  0.45325591  0.47344815  1  0.508526  0  0.087927  0.117669  0  3.847199  0
C  C65  1  0.03688993  0.50284147  0.49652655  1  -0.370975  0  -0.009038  -0.083784  0  4.062939  0
C  C66  1  0.96305367  0.50658079  0.49900494  1  -0.136457  0  -0.008938  -0.08508  0  4.067044  0
C  C67  1  0.87733311  0.50717106  0.50085932  1  0.150683  0  0.026838  0.145933  0  4.083809  0
C  C68  1  0.83222117  0.56376046  0.52098111  1  0.037134  0  0.005609  -0.130634  0  3.890572  0
C  C69  1  0.74781427  0.55794266  0.52044805  1  0.49123  0  0.08526  0.114336  0  3.845766  0
C  C70  1  0.75137671  0.44808507  0.48286460  1  0.426225  0  0.074956  0.116716  0  3.893024  0
C  C71  1  0.83522500  0.44868525  0.48155831  1  0.065376  0  -0.057734  -0.151323  0  3.881006  0
C  C72  1  0.50081969  0.72972073  0.50158280  1  -0.054288  0  -0.005984  -0.019378  0  3.943381  0
C  C73  1  0.57262059  0.77125637  0.50409853  1  0.014355  0  -0.065569  -0.065524  0  3.949468  0
C  C74  1  0.56988345  0.84866318  0.50258680  1  -0.024439  0  -0.072465  -0.113717  0  3.923829  0
C  C75  1  0.49528451  0.88674603  0.49887105  1  0.051987  0  0.005842  0.111182  0  4.097675  0
C  C76  1  0.42219512  0.84482782  0.49697053  1  -0.015176  0  -0.009672  -0.100904  0  3.929402  0
C  C77  1  0.42694644  0.76693113  0.49817281  1  -0.047093  0  -0.062723  -0.079336  0  3.9217  0
C  C78  1  0.49788633  0.96582570  0.49729420  1  -0.515382  0  -0.023496  -0.103199  0  4.101781  0
C  C79  1  0.50507841  0.03408560  0.49606400  1  0.102523  0  -0.022996  -0.103247  0  4.101691  0
C  C80  1  0.50865223  0.11317856  0.49554076  1  0.060053  0  0.006619  0.113823  0  4.094943  0
C  C81  1  0.58259751  0.15397370  0.49388421  1  -0.015982  0  -0.009953  -0.10115  0  3.923975  0
C  C82  1  0.57914147  0.23200465  0.49443590  1  0.005249  0  -0.064799  -0.082221  0  3.925411  0
C  C83  1  0.50571759  0.27042833  0.49677443  1  0.005541  0  -0.007031  -0.01954  0  3.944845  0
C  C84  1  0.43300274  0.23001412  0.49796774  1  -0.07394  0  -0.066137  -0.065848  0  3.95301  0
C  C85  1  0.43441055  0.15253889  0.49718675  1  -0.024497  0  -0.073336  -0.115756  0  3.927878  0
C  C86  1  0.42093419  0.50198837  0.64725312  1  -0.128429  0  -0.069827  -0.125457  0  3.908567  0
C  C87  1  0.42306897  0.50240029  0.68954411  1  0.092038  0  -0.002456  0.07981  0  4.028807  0
C  C88  1  0.35010130  0.50090870  0.71311144  1  0.008519  0  -0.065863  -0.112339  0  3.95147  0
C  C89  1  0.56746639  0.50104066  0.64413575  1  -0.064395  0  -0.082168  -0.149797  0  3.936692  0
C  C90  1  0.57270311  0.50133591  0.68634168  1  0.04707  0  -0.002194  0.066429  0  4.012813  0
C  C91  1  0.64801857  0.49951562  0.70806419  1  -0.149215  0  -0.01588  -0.142595  0  3.97673  0
C  C92  1  0.57920952  0.50173294  0.81511384  1  -0.001377  0  -0.069651  -0.125235  0  3.908045  0
C  C93  1  0.57706160  0.50210761  0.77283067  1  -0.024623  0  -0.002502  0.079389  0  4.028465  0
C  C94  1  0.65004411  0.50036225  0.74925974  1  -0.041934  0  -0.065736  -0.111538  0  3.950502  0
C  C95  1  0.43265414  0.50152283  0.81824471  1  -0.028396  0  -0.082463  -0.149527  0  3.938952  0
C  C96  1  0.42741720  0.50168656  0.77603980  1  0.02172  0  -0.001927  0.067009  0  4.012313  0
C  C97  1  0.35211130  0.50003064  0.75430442  1  -0.142495  0  -0.015631  -0.141731  0  3.975384  0
C  C98  1  0.49273205  0.50087746  0.62474601  1  0.06271  0  -0.013466  -0.013474  0  3.984325  0
C  C99  1  0.49920253  0.50213854  0.70971778  1  -0.036866  0  0.012285  0.016005  0  3.889737  0
C  C100  1  0.50739974  0.50109510  0.83762134  1  0.016181  0  -0.013457  -0.013257  0  3.985891  0
C  C101  1  0.50090813  0.50215356  0.75266293  1  -0.052923  0  0.012066  0.015787  0  3.887681  0
C  C102  1  0.50208647  0.50378566  0.08534933  1  -0.001661  0  -0.005929  -0.017251  0  3.944244  0
C  C103  1  0.42968896  0.50668538  0.10771530  1  -0.03777  0  -0.068692  -0.070192  0  3.964585  0
C  C104  1  0.43150944  0.50385683  0.14950573  1  0.020433  0  -0.075649  -0.117549  0  3.933702  0
C  C105  1  0.50594681  0.49881647  0.17004228  1  0.092241  0  0.005219  0.111011  0  4.101583  0
C  C106  1  0.57966463  0.49650684  0.14747854  1  -0.052278  0  -0.00802  -0.098806  0  3.923143  0
C  C107  1  0.57575606  0.49880653  0.10543268  1  0.021564  0  -0.061213  -0.076606  0  3.91416  0
C  C108  1  0.50293248  0.49697535  0.21270103  1  -0.232406  0  -0.022778  -0.101722  0  4.104971  0
C  C109  1  0.49638510  0.49638900  0.24962181  1  -0.257356  0  -0.023343  -0.103208  0  4.106145  0
C  C110  1  0.49356200  0.49693399  0.29230307  1  0.124471  0  0.005261  0.11192  0  4.10119  0
C  C111  1  0.41997907  0.49408971  0.31495244  1  -0.074701  0  -0.008051  -0.099968  0  3.923375  0
C  C112  1  0.42413827  0.49526016  0.35702574  1  -0.013359  0  -0.06125  -0.075911  0  3.911337  0
C  C113  1  0.49796033  0.49972634  0.37702755  1  -0.006555  0  -0.005739  -0.017177  0  3.942267  0
C  C114  1  0.57022775  0.50314338  0.35459149  1  0.107511  0  -0.068894  -0.070946  0  3.964868  0
C  C115  1  0.56812616  0.50136969  0.31279022  1  -0.086716  0  -0.075067  -0.115846  0  3.932639  0
C  C116  1  0.75160265  0.55001272  0.94027736  1  0.433566  0  0.078119  0.120789  0  3.892942  0
C  C117  1  0.83539215  0.55219199  0.94062500  1  0.091271  0  -0.056666  -0.149366  0  3.879254  0
C  C118  1  0.87768008  0.50353615  0.96633870  1  0.147574  0  0.026397  0.144297  0  4.08583  0
C  C119  1  0.83277798  0.45423701  0.99132851  1  0.042065  0  0.006376  -0.128811  0  3.892989  0
C  C120  1  0.74836742  0.45651060  0.98865612  1  0.516446  0  0.087847  0.116657  0  3.845451  0
C  C121  1  0.96339338  0.50527957  0.96545014  1  -0.126537  0  -0.008461  -0.084143  0  4.062133  0
C  C122  1  0.03723332  0.50888797  0.96299921  1  -0.381959  0  -0.009592  -0.084691  0  4.067127  0
C  C123  1  0.12294822  0.50949576  0.96118069  1  0.138104  0  0.026783  0.14553  0  4.084377  0
C  C124  1  0.16802289  0.56596082  0.94120711  1  -0.027537  0  0.005883  -0.131157  0  3.890456  0
C  C125  1  0.25242825  0.56027658  0.94183931  1  0.603733  0  0.08488  0.11527  0  3.84524  0
C  C126  1  0.24891862  0.45071774  0.97919076  1  0.545158  0  0.075657  0.11658  0  3.894148  0
C  C127  1  0.16507281  0.45123567  0.98042166  1  -0.070968  0  -0.057975  -0.151334  0  3.880973  0
C  C128  1  0.49910058  0.73244199  0.95941178  1  0.032036  0  -0.005808  -0.018623  0  3.942743  0
C  C129  1  0.42719704  0.77375146  0.95671912  1  -0.070438  0  -0.065653  -0.066922  0  3.948609  0
C  C130  1  0.42971639  0.85121376  0.95802416  1  -0.031959  0  -0.072438  -0.114067  0  3.924204  0
C  C131  1  0.50420494  0.88952730  0.96169689  1  0.149478  0  0.005511  0.111043  0  4.097682  0
C  C132  1  0.57742059  0.84780543  0.96374142  1  0.03079  0  -0.008869  -0.100598  0  3.926315  0
C  C133  1  0.57287069  0.76987477  0.96272716  1  -0.030982  0  -0.063312  -0.080169  0  3.920576  0
C  C134  1  0.50146178  0.96860014  0.96324221  1  -0.222942  0  -0.022859  -0.101925  0  4.102183  0
C  C135  1  0.49451220  0.03690077  0.96461420  1  -0.298605  0  -0.023161  -0.104178  0  4.103374  0
C  C136  1  0.49121328  0.11596329  0.96553498  1  0.052681  0  0.006239  0.113613  0  4.096493  0
C  C137  1  0.41740209  0.15695679  0.96746785  1  0.001021  0  -0.009858  -0.101851  0  3.926198  0
C  C138  1  0.42108685  0.23496307  0.96746216  1  0.017851  0  -0.065099  -0.082885  0  3.928087  0
C  C139  1  0.49460566  0.27320927  0.96536518  1  0.013695  0  -0.006981  -0.019043  0  3.943188  0
C  C140  1  0.56719708  0.23259460  0.96380243  1  0.039101  0  -0.066293  -0.065795  0  3.952149  0
C  C141  1  0.56557987  0.15512276  0.96405819  1  -0.030605  0  -0.073034  -0.115319  0  3.926512  0
C  C142  1  0.13366864  0.39379288  0.44196357  1  1.562706  0  0.236579  0.573085  0  4.130362  0
C  C143  1  0.86520774  0.63184016  0.54232098  1  1.574016  0  0.235424  0.573018  0  4.128805  0
C  C144  1  0.33783209  0.87642115  0.49392268  1  1.562579  0  0.22542  0.570175  0  4.125765  0
C  C145  1  0.66659119  0.12099108  0.49157344  1  1.52305  0  0.225288  0.570382  0  4.12702  0
C  C146  1  0.66380773  0.49201211  0.16465298  1  1.540325  0  0.226208  0.569535  0  4.123795  0
C  C147  1  0.33575647  0.49026173  0.29782860  1  1.520693  0  0.226228  0.569991  0  4.123916  0
C  C148  1  0.86654296  0.39731330  0.02007820  1  1.556569  0  0.235983  0.570978  0  4.130999  0
C  C149  1  0.13497298  0.63373842  0.91991790  1  1.563088  0  0.237079  0.576272  0  4.12606  0
C  C150  1  0.66169317  0.87966631  0.96681497  1  1.5268  0  0.225402  0.569379  0  4.126914  0
C  C151  1  0.33329900  0.12423601  0.96950439  1  1.521807  0  0.22471  0.569683  0  4.126978  0
S  S152  1  0.25722681  0.49148281  0.78002637  1  3.030766  0  0.537583  1.156149  0  5.996827  0
S  S153  1  0.74286715  0.49082318  0.68229417  1  3.048081  0  0.538073  1.157098  0  5.997194  0
N  N154  1  0.29110561  0.49972013  0.49828013  1  -1.241557  0  -0.307132  -0.183493  0  3.503826  0
N  N155  1  0.70867479  0.50201207  0.50202503  1  -1.233689  0  -0.30734  -0.183642  0  3.496158  0
N  N156  1  0.70917514  0.50273210  0.96389587  1  -1.218436  0  -0.307178  -0.181706  0  3.500288  0
N  N157  1  0.29158614  0.50455317  0.96019909  1  -1.23521  0  -0.307758  -0.18527  0  3.498492  0
O  O158  1  0.57100247  0.61496200  0.50824479  1  -1.162646  0  -0.313676  -0.5445  0  2.321531  0
O  O159  1  0.43591881  0.61214036  0.49656394  1  -1.165102  0  -0.31385  -0.544911  0  2.322177  0
O  O160  1  0.42275603  0.50979116  0.56282250  1  -1.155706  0  -0.316894  -0.546629  0  2.31133  0
O  O161  1  0.55814316  0.48779926  0.56126676  1  -1.16945  0  -0.317716  -0.547232  0  2.318658  0
O  O162  1  0.43672420  0.38521840  0.50585294  1  -1.161484  0  -0.314685  -0.54372  0  2.313269  0
O  O163  1  0.57175470  0.38773986  0.49225068  1  -1.166372  0  -0.315858  -0.548938  0  2.327548  0
O  O164  1  0.56667561  0.51390707  0.43912087  1  -1.165498  0  -0.318266  -0.547882  0  2.300453  0
O  O165  1  0.43221109  0.48746285  0.44017188  1  -1.160211  0  -0.31352  -0.540545  0  2.338856  0
O  O166  1  0.42910325  0.61738102  0.95352768  1  -1.1642  0  -0.313666  -0.544175  0  2.32318  0
O  O167  1  0.56435231  0.61520129  0.96485800  1  -1.169317  0  -0.313853  -0.544571  0  2.323439  0
O  O168  1  0.57749128  0.51046654  0.89949147  1  -1.161867  0  -0.317506  -0.546927  0  2.31073  0
O  O169  1  0.44206499  0.48868363  0.90111475  1  -1.164875  0  -0.318109  -0.547689  0  2.317126  0
O  O170  1  0.56386516  0.38792626  0.95711348  1  -1.16563  0  -0.314884  -0.544087  0  2.311726  0
O  O171  1  0.42874084  0.39064141  0.97040139  1  -1.167732  0  -0.315807  -0.54934  0  2.329126  0
O  O172  1  0.43359681  0.51824162  0.02322344  1  -1.161161  0  -0.318139  -0.547541  0  2.298252  0
O  O173  1  0.56826287  0.49263478  0.02221271  1  -1.168033  0  -0.313296  -0.540292  0  2.338996  0
O  O174  1  0.05628621  0.40234555  0.42943541  1  -1.095259  0  -0.331265  -0.450741  0  2.222272  0
O  O175  1  0.17450590  0.34153175  0.43007341  1  -1.089182  0  -0.262323  -0.422788  0  2.032048  0
O  O176  1  0.94544900  0.63398653  0.55029105  1  -1.101559  0  -0.332393  -0.449997  0  2.229377  0
O  O177  1  0.82115757  0.68333085  0.55216325  1  -1.094677  0  -0.26219  -0.422835  0  2.035718  0
O  O178  1  0.32919651  0.95152618  0.49039850  1  -1.119487  0  -0.345027  -0.465037  0  2.235023  0
O  O179  1  0.27806056  0.83646557  0.49458268  1  -1.113008  0  -0.29212  -0.45797  0  2.038912  0
O  O180  1  0.67424844  0.04552608  0.49094193  1  -1.107158  0  -0.344353  -0.463841  0  2.236417  0
O  O181  1  0.72690355  0.16024391  0.49021183  1  -1.122556  0  -0.294308  -0.460951  0  2.04037  0
O  O182  1  0.67159782  0.48537198  0.20522095  1  -1.113174  0  -0.347154  -0.46884  0  2.23513  0
O  O183  1  0.72405833  0.49409813  0.14315648  1  -1.117667  0  -0.289197  -0.453787  0  2.039517  0
O  O184  1  0.32776124  0.48467296  0.25719251  1  -1.113081  0  -0.346691  -0.467366  0  2.236743  0
O  O185  1  0.27560583  0.49198462  0.31940295  1  -1.106335  0  -0.289264  -0.454074  0  2.040234  0
O  O186  1  0.94395645  0.40593490  0.03258037  1  -1.090669  0  -0.331133  -0.449815  0  2.222423  0
O  O187  1  0.82561655  0.34532347  0.03199098  1  -1.086164  0  -0.261471  -0.421701  0  2.031812  0
O  O188  1  0.05477298  0.63565751  0.91185048  1  -1.082573  0  -0.332946  -0.451308  0  2.22816  0
O  O189  1  0.17892544  0.68519495  0.91018652  1  -1.092065  0  -0.26336  -0.424572  0  2.034934  0
O  O190  1  0.67013402  0.95491092  0.96992197  1  -1.111702  0  -0.34514  -0.465245  0  2.236176  0
O  O191  1  0.72155353  0.83980412  0.96653030  1  -1.109697  0  -0.292376  -0.457689  0  2.039449  0
O  O192  1  0.32536266  0.04880431  0.96961655  1  -1.115949  0  -0.344146  -0.463675  0  2.236357  0
O  O193  1  0.27313730  0.16369977  0.97106091  1  -1.121495  0  -0.294083  -0.460463  0  2.040042  0
O  O194  1  0.26297759  0.40697033  0.79750609  1  -1.175259  0  -0.366137  -0.533304  0  2.109473  0
O  O195  1  0.19399005  0.48838371  0.75084550  1  -1.269556  0  -0.303603  -0.50149  0  2.102418  0
O  O196  1  0.25367711  0.54233945  0.81387089  1  -1.283463  0  -0.317547  -0.537202  0  2.115525  0
O  O197  1  0.73693785  0.40633168  0.66441941  1  -1.173587  0  -0.365732  -0.532816  0  2.109361  0
O  O198  1  0.80611121  0.48757921  0.71145461  1  -1.270694  0  -0.304286  -0.502193  0  2.101767  0
O  O199  1  0.74646513  0.54170683  0.64869683  1  -1.297168  0  -0.317507  -0.537325  0  2.115291  0
