# generated using pymatgen
data_ZnH2C6NO5
_symmetry_space_group_name_H-M   'P 1'
_cell_length_a   7.81372367
_cell_length_b   8.74865682
_cell_length_c   14.93852882
_cell_angle_alpha   85.26479128
_cell_angle_beta   97.32642383
_cell_angle_gamma   82.55403569
_symmetry_Int_Tables_number   1
_chemical_formula_structural   ZnH2C6NO5
_chemical_formula_sum   'Zn2 H4 C12 N2 O10'
_cell_volume   999.20417573
_cell_formula_units_Z   2
loop_
 _symmetry_equiv_pos_site_id
 _symmetry_equiv_pos_as_xyz
  1  'x, y, z'
loop_
 _atom_site_type_symbol
 _atom_site_label
 _atom_site_symmetry_multiplicity
 _atom_site_fract_x
 _atom_site_fract_y
 _atom_site_fract_z
 _atom_site_occupancy
 _atom_site_pbe_bader_charge
 _atom_site_pbe_bader_spin_density
 _atom_site_pbe_cm5_charge
 _atom_site_pbe_ddec_charge
 _atom_site_pbe_ddec_spin_density
 _atom_site_pbe_ddec_sum_bond_order
 _atom_site_pbe_magmom
Zn  Zn0  1  0.69467982  0.49197824  0.54020633  1  1.310018  0  0.701241  0.848714  0  2.311836  0
Zn  Zn1  1  0.30529051  0.50809050  0.45979091  1  1.310518  0  0.701157  0.848683  0  2.311804  0
H  H2  1  0.29896829  0.01656191  0.48082827  1  0.132144  0  0.12003  0.143301  0  0.968187  0
H  H3  1  0.70101608  0.98351823  0.51916198  1  0.133136  0  0.120038  0.143355  0  0.968174  0
H  H4  1  0.20842936  0.47989876  0.63609969  1  0.670412  0  0.317959  0.357035  0  0.973723  0
H  H5  1  0.79153928  0.52018321  0.36388969  1  0.670612  0  0.317981  0.357129  0  0.973619  0
C  C6  1  0.45970362  0.78758210  0.49726298  1  1.565227  0  0.224229  0.6486  0  4.140008  0
C  C7  1  0.50185806  0.49547923  0.95913823  1  0.059414  0  0.003935  0.00144  0  4.179028  0
C  C8  1  0.43331056  0.95909986  0.49407753  1  0.0109  0  -0.068095  -0.156229  0  3.84815  0
C  C9  1  0.56667151  0.04097359  0.50591090  1  -0.092975  0  -0.068101  -0.156442  0  3.848125  0
C  C10  1  0.54027641  0.21248905  0.50272685  1  1.5638  0  0.224357  0.649011  0  4.139157  0
C  C11  1  0.46391920  0.52186086  0.30504117  1  1.685506  0  0.226787  0.662532  0  4.240688  0
C  C12  1  0.53607187  0.47813441  0.69495993  1  1.686272  0  0.226783  0.662212  0  4.240733  0
C  C13  1  0.48223980  0.51984072  0.21056056  1  0.205514  0  -0.006312  -0.138305  0  3.839083  0
C  C14  1  0.51779977  0.47999706  0.78946418  1  0.205385  0  -0.005965  -0.137295  0  3.839795  0
C  C15  1  0.49148501  0.51283603  0.12957676  1  -0.270627  0  -0.004928  0.032805  0  4.251548  0
C  C16  1  0.50861102  0.48688861  0.87043926  1  -0.270791  0  -0.005216  0.031975  0  4.252364  0
C  C17  1  0.49828890  0.50420625  0.04090038  1  -0.149053  0  0.004394  0.001988  0  4.179493  0
N  N18  1  0.07536090  0.49735164  0.52084328  1  0.033659  0  -0.070677  0.072351  0  3.486769  0
N  N19  1  0.92460393  0.50273270  0.47914734  1  0.073367  0  -0.070508  0.072466  0  3.486393  0
O  O20  1  0.61468705  0.71633858  0.51626225  1  -1.159016  0  -0.312175  -0.544787  0  2.358684  0
O  O21  1  0.92270632  0.51738559  0.38851116  1  -0.683349  0  -0.215546  -0.312212  0  2.175136  0
O  O22  1  0.38529213  0.28373169  0.48374109  1  -1.158576  0  -0.312131  -0.544858  0  2.358617  0
O  O23  1  0.32152225  0.72542423  0.48008455  1  -1.143396  0  -0.313362  -0.538833  0  2.322364  0
O  O24  1  0.67845998  0.27464733  0.51989787  1  -1.143484  0  -0.313537  -0.539117  0  2.322051  0
O  O25  1  0.59868921  0.52073925  0.36314005  1  -1.171585  0  -0.301249  -0.575939  0  2.280313  0
O  O26  1  0.40127154  0.47936724  0.63686534  1  -1.171613  0  -0.301194  -0.575804  0  2.280564  0
O  O27  1  0.30963784  0.52315548  0.32495798  1  -1.10915  0  -0.302077  -0.500721  0  2.21243  0
O  O28  1  0.69034591  0.47685785  0.67503506  1  -1.10934  0  -0.302136  -0.500743  0  2.212616  0
O  O29  1  0.07726570  0.48266512  0.61147992  1  -0.682934  0  -0.215681  -0.312314  0  2.175501  0
