# generated using pymatgen
data_ZnH16C8(NO3)2
_symmetry_space_group_name_H-M   'P 1'
_cell_length_a   6.32357586
_cell_length_b   7.17197641
_cell_length_c   12.05031203
_cell_angle_alpha   90.00017769
_cell_angle_beta   101.47411657
_cell_angle_gamma   89.99981959
_symmetry_Int_Tables_number   1
_chemical_formula_structural   ZnH16C8(NO3)2
_chemical_formula_sum   'Zn2 H32 C16 N4 O12'
_cell_volume   535.58999371
_cell_formula_units_Z   2
loop_
 _symmetry_equiv_pos_site_id
 _symmetry_equiv_pos_as_xyz
  1  'x, y, z'
loop_
 _atom_site_type_symbol
 _atom_site_label
 _atom_site_symmetry_multiplicity
 _atom_site_fract_x
 _atom_site_fract_y
 _atom_site_fract_z
 _atom_site_occupancy
 _atom_site_pbe_bader_charge
 _atom_site_pbe_bader_spin_density
 _atom_site_pbe_cm5_charge
 _atom_site_pbe_ddec_charge
 _atom_site_pbe_ddec_spin_density
 _atom_site_pbe_ddec_sum_bond_order
 _atom_site_pbe_magmom
Zn  Zn0  1  0.49999806  0.99999871  0.50000006  1  1.295078  0  0.666539  0.846522  0  2.207557  0
Zn  Zn1  1  0.50000216  0.50000134  0.00000053  1  1.295075  0  0.666541  0.846549  0  2.207497  0
H  H2  1  0.73622565  0.40926730  0.46268302  1  0.093781  0  0.117286  0.119017  0  1.00293  0
H  H3  1  0.26377502  0.90926952  0.03731994  1  0.093798  0  0.117308  0.119068  0  1.002845  0
H  H4  1  0.26377622  0.59072823  0.53731928  1  0.093807  0  0.117284  0.119058  0  1.002812  0
H  H5  1  0.73622685  0.09073158  0.96267986  1  0.093731  0  0.11727  0.119026  0  1.002859  0
H  H6  1  0.93559814  0.40475829  0.58945599  1  0.038398  0  0.108508  0.107919  0  0.987982  0
H  H7  1  0.06440173  0.90476689  0.91054671  1  0.038402  0  0.108511  0.107894  0  0.987963  0
H  H8  1  0.06440212  0.59523445  0.41054697  1  0.038361  0  0.108501  0.107881  0  0.988001  0
H  H9  1  0.93560014  0.09523979  0.08945227  1  0.038388  0  0.108527  0.107907  0  0.988011  0
H  H10  1  0.08235150  0.22919452  0.43053523  1  0.06228  0  0.101101  0.081177  0  0.999287  0
H  H11  1  0.91764847  0.72919889  0.06946567  1  0.062252  0  0.10111  0.08119  0  0.999316  0
H  H12  1  0.91764553  0.77079961  0.56946574  1  0.062351  0  0.10111  0.081183  0  0.999294  0
H  H13  1  0.08235340  0.27080500  0.93053248  1  0.062204  0  0.101129  0.08118  0  0.999292  0
H  H14  1  0.82284268  0.19177179  0.34326740  1  0.051058  0  0.106522  0.089058  0  1.002646  0
H  H15  1  0.17715587  0.69177614  0.15673162  1  0.051051  0  0.106513  0.088945  0  1.002743  0
H  H16  1  0.17715274  0.80822373  0.65673173  1  0.051064  0  0.106511  0.088941  0  1.002777  0
H  H17  1  0.82284600  0.30823054  0.84326736  1  0.051074  0  0.106527  0.089039  0  1.002649  0
H  H18  1  0.91800083  0.04952732  0.68638627  1  0.083709  0  0.105633  0.098993  0  0.991156  0
H  H19  1  0.08199438  0.54953400  0.81361363  1  0.08369  0  0.105641  0.099005  0  0.991106  0
H  H20  1  0.08199459  0.95046681  0.31361452  1  0.083757  0  0.105652  0.09902  0  0.991114  0
H  H21  1  0.91800427  0.45047128  0.18638501  1  0.083758  0  0.105617  0.099014  0  0.991054  0
H  H22  1  0.13798023  0.14805281  0.63293541  1  0.08515  0  0.100132  0.086204  0  1.029504  0
H  H23  1  0.86201609  0.64806019  0.86706479  1  0.085278  0  0.10013  0.086189  0  1.02941  0
H  H24  1  0.86201519  0.85193993  0.36706455  1  0.08528  0  0.100127  0.086203  0  1.029403  0
H  H25  1  0.13798416  0.35194509  0.13293319  1  0.085304  0  0.100125  0.086189  0  1.029473  0
H  H26  1  0.46765654  0.08656931  0.27520729  1  0.64083  0  0.287707  0.375654  0  0.969839  0
H  H27  1  0.53234738  0.58657079  0.22479376  1  0.6409  0  0.287735  0.375669  0  0.969805  0
H  H28  1  0.53234533  0.91342900  0.72479335  1  0.640902  0  0.287727  0.37567  0  0.969812  0
H  H29  1  0.46765288  0.41343171  0.77520588  1  0.640889  0  0.28772  0.37565  0  0.969843  0
H  H30  1  0.38815728  0.27161752  0.33051363  1  0.648612  0  0.292395  0.389847  0  0.949032  0
H  H31  1  0.61184248  0.77161861  0.16948650  1  0.648651  0  0.292383  0.389815  0  0.949083  0
H  H32  1  0.61183975  0.72838079  0.66948650  1  0.648601  0  0.292369  0.389802  0  0.949099  0
H  H33  1  0.38815617  0.22838528  0.83051380  1  0.648673  0  0.292374  0.389816  0  0.949081  0
C  C34  1  0.60823741  0.35206177  0.60808431  1  1.585669  0  0.214674  0.60676  0  4.149304  0
C  C35  1  0.39176111  0.85206847  0.89191650  1  1.585669  0  0.214664  0.606884  0  4.149115  0
C  C36  1  0.39175800  0.64793236  0.39191483  1  1.585656  0  0.214631  0.60672  0  4.149155  0
C  C37  1  0.60824560  0.14793821  0.10808298  1  1.586061  0  0.214605  0.606765  0  4.149252  0
C  C38  1  0.79068923  0.33343482  0.54272076  1  0.259905  0  -0.075342  -0.243382  0  3.925412  0
C  C39  1  0.20931100  0.83344070  0.95728102  1  0.259788  0  -0.075338  -0.243411  0  3.925389  0
C  C40  1  0.20931103  0.66655931  0.45728137  1  0.259828  0  -0.075298  -0.243342  0  3.925358  0
C  C41  1  0.79069087  0.16656319  0.04271796  1  0.259456  0  -0.075353  -0.243383  0  3.925412  0
C  C42  1  0.93969892  0.13710497  0.41547755  1  0.259043  0  -0.072455  -0.077006  0  3.87437  0
C  C43  1  0.06029991  0.63711048  0.08452223  1  0.259041  0  -0.072424  -0.076743  0  3.874306  0
C  C44  1  0.06029812  0.86288916  0.58452093  1  0.258949  0  -0.072402  -0.076683  0  3.874397  0
C  C45  1  0.93970358  0.36289760  0.91547608  1  0.259073  0  -0.072425  -0.076867  0  3.874354  0
C  C46  1  0.99450792  0.05790274  0.61255744  1  0.222956  0  -0.081362  -0.098448  0  3.88023  0
C  C47  1  0.00549209  0.55791129  0.88744215  1  0.222791  0  -0.081337  -0.098308  0  3.880063  0
C  C48  1  0.00549073  0.94209000  0.38744286  1  0.22277  0  -0.081322  -0.098312  0  3.880026  0
C  C49  1  0.99451139  0.44209678  0.11255700  1  0.222731  0  -0.081299  -0.098378  0  3.879948  0
N  N50  1  0.83789007  0.13923302  0.51632581  1  -1.010713  0  -0.332426  -0.110404  0  3.446952  0
N  N51  1  0.16211114  0.63923910  0.98367489  1  -1.010668  0  -0.332464  -0.110518  0  3.446968  0
N  N52  1  0.16210858  0.86075971  0.48367532  1  -1.010656  0  -0.332505  -0.110597  0  3.44714  0
N  N53  1  0.83789234  0.36076758  0.01632343  1  -1.010593  0  -0.332509  -0.11058  0  3.446956  0
O  O54  1  0.60982332  0.48935464  0.67451134  1  -1.20685  0  -0.311352  -0.556208  0  2.234529  0
O  O55  1  0.39017612  0.98935821  0.82548982  1  -1.2069  0  -0.311381  -0.556287  0  2.234457  0
O  O56  1  0.39017855  0.51064228  0.32548930  1  -1.206911  0  -0.311323  -0.556168  0  2.234465  0
O  O57  1  0.60983382  0.01064568  0.17451083  1  -1.206763  0  -0.311281  -0.556197  0  2.234517  0
O  O58  1  0.45718233  0.23167659  0.59106765  1  -1.185878  0  -0.313779  -0.52563  0  2.329467  0
O  O59  1  0.54281841  0.73168180  0.90893482  1  -1.185768  0  -0.313748  -0.525666  0  2.329376  0
O  O60  1  0.54281470  0.76832033  0.40893248  1  -1.185748  0  -0.313782  -0.52562  0  2.329326  0
O  O61  1  0.45718669  0.26832069  0.09106781  1  -1.185746  0  -0.313783  -0.525633  0  2.329322  0
O  O62  1  0.40037122  0.13415055  0.33782154  1  -1.275562  0  -0.580532  -0.76692  0  2.174171  0
O  O63  1  0.59962762  0.63415161  0.16217907  1  -1.275612  0  -0.580556  -0.766923  0  2.17422  0
O  O64  1  0.59962743  0.86584637  0.66217876  1  -1.27553  0  -0.580533  -0.766899  0  2.174227  0
O  O65  1  0.40037425  0.36585089  0.83782240  1  -1.275624  0  -0.580529  -0.766909  0  2.174241  0
