# generated using pymatgen
data_CdH18C20S2(N4O)2
_symmetry_space_group_name_H-M   'P 1'
_cell_length_a   5.48739925
_cell_length_b   9.05786696
_cell_length_c   23.64470721
_cell_angle_alpha   90.00018151
_cell_angle_beta   90.00030278
_cell_angle_gamma   102.85349368
_symmetry_Int_Tables_number   1
_chemical_formula_structural   CdH18C20S2(N4O)2
_chemical_formula_sum   'Cd2 H36 C40 S4 N16 O4'
_cell_volume   1145.79059823
_cell_formula_units_Z   2
loop_
 _symmetry_equiv_pos_site_id
 _symmetry_equiv_pos_as_xyz
  1  'x, y, z'
loop_
 _atom_site_type_symbol
 _atom_site_label
 _atom_site_symmetry_multiplicity
 _atom_site_fract_x
 _atom_site_fract_y
 _atom_site_fract_z
 _atom_site_occupancy
 _atom_site_pbe_bader_spin_density
 _atom_site_pbe_cm5_charge
 _atom_site_pbe_ddec_charge
 _atom_site_pbe_ddec_spin_density
 _atom_site_pbe_ddec_sum_bond_order
 _atom_site_pbe_magmom
Cd  Cd0  1  0.50001509  0.50000522  0.50000093  1  0  0.730274  0.733575  0  2.459256  0
Cd  Cd1  1  0.50001285  0.00000002  0.99999988  1  0  0.73028  0.733594  0  2.459219  0
H  H2  1  0.79088554  0.71974843  0.59332561  1  0  0.111305  0.089093  0  1.052441  0
H  H3  1  0.20912068  0.78025322  0.09332404  1  0  0.111336  0.089101  0  1.052418  0
H  H4  1  0.20912742  0.28026020  0.40667709  1  0  0.111344  0.089164  0  1.052378  0
H  H5  1  0.79088471  0.21974647  0.90667443  1  0  0.111335  0.089118  0  1.052507  0
H  H6  1  0.17182194  0.76530998  0.50038170  1  0  0.103305  0.068803  0  1.066872  0
H  H7  1  0.82819407  0.73469547  0.00038322  1  0  0.103296  0.068755  0  1.066862  0
H  H8  1  0.82820632  0.23470852  0.49961508  1  0  0.103302  0.068698  0  1.066902  0
H  H9  1  0.17179547  0.26528061  0.99961355  1  0  0.103331  0.068775  0  1.066857  0
H  H10  1  0.16511449  0.01274045  0.54663461  1  0  0.099444  0.102825  0  1.022284  0
H  H11  1  0.83488725  0.48726027  0.04663102  1  0  0.099411  0.102785  0  1.022234  0
H  H12  1  0.83490127  0.98727039  0.45336809  1  0  0.099442  0.102802  0  1.022222  0
H  H13  1  0.16509098  0.51271499  0.95336745  1  0  0.099452  0.102777  0  1.022254  0
H  H14  1  0.98438070  0.90062802  0.66200408  1  0  0.108612  0.096083  0  1.004231  0
H  H15  1  0.01561793  0.59937018  0.16200147  1  0  0.1086  0.096027  0  1.004254  0
H  H16  1  0.01561928  0.09937182  0.33799988  1  0  0.108595  0.096033  0  1.004259  0
H  H17  1  0.98437714  0.40063094  0.83799996  1  0  0.108583  0.096055  0  1.004279  0
H  H18  1  0.94224194  0.09034795  0.65632571  1  0  0.103672  0.087793  0  1.019497  0
H  H19  1  0.05775140  0.40964829  0.15632178  1  0  0.10368  0.087776  0  1.019545  0
H  H20  1  0.05776935  0.90965271  0.34367826  1  0  0.10368  0.087729  0  1.019585  0
H  H21  1  0.94222826  0.59035098  0.84367922  1  0  0.103679  0.087763  0  1.019581  0
H  H22  1  0.48373305  0.11206219  0.62172576  1  0  0.106547  0.119298  0  1.003407  0
H  H23  1  0.51625374  0.38793091  0.12172020  1  0  0.10652  0.11914  0  1.003391  0
H  H24  1  0.51626743  0.88793878  0.37827905  1  0  0.106529  0.119247  0  1.003361  0
H  H25  1  0.48371356  0.61205267  0.87827911  1  0  0.106517  0.119207  0  1.003319  0
H  H26  1  0.69382053  0.85170860  0.73753437  1  0  0.298853  0.27101  0  1.023653  0
H  H27  1  0.30617743  0.64828960  0.23753036  1  0  0.298861  0.270938  0  1.023688  0
H  H28  1  0.30617634  0.14829247  0.26246706  1  0  0.29889  0.271  0  1.023634  0
H  H29  1  0.69382286  0.35170679  0.76246769  1  0  0.298883  0.270981  0  1.023584  0
H  H30  1  0.44668729  0.90275451  0.80350391  1  0  0.122546  0.161058  0  0.981726  0
H  H31  1  0.55331655  0.59725009  0.30349943  1  0  0.12254  0.161047  0  0.981664  0
H  H32  1  0.55330207  0.09725021  0.19649625  1  0  0.122544  0.161089  0  0.981649  0
H  H33  1  0.44668473  0.40274857  0.69649735  1  0  0.122564  0.161099  0  0.981613  0
H  H34  1  0.65971381  0.06180800  0.83060198  1  0  0.124795  0.164896  0  0.981444  0
H  H35  1  0.34029290  0.43819309  0.33059837  1  0  0.124757  0.164867  0  0.98158  0
H  H36  1  0.34027648  0.93818638  0.16939734  1  0  0.124795  0.164896  0  0.981419  0
H  H37  1  0.65972118  0.56180978  0.66939883  1  0  0.124775  0.164908  0  0.981444  0
C  C38  1  0.97500665  0.41869515  0.57113979  1  0  0.150611  0.271002  0  4.3034  0
C  C39  1  0.02499712  0.08129824  0.07114019  1  0  0.150513  0.270808  0  4.303682  0
C  C40  1  0.02501290  0.58132017  0.42885953  1  0  0.150559  0.270912  0  4.303442  0
C  C41  1  0.97501522  0.91868407  0.92885785  1  0  0.150463  0.270801  0  4.30341  0
C  C42  1  0.65414149  0.78808761  0.58474373  1  0  0.038778  0.018858  0  3.932344  0
C  C43  1  0.34586190  0.71191157  0.08474056  1  0  0.038804  0.018923  0  3.932204  0
C  C44  1  0.34586918  0.21191994  0.41525855  1  0  0.038666  0.018668  0  3.932473  0
C  C45  1  0.65413262  0.28807582  0.91525664  1  0  0.038694  0.018821  0  3.932491  0
C  C46  1  0.30951380  0.81299107  0.53239747  1  0  0.041621  0.089773  0  3.945571  0
C  C47  1  0.69048544  0.68701009  0.03239489  1  0  0.041763  0.090011  0  3.945587  0
C  C48  1  0.69049655  0.18701992  0.46760227  1  0  0.041726  0.090019  0  3.945614  0
C  C49  1  0.30949739  0.31296733  0.96760062  1  0  0.041778  0.09  0  3.945746  0
C  C50  1  0.66036767  0.92251239  0.61412228  1  0  -0.003718  0.054247  0  3.941077  0
C  C51  1  0.33962665  0.57748334  0.11411723  1  0  -0.003743  0.054225  0  3.940835  0
C  C52  1  0.33964400  0.07749742  0.38588084  1  0  -0.003717  0.054149  0  3.941021  0
C  C53  1  0.66035034  0.42250569  0.88587828  1  0  -0.003726  0.054146  0  3.941073  0
C  C54  1  0.30535204  0.95016167  0.55859262  1  0  -0.085622  -0.119696  0  3.989842  0
C  C55  1  0.69463762  0.54983482  0.05858820  1  0  -0.085591  -0.119718  0  3.989632  0
C  C56  1  0.69465831  0.04984933  0.44140796  1  0  -0.085693  -0.119785  0  3.989926  0
C  C57  1  0.30532961  0.45013616  0.94140688  1  0  -0.085796  -0.119827  0  3.989895  0
C  C58  1  0.84562106  0.97114284  0.66163038  1  0  -0.056153  -0.059344  0  3.919678  0
C  C59  1  0.15437937  0.52885529  0.16162786  1  0  -0.056181  -0.059319  0  3.919753  0
C  C60  1  0.15438780  0.02886476  0.33837190  1  0  -0.056134  -0.059192  0  3.919691  0
C  C61  1  0.84561142  0.47114022  0.83837103  1  0  -0.056118  -0.05928  0  3.919908  0
C  C62  1  0.48245101  0.00579636  0.59990618  1  0  -0.064486  -0.074749  0  3.905199  0
C  C63  1  0.51753537  0.49419953  0.09990084  1  0  -0.064495  -0.074594  0  3.904806  0
C  C64  1  0.51755456  0.99420790  0.40009737  1  0  -0.064417  -0.074595  0  3.904995  0
C  C65  1  0.48243585  0.50578050  0.90009593  1  0  -0.064453  -0.074579  0  3.904867  0
C  C66  1  0.63257687  0.06574599  0.74014321  1  0  0.249433  0.535294  0  4.09434  0
C  C67  1  0.36742503  0.43425482  0.24013926  1  0  0.249431  0.53543  0  4.094217  0
C  C68  1  0.36740957  0.93426453  0.25985779  1  0  0.249479  0.53554  0  4.09387  0
C  C69  1  0.63258228  0.56573680  0.75985878  1  0  0.249536  0.535589  0  4.09396  0
C  C70  1  0.51305373  0.02576578  0.79839037  1  0  -0.127621  -0.349908  0  3.960007  0
C  C71  1  0.48694482  0.47423687  0.29838795  1  0  -0.127509  -0.349777  0  3.959714  0
C  C72  1  0.48693152  0.97423791  0.20160979  1  0  -0.12765  -0.350007  0  3.960054  0
C  C73  1  0.51305827  0.52576173  0.70161052  1  0  -0.127601  -0.349999  0  3.959696  0
C  C74  1  0.30861421  0.10022050  0.80853731  1  0  0.190011  0.340433  0  3.976402  0
C  C75  1  0.69140010  0.39978086  0.30853603  1  0  0.189854  0.340161  0  3.976357  0
C  C76  1  0.69137539  0.89980138  0.19146581  1  0  0.189816  0.34024  0  3.976421  0
C  C77  1  0.30860622  0.60020849  0.69146159  1  0  0.189964  0.340364  0  3.976321  0
S  S78  1  0.80266328  0.66965591  0.41721480  1  0  -0.123352  -0.276862  0  2.477942  0
S  S79  1  0.19735081  0.83033692  0.91721195  1  0  -0.123289  -0.276814  0  2.47784  0
S  S80  1  0.19734720  0.33034706  0.58278663  1  0  -0.123342  -0.276896  0  2.477735  0
S  S81  1  0.80265992  0.16965001  0.08278567  1  0  -0.123379  -0.276888  0  2.477807  0
N  N82  1  0.81567022  0.48471847  0.56171794  1  0  -0.397632  -0.470342  0  3.177272  0
N  N83  1  0.18434190  0.01528126  0.06171765  1  0  -0.39749  -0.470116  0  3.177327  0
N  N84  1  0.18435076  0.51528764  0.43828433  1  0  -0.397575  -0.470265  0  3.177015  0
N  N85  1  0.81566802  0.98470798  0.93828124  1  0  -0.397546  -0.47024  0  3.177102  0
N  N86  1  0.48236516  0.73376580  0.54491813  1  0  -0.326779  -0.229054  0  3.528262  0
N  N87  1  0.51764184  0.76623666  0.04491577  1  0  -0.326887  -0.229212  0  3.528442  0
N  N88  1  0.51765470  0.26624607  0.45508372  1  0  -0.326767  -0.228977  0  3.528288  0
N  N89  1  0.48234577  0.23374749  0.95508101  1  0  -0.326753  -0.22904  0  3.528639  0
N  N90  1  0.72055553  0.95449533  0.71642345  1  0  -0.41124  -0.340394  0  3.544187  0
N  N91  1  0.27944334  0.54550450  0.21641998  1  0  -0.411253  -0.340367  0  3.544344  0
N  N92  1  0.27944725  0.04550672  0.28357925  1  0  -0.411234  -0.340346  0  3.544448  0
N  N93  1  0.72055633  0.45449878  0.78357848  1  0  -0.411244  -0.340365  0  3.544487  0
N  N94  1  0.14568617  0.16143328  0.81585621  1  0  -0.314625  -0.400271  0  2.798792  0
N  N95  1  0.85432295  0.33857303  0.31585339  1  0  -0.314505  -0.400049  0  2.79889  0
N  N96  1  0.85431909  0.83857442  0.18414902  1  0  -0.314415  -0.400058  0  2.798407  0
N  N97  1  0.14567933  0.66142788  0.68414551  1  0  -0.314582  -0.400195  0  2.798761  0
O  O98  1  0.64851009  0.19339255  0.71834839  1  0  -0.303464  -0.516618  0  2.172736  0
O  O99  1  0.35147711  0.30660343  0.21834548  1  0  -0.303469  -0.516715  0  2.172661  0
O  O100  1  0.35146640  0.80659535  0.28165389  1  0  -0.303543  -0.516891  0  2.172154  0
O  O101  1  0.64852734  0.69340659  0.78165468  1  0  -0.303591  -0.516877  0  2.172197  0
