# generated using pymatgen
data_Al2H26C32N4O11
_symmetry_space_group_name_H-M   'P 1'
_cell_length_a   6.67023353
_cell_length_b   23.00885744
_cell_length_c   26.07932392
_cell_angle_alpha   100.95021867
_cell_angle_beta   90.00001205
_cell_angle_gamma   89.99950599
_symmetry_Int_Tables_number   1
_chemical_formula_structural   Al2H26C32N4O11
_chemical_formula_sum   'Al4 H52 C64 N8 O22'
_cell_volume   3929.63464465
_cell_formula_units_Z   2
loop_
 _symmetry_equiv_pos_site_id
 _symmetry_equiv_pos_as_xyz
  1  'x, y, z'
loop_
 _atom_site_type_symbol
 _atom_site_label
 _atom_site_symmetry_multiplicity
 _atom_site_fract_x
 _atom_site_fract_y
 _atom_site_fract_z
 _atom_site_occupancy
 _atom_site_pbe_bader_charge
 _atom_site_pbe_bader_spin_density
 _atom_site_pbe_cm5_charge
 _atom_site_pbe_ddec_charge
 _atom_site_pbe_ddec_spin_density
 _atom_site_pbe_ddec_sum_bond_order
 _atom_site_pbe_magmom
Al  Al0  1  0.89422073  0.49961837  0.50039391  1  2.503164  0  0.400795  1.644505  0  2.584702  0
Al  Al1  1  0.39421874  0.50037999  0.49960565  1  2.503338  0  0.400931  1.644414  0  2.58461  0
Al  Al2  1  0.32646106  0.00057214  0.99980508  1  2.502799  0  0.400212  1.644328  0  2.584678  0
Al  Al3  1  0.82646141  0.99942440  0.00019334  1  2.502832  0  0.400411  1.644435  0  2.584345  0
H  H4  1  0.97326866  0.72476734  0.83152846  1  0.023461  0  0.096864  0.097973  0  0.970841  0
H  H5  1  0.47327472  0.27523021  0.16847030  1  0.023495  0  0.096875  0.097954  0  0.970894  0
H  H6  1  0.99693309  0.65019818  0.75752380  1  0.048412  0  0.097282  0.098831  0  0.969945  0
H  H7  1  0.49693696  0.34979939  0.24247534  1  0.048469  0  0.097265  0.098839  0  0.969943  0
H  H8  1  0.44949847  0.71782387  0.71454138  1  0.030176  0  0.090887  0.082095  0  1.033209  0
H  H9  1  0.94950235  0.28217314  0.28545660  1  0.029968  0  0.090872  0.082061  0  1.033251  0
H  H10  1  0.35160007  0.66954564  0.75337167  1  0.039498  0  0.096429  0.099014  0  0.96985  0
H  H11  1  0.85160400  0.33045085  0.24662478  1  0.039552  0  0.09648  0.099032  0  0.969854  0
H  H12  1  0.34990032  0.74889755  0.82441895  1  0.030372  0  0.096362  0.097631  0  0.974027  0
H  H13  1  0.84990807  0.25109719  0.17557946  1  0.030166  0  0.096367  0.097669  0  0.974006  0
H  H14  1  0.42309191  0.79862231  0.78406937  1  0.033876  0  0.092866  0.090469  0  0.987466  0
H  H15  1  0.92309217  0.20137372  0.21592979  1  0.033742  0  0.092887  0.09049  0  0.987447  0
H  H16  1  0.24362771  0.77798787  0.67612322  1  0.058738  0  0.109361  0.055359  0  0.974749  0
H  H17  1  0.74362740  0.22201028  0.32387562  1  0.058734  0  0.109363  0.055315  0  0.974798  0
H  H18  1  0.89891135  0.82982180  0.74266818  1  0.048034  0  0.10039  0.107868  0  0.98965  0
H  H19  1  0.39890710  0.17017777  0.25733099  1  0.047986  0  0.100369  0.107847  0  0.989679  0
H  H20  1  0.81497490  0.68631712  0.72622971  1  0.047142  0  0.092868  0.087077  0  1.024442  0
H  H21  1  0.31497237  0.31368109  0.27377027  1  0.047004  0  0.092855  0.087066  0  1.02444  0
H  H22  1  0.79585151  0.76246711  0.79964692  1  0.009435  0  0.092968  0.091084  0  0.996044  0
H  H23  1  0.29586021  0.23753238  0.20035072  1  0.009528  0  0.092946  0.091074  0  0.996013  0
H  H24  1  0.14825959  0.85542714  0.74128547  1  0.047363  0  0.100877  0.112929  0  0.967465  0
H  H25  1  0.64825557  0.14457011  0.25871417  1  0.047241  0  0.100891  0.112971  0  0.967525  0
H  H26  1  0.40463663  0.89878074  0.10833397  1  0.093154  0  0.110686  0.115743  0  1.003597  0
H  H27  1  0.90461920  0.10121941  0.89166598  1  0.093129  0  0.110674  0.115779  0  1.003691  0
H  H28  1  0.41727436  0.83287499  0.17500344  1  0.093201  0  0.10462  0.102112  0  1.035728  0
H  H29  1  0.91727293  0.16712443  0.82499729  1  0.093088  0  0.104602  0.102087  0  1.035709  0
H  H30  1  0.77349293  0.82277728  0.17331461  1  0.090684  0  0.104758  0.102716  0  1.035613  0
H  H31  1  0.27349023  0.17722634  0.82668578  1  0.090681  0  0.104747  0.102704  0  1.035632  0
H  H32  1  0.76261374  0.88908205  0.10687173  1  0.091591  0  0.10947  0.11397  0  1.0041  0
H  H33  1  0.26259956  0.11091917  0.89312749  1  0.091618  0  0.109419  0.113875  0  1.004048  0
H  H34  1  0.44726217  0.67785337  0.32733748  1  0.089197  0  0.104745  0.102139  0  1.035174  0
H  H35  1  0.94726054  0.32214847  0.67266675  1  0.089151  0  0.104793  0.102159  0  1.035075  0
H  H36  1  0.45790598  0.61150548  0.39374560  1  0.116504  0  0.1094  0.114031  0  1.004786  0
H  H37  1  0.95791284  0.38849348  0.60625550  1  0.116555  0  0.109404  0.114032  0  1.004643  0
H  H38  1  0.81591758  0.60135759  0.39178104  1  0.098116  0  0.11037  0.115418  0  1.003416  0
H  H39  1  0.31592167  0.39864356  0.60822051  1  0.093862  0  0.110344  0.115437  0  1.003414  0
H  H40  1  0.80354220  0.66737065  0.32518618  1  0.089424  0  0.104553  0.102038  0  1.035882  0
H  H41  1  0.30354529  0.33263123  0.67481459  1  0.08948  0  0.104587  0.102153  0  1.035834  0
H  H42  1  0.70295807  0.77038897  0.69551230  1  -0.006405  0  0.086843  0.035342  0  1.017215  0
H  H43  1  0.75433056  0.70405939  0.64928017  1  0.035475  0  0.093741  0.050514  0  0.99357  0
H  H44  1  0.69954002  0.76067855  0.57609620  1  0.046946  0  0.097064  0.135467  0  0.981839  0
H  H45  1  0.48223282  0.75871262  0.61503148  1  0.015989  0  0.091715  0.123858  0  1.015548  0
H  H46  1  0.63139903  0.82432650  0.62322330  1  0.027795  0  0.090514  0.12433  0  0.994571  0
H  H47  1  0.20295656  0.22961257  0.30448773  1  -0.006399  0  0.086873  0.035358  0  1.017213  0
H  H48  1  0.25433459  0.29594218  0.35072061  1  0.035277  0  0.093766  0.050567  0  0.993565  0
H  H49  1  0.19953977  0.23932161  0.42390343  1  0.046975  0  0.097039  0.135403  0  0.981818  0
H  H50  1  0.98223047  0.24129030  0.38496805  1  0.015907  0  0.091685  0.123792  0  1.015526  0
H  H51  1  0.13139767  0.17567470  0.37677636  1  0.027839  0  0.090509  0.124275  0  0.994636  0
H  H52  1  0.64507540  0.57601799  0.52381667  1  0.633632  0  0.357831  0.436133  0  0.845229  0
H  H53  1  0.14507567  0.42397945  0.47618181  1  0.633526  0  0.357826  0.436239  0  0.845203  0
H  H54  1  0.57452855  0.92443792  0.97490368  1  0.630777  0  0.356959  0.436007  0  0.845868  0
H  H55  1  0.07452700  0.07555674  0.02509521  1  0.630884  0  0.356907  0.435942  0  0.846018  0
C  C56  1  0.64259783  0.43530701  0.56328372  1  1.569761  0  0.268724  0.637698  0  4.10651  0
C  C57  1  0.14263287  0.56469415  0.43671789  1  1.569815  0  0.268894  0.638179  0  4.105903  0
C  C58  1  0.64466088  0.42290731  0.42235537  1  1.661482  0  0.277758  0.731921  0  4.147137  0
C  C59  1  0.14469411  0.57708986  0.57764389  1  1.662193  0  0.277879  0.731892  0  4.147456  0
C  C60  1  0.95884233  0.69274175  0.74668510  1  -0.051638  0  -0.156512  -0.187003  0  3.849929  0
C  C61  1  0.45884598  0.30725602  0.25331249  1  -0.051469  0  -0.156477  -0.186989  0  3.849916  0
C  C62  1  0.32541445  0.71177239  0.74065363  1  -0.040886  0  -0.153356  -0.188168  0  3.857166  0
C  C63  1  0.82542114  0.28822303  0.25934361  1  -0.040679  0  -0.153394  -0.188143  0  3.857218  0
C  C64  1  0.31433611  0.76377697  0.78785571  1  -0.010891  0  -0.153383  -0.191876  0  3.852759  0
C  C65  1  0.81434133  0.23621855  0.21214388  1  -0.010674  0  -0.153458  -0.192071  0  3.852766  0
C  C66  1  0.07943712  0.87739615  0.87624947  1  0.095801  0  -0.05501  -0.234654  0  3.987527  0
C  C67  1  0.57942319  0.12260737  0.12374825  1  0.095449  0  -0.055099  -0.2349  0  3.987673  0
C  C68  1  0.12600771  0.70676222  0.70934856  1  0.110871  0  -0.002729  0.100028  0  3.879528  0
C  C69  1  0.62601876  0.29323561  0.29065149  1  0.110761  0  -0.002754  0.100162  0  3.879411  0
C  C70  1  0.94572663  0.74224097  0.79575541  1  0.000147  0  -0.15467  -0.188131  0  3.849408  0
C  C71  1  0.44573472  0.25775829  0.20424492  1  8.3e-05  0  -0.154581  -0.188055  0  3.849518  0
C  C72  1  0.10129669  0.79126651  0.79222632  1  0.123248  0  0.000184  0.174336  0  3.905143  0
C  C73  1  0.60129822  0.20873165  0.20777295  1  0.12317  0  0.000147  0.174399  0  3.90468  0
C  C74  1  0.05673715  0.81593433  0.74208637  1  -0.038539  0  -0.154598  -0.268453  0  3.838933  0
C  C75  1  0.55673345  0.18406342  0.25791253  1  -0.038623  0  -0.154514  -0.268437  0  3.838963  0
C  C76  1  0.09862094  0.76846411  0.69282120  1  0.477778  0  0.013126  0.147361  0  3.792683  0
C  C77  1  0.59862034  0.23153432  0.30717730  1  0.478099  0  0.013113  0.147339  0  3.792734  0
C  C78  1  0.08773875  0.83828526  0.83778167  1  -0.387158  0  -0.016341  -0.018496  0  4.023104  0
C  C79  1  0.58773567  0.16171234  0.16221488  1  -0.386885  0  -0.016405  -0.018478  0  4.023316  0
C  C80  1  0.13793300  0.66062854  0.66320602  1  -0.305249  0  -0.014998  -0.011804  0  4.037644  0
C  C81  1  0.63795469  0.33936929  0.33679012  1  -0.305432  0  -0.015076  -0.012095  0  4.037825  0
C  C82  1  0.14390487  0.62210920  0.62427359  1  0.037093  0  -0.050088  -0.227058  0  3.968581  0
C  C83  1  0.64391044  0.37788973  0.37572372  1  0.03731  0  -0.04998  -0.226797  0  3.968401  0
C  C84  1  0.26799099  0.88179986  0.12303128  1  -0.027096  0  -0.077608  -0.083673  0  3.963769  0
C  C85  1  0.76798655  0.11819969  0.87696833  1  -0.026835  0  -0.077639  -0.083849  0  3.963626  0
C  C86  1  0.27486986  0.84538754  0.15980305  1  -0.02992  0  -0.081007  -0.107891  0  3.963069  0
C  C87  1  0.77485982  0.15461477  0.84019734  1  -0.029804  0  -0.080969  -0.107768  0  3.963274  0
C  C88  1  0.09611033  0.82378370  0.17789752  1  -0.02348  0  -0.002203  0.022986  0  3.987257  0
C  C89  1  0.59610713  0.17621976  0.82210410  1  -0.024145  0  -0.002247  0.022874  0  3.987453  0
C  C90  1  0.91061381  0.83977283  0.15889771  1  -0.003307  0  -0.078375  -0.106904  0  3.956293  0
C  C91  1  0.41060712  0.16023017  0.84110341  1  -0.002972  0  -0.078331  -0.106797  0  3.956247  0
C  C92  1  0.90464944  0.87636351  0.12219744  1  -0.010528  0  -0.079808  -0.085453  0  3.960738  0
C  C93  1  0.40465136  0.12363899  0.87780329  1  -0.010535  0  -0.079774  -0.085384  0  3.960915  0
C  C94  1  0.08307369  0.89735259  0.10383550  1  -0.057128  0  -0.011119  -0.035816  0  3.957292  0
C  C95  1  0.58305623  0.10264657  0.89616417  1  -0.05712  0  -0.011139  -0.0358  0  3.95713  0
C  C96  1  0.11728964  0.71555960  0.28387687  1  0.972081  0  0.239981  0.242516  0  3.978191  0
C  C97  1  0.61728616  0.28444231  0.71612592  1  0.971991  0  0.24004  0.242506  0  3.978161  0
C  C98  1  0.10373135  0.78451252  0.21624377  1  0.99382  0  0.239275  0.241356  0  3.980493  0
C  C99  1  0.60372996  0.21548997  0.78375746  1  0.993977  0  0.239248  0.241398  0  3.980364  0
C  C100  1  0.31008132  0.66075803  0.34163799  1  0.027936  0  -0.078987  -0.105965  0  3.955528  0
C  C101  1  0.81008668  0.33924270  0.65836356  1  0.027788  0  -0.078962  -0.10591  0  3.955169  0
C  C102  1  0.31594674  0.62411770  0.37829528  1  -0.095123  0  -0.079336  -0.085914  0  3.960572  0
C  C103  1  0.81593449  0.37588267  0.62170665  1  -0.094911  0  -0.079317  -0.085931  0  3.960866  0
C  C104  1  0.13748104  0.60291513  0.39644490  1  0.003784  0  -0.010576  -0.034765  0  3.956407  0
C  C105  1  0.63749064  0.39708984  0.60356022  1  0.003469  0  -0.010571  -0.034499  0  3.956479  0
C  C106  1  0.95262318  0.61841713  0.37717864  1  -0.032689  0  -0.07752  -0.083831  0  3.963093  0
C  C107  1  0.45261879  0.38158801  0.62282481  1  -0.029181  0  -0.077549  -0.084046  0  3.963016  0
C  C108  1  0.94587924  0.65488711  0.34044867  1  -0.025629  0  -0.081308  -0.108176  0  3.962726  0
C  C109  1  0.44588345  0.34511742  0.65955595  1  -0.024632  0  -0.081269  -0.108273  0  3.963017  0
C  C110  1  0.12471726  0.67657213  0.32245710  1  -0.050098  0  -0.001055  0.023541  0  3.985867  0
C  C111  1  0.62470960  0.32343219  0.67754685  1  -0.050174  0  -0.001169  0.023501  0  3.985778  0
C  C112  1  0.57679727  0.07704070  0.07751795  1  1.679471  0  0.277212  0.732373  0  4.147377  0
C  C113  1  0.07678737  0.92295711  0.92247742  1  1.680089  0  0.277029  0.732039  0  4.148045  0
C  C114  1  0.57803599  0.06464626  0.93662857  1  1.569869  0  0.267245  0.63646  0  4.107617  0
C  C115  1  0.07799833  0.93535082  0.06337150  1  1.570174  0  0.26745  0.636795  0  4.106877  0
C  C116  1  0.76096229  0.75288357  0.65580143  1  0.446513  0  -0.074864  0.083142  0  3.959401  0
C  C117  1  0.63625116  0.77573239  0.61524771  1  -0.033057  0  -0.242823  -0.395469  0  3.971521  0
C  C118  1  0.26096027  0.24711783  0.34419857  1  0.446675  0  -0.074915  0.083041  0  3.959514  0
C  C119  1  0.13624835  0.22426864  0.38475116  1  -0.033069  0  -0.24277  -0.395268  0  3.97153  0
N  N120  1  0.92804463  0.76372869  0.23172240  1  -0.557673  0  -0.1514  -0.141066  0  3.21013  0
N  N121  1  0.42804314  0.23627417  0.76828028  1  -0.557678  0  -0.15139  -0.141089  0  3.210064  0
N  N122  1  0.93496846  0.72869381  0.26608793  1  -0.555626  0  -0.150107  -0.141369  0  3.210508  0
N  N123  1  0.43496441  0.27130954  0.73391513  1  -0.555568  0  -0.15008  -0.141294  0  3.210645  0
N  N124  1  0.29310177  0.73596297  0.26808594  1  -0.524286  0  -0.152153  -0.142281  0  3.208496  0
N  N125  1  0.79309890  0.26403685  0.73191522  1  -0.524222  0  -0.152147  -0.142271  0  3.208481  0
N  N126  1  0.28616145  0.77099779  0.23371611  1  -0.577065  0  -0.149172  -0.139877  0  3.20929  0
N  N127  1  0.78616115  0.22900232  0.76628427  1  -0.577066  0  -0.149153  -0.139869  0  3.209306  0
O  O128  1  0.47403840  0.44124336  0.44057542  1  -1.238396  0  -0.228954  -0.586654  0  2.278848  0
O  O129  1  0.97402367  0.55875376  0.55942334  1  -1.238142  0  -0.229149  -0.586773  0  2.27829  0
O  O130  1  0.81428126  0.44930052  0.54792657  1  -1.257821  0  -0.236408  -0.594377  0  2.34591  0
O  O131  1  0.31426125  0.55070230  0.45207263  1  -1.258053  0  -0.236345  -0.594306  0  2.346693  0
O  O132  1  0.81496201  0.44012442  0.44154836  1  -1.239233  0  -0.229817  -0.588771  0  2.282104  0
O  O133  1  0.31494777  0.55987124  0.55845592  1  -1.240284  0  -0.229753  -0.588556  0  2.282919  0
O  O134  1  0.97372543  0.54989831  0.45308307  1  -1.256431  0  -0.236905  -0.595479  0  2.36158  0
O  O135  1  0.47374745  0.45009776  0.54691685  1  -1.256547  0  -0.236697  -0.594969  0  2.362714  0
O  O136  1  0.64470419  0.53589337  0.50394655  1  -1.43504  0  -0.448932  -0.993976  0  2.199336  0
O  O137  1  0.14470028  0.46410380  0.49605271  1  -1.434872  0  -0.448882  -0.994102  0  2.199261  0
O  O138  1  0.74696734  0.04972987  0.95284973  1  -1.256667  0  -0.236859  -0.595097  0  2.363312  0
O  O139  1  0.24699219  0.95026155  0.04714012  1  -1.256569  0  -0.237014  -0.595447  0  2.361956  0
O  O140  1  0.40599390  0.05978319  0.05871511  1  -1.246447  0  -0.229637  -0.587955  0  2.280475  0
O  O141  1  0.90603095  0.94020931  0.94128366  1  -1.247786  0  -0.22939  -0.587696  0  2.281459  0
O  O142  1  0.40641402  0.05100011  0.95230954  1  -1.25847  0  -0.23625  -0.593606  0  2.344195  0
O  O143  1  0.90643389  0.94900182  0.04769666  1  -1.258866  0  -0.236353  -0.593663  0  2.344957  0
O  O144  1  0.24688459  0.94159648  0.94084275  1  -1.241376  0  -0.228754  -0.587223  0  2.284751  0
O  O145  1  0.74685006  0.05840828  0.05915257  1  -1.242106  0  -0.228564  -0.587066  0  2.28536  0
O  O146  1  0.57580229  0.96401334  0.99589415  1  -1.431983  0  -0.448459  -0.994017  0  2.196746  0
O  O147  1  0.07580341  0.03598306  0.00410475  1  -1.432033  0  -0.448437  -0.994013  0  2.196919  0
O  O148  1  0.96392942  0.77141767  0.65108544  1  -1.038538  0  -0.23329  -0.261968  0  2.441053  0
O  O149  1  0.46392796  0.22858225  0.34891410  1  -1.038485  0  -0.233334  -0.261974  0  2.440967  0
