# generated using pymatgen
data_CoP2H16C14N2O6F
_symmetry_space_group_name_H-M   'P 1'
_cell_length_a   8.28110345
_cell_length_b   8.49038816
_cell_length_c   13.29786094
_cell_angle_alpha   95.06710636
_cell_angle_beta   105.06540182
_cell_angle_gamma   107.30642761
_symmetry_Int_Tables_number   1
_chemical_formula_structural   CoP2H16C14N2O6F
_chemical_formula_sum   'Co2 P4 H32 C28 N4 O12 F2'
_cell_volume   847.93347262
_cell_formula_units_Z   2
loop_
 _symmetry_equiv_pos_site_id
 _symmetry_equiv_pos_as_xyz
  1  'x, y, z'
loop_
 _atom_site_type_symbol
 _atom_site_label
 _atom_site_symmetry_multiplicity
 _atom_site_fract_x
 _atom_site_fract_y
 _atom_site_fract_z
 _atom_site_occupancy
 _atom_site_hle17_ddec_charge
 _atom_site_hle17_ddec_spin_density
 _atom_site_hle17_ddec_sum_bond_order
 _atom_site_hle17_magmom
 _atom_site_hse06_10hf_bader_charge
 _atom_site_hse06_10hf_bader_spin_density
 _atom_site_hse06_10hf_ddec_charge
 _atom_site_hse06_10hf_ddec_spin_density
 _atom_site_hse06_10hf_ddec_sum_bond_order
 _atom_site_hse06_10hf_magmom
 _atom_site_pbe_cm5_charge
 _atom_site_pbe_ddec_charge
 _atom_site_pbe_ddec_spin_density
 _atom_site_pbe_ddec_sum_bond_order
 _atom_site_pbe_magmom
Co  Co0  1  0.74808869  0.71768105  0.94267208  1  1.081731  -2.867886  1.958354  -2.616  1.359608  -2.693737  1.046381  -2.861531  2.344313  -2.677  0.696639  0.997117  -2.842078  2.390314  -2.625
Co  Co1  1  0.25190813  0.28232446  0.05733106  1  1.081572  -2.867756  1.958308  -2.616  1.359729  -2.693741  1.046432  -2.861542  2.344241  -2.677  0.696649  0.99715  -2.841916  2.390261  -2.625
P  P2  1  0.13648484  0.86090862  0.08107232  1  1.507794  -0.00557  4.726563  -0.008  3.393435  -0.006987  1.35705  -0.006972  5.231799  -0.01  0.371602  1.320361  -0.009436  5.255418  -0.012
P  P3  1  0.86351772  0.13909188  0.91892695  1  1.507953  -0.005574  4.726454  -0.008  3.39345  -0.006988  1.35721  -0.006972  5.231691  -0.01  0.371631  1.32052  -0.009437  5.255316  -0.012
P  P4  1  0.68783020  0.44132780  0.08347955  1  1.490436  -0.003661  4.714221  -0.005  3.406361  -0.006479  1.342174  -0.006338  5.217905  -0.008  0.366286  1.30457  -0.008117  5.243127  -0.009
P  P5  1  0.31217487  0.55867270  0.91652238  1  1.490331  -0.003661  4.714287  -0.005  3.406651  -0.006479  1.342048  -0.006339  5.217976  -0.008  0.366293  1.304445  -0.008118  5.243205  -0.009
H  H6  1  0.06258271  0.18394929  0.28772622  1  0.096645  0.000162  0.961979  0.0  0.079382  2.5e-05  0.106499  0.000136  1.023534  0.0  0.102857  0.105478  0.000173  1.023217  0.0
H  H7  1  0.93741360  0.81605120  0.71227354  1  0.096719  0.000166  0.961905  0.0  0.079369  2.5e-05  0.106561  0.000136  1.023467  0.0  0.102867  0.105512  0.000174  1.023184  0.0
H  H8  1  0.10855860  0.29258539  0.47789860  1  0.114851  4.3e-05  0.949223  0.0  0.106012  -4e-06  0.124622  4.2e-05  1.009424  0.0  0.103584  0.123305  0.000108  1.009134  0.0
H  H9  1  0.89143896  0.70741510  0.52210136  1  0.114805  4.3e-05  0.949251  0.0  0.105994  -4e-06  0.124581  4.2e-05  1.009445  0.0  0.103579  0.123265  0.000108  1.009154  0.0
H  H10  1  0.59683597  0.94653593  0.45753279  1  0.108966  -4.2e-05  0.95273  0.0  0.053753  -4.9e-05  0.118559  -2.3e-05  1.015397  0.0  0.101442  0.116868  -1.2e-05  1.0156  0.0
H  H11  1  0.40316571  0.05346206  0.54246694  1  0.108963  -4.3e-05  0.952721  0.0  0.053727  -4.9e-05  0.118536  -2.3e-05  1.015405  0.0  0.101419  0.116846  -1.2e-05  1.015607  0.0
H  H12  1  0.54776637  0.84335266  0.26681835  1  0.104668  4e-05  0.974703  0.0  0.125808  -5.1e-05  0.112279  1.2e-05  1.039653  0.0  0.100759  0.110095  7e-05  1.040557  0.0
H  H13  1  0.45223281  0.15664533  0.73318174  1  0.10468  4.3e-05  0.974689  0.0  0.125733  -5.1e-05  0.112273  1.2e-05  1.039659  0.0  0.10076  0.110091  7e-05  1.040566  0.0
H  H14  1  0.63907430  0.91871102  0.10212667  1  0.109749  0.000114  0.910374  0.0  0.118175  -0.00035  0.12232  -6e-06  0.969149  0.0  0.115646  0.120168  -1.4e-05  0.971228  0.0
H  H15  1  0.36092156  0.08128822  0.89787144  1  0.109752  0.000113  0.910364  0.0  0.118219  -0.00035  0.122316  -5e-06  0.969139  0.0  0.115631  0.120165  -1.4e-05  0.971217  0.0
H  H16  1  0.86314621  0.03825409  0.11903032  1  0.096953  0.00014  0.956421  0.0  0.094119  -0.000311  0.107096  0.000144  1.022587  0.0  0.112569  0.10517  7.9e-05  1.02391  0.0
H  H17  1  0.13685135  0.96174641  0.88096965  1  0.096975  0.000138  0.956377  0.0  0.094097  -0.000311  0.107107  0.000144  1.022544  0.0  0.112577  0.10518  7.9e-05  1.023866  0.0
H  H18  1  0.56741781  0.64370017  0.13429895  1  0.139496  0.000363  0.965835  0.0  0.124752  6.8e-05  0.14766  0.000401  1.029153  0.0  0.123634  0.146294  0.0004  1.028845  0.0
H  H19  1  0.43258144  0.35630158  0.86570287  1  0.139467  0.000362  0.965859  0.0  0.124771  6.8e-05  0.147637  0.000401  1.029173  0.0  0.123641  0.146272  0.000401  1.028864  0.0
H  H20  1  0.74694879  0.64082322  0.24215612  1  0.12187  -0.001043  0.920956  -0.002  0.072961  -0.001764  0.132187  -0.000706  0.979138  -0.001  0.109773  0.132829  -0.000973  0.977293  -0.001
H  H21  1  0.25305215  0.35917978  0.75784453  1  0.121851  -0.001043  0.920969  -0.002  0.072963  -0.001764  0.132168  -0.000706  0.979146  -0.001  0.109779  0.132812  -0.000973  0.977299  -0.001
H  H22  1  0.01570515  0.68423235  0.18985557  1  0.124552  -0.000249  0.963606  0.0  0.079964  -0.000602  0.136861  -0.000226  1.023889  0.0  0.118363  0.136185  -0.000336  1.023804  0.0
H  H23  1  0.98429153  0.31576563  0.81014110  1  0.124548  -0.00025  0.963631  0.0  0.080173  -0.000602  0.136856  -0.000226  1.023901  0.0  0.118352  0.136177  -0.000336  1.023823  0.0
H  H24  1  0.06645145  0.89569020  0.24647936  1  0.121659  -0.000693  0.955169  -0.001  0.074043  -0.00116  0.13018  -0.000443  1.020055  -0.001  0.107203  0.130144  -0.000621  1.019157  -0.001
H  H25  1  0.93355067  0.10430905  0.75352202  1  0.12166  -0.000694  0.955148  -0.001  0.07407  -0.00116  0.130171  -0.000443  1.020055  -0.001  0.107192  0.130138  -0.000621  1.019152  -0.001
H  H26  1  0.52265645  0.79636046  0.76119950  1  0.106389  -0.000471  0.928913  -0.002  0.146681  -0.001158  0.114677  -8.1e-05  0.98641  -0.001  0.124811  0.110486  -0.000177  0.990689  -0.001
H  H27  1  0.47734391  0.20363377  0.23880056  1  0.106463  -0.000467  0.928805  -0.002  0.146637  -0.001158  0.114709  -8.1e-05  0.986349  -0.001  0.124831  0.110519  -0.000177  0.990632  -0.001
H  H28  1  0.39981138  0.71143711  0.56758885  1  0.097251  -0.000166  0.986654  0.0  0.073821  -0.00057  0.105595  -0.000292  1.050984  0.0  0.100576  0.102697  -0.000349  1.052536  0.0
H  H29  1  0.60019685  0.28855462  0.43241310  1  0.097198  -0.000164  0.986646  0.0  0.073675  -0.00057  0.105507  -0.000292  1.051022  0.0  0.100538  0.102612  -0.000349  1.052568  0.0
H  H30  1  0.69597610  0.36435366  0.59005565  1  0.105363  -0.00026  0.974401  0.0  0.078255  -0.000739  0.113277  -0.00035  1.036974  0.0  0.102734  0.109265  -0.000401  1.040568  0.0
H  H31  1  0.30402278  0.63565059  0.40994549  1  0.105381  -0.000258  0.974331  0.0  0.078332  -0.00074  0.113305  -0.00035  1.036895  0.0  0.102762  0.109294  -0.000401  1.040491  0.0
H  H32  1  0.80409662  0.46499495  0.78169902  1  0.088474  -0.000447  0.945532  -0.002  0.088099  -0.001419  0.096526  -0.000391  1.008793  -0.001  0.12013  0.092559  -0.000445  1.013305  -0.001
H  H33  1  0.19589932  0.53500805  0.21830157  1  0.08849  -0.000447  0.945488  -0.002  0.088034  -0.001419  0.09658  -0.000392  1.008701  -0.001  0.120133  0.092561  -0.000446  1.013286  -0.001
H  H34  1  0.29067809  0.68560138  0.08761389  1  0.428686  -0.000217  0.883104  0.0  0.673463  -0.000571  0.395866  -0.000325  0.950327  -0.001  0.308021  0.387863  -0.000439  0.961664  -0.001
H  H35  1  0.70931983  0.31439661  0.91238524  1  0.428709  -0.000217  0.883063  0.0  0.673457  -0.000571  0.39589  -0.000325  0.950286  -0.001  0.308015  0.387885  -0.000439  0.961627  -0.001
H  H36  1  0.90456914  0.33533623  0.10090894  1  0.441529  0.000152  0.861008  0.0  0.68477  -0.000175  0.409833  -4.8e-05  0.92553  0.0  0.309454  0.401676  -6.7e-05  0.937001  0.0
H  H37  1  0.09543386  0.66466552  0.89908897  1  0.441492  0.000152  0.861066  0.0  0.684751  -0.000175  0.409806  -4.8e-05  0.92558  0.0  0.309413  0.401649  -6.7e-05  0.937052  0.0
C  C38  1  0.80448807  0.00229136  0.26459578  1  0.07324  -0.001141  3.703925  -0.002  0.016656  -0.0014  0.088568  -0.000665  3.943153  -0.001  -0.016335  0.087622  -0.001003  3.929209  -0.001
C  C39  1  0.19550860  0.99770663  0.73540315  1  0.07316  -0.001145  3.703998  -0.002  0.016843  -0.0014  0.088638  -0.000665  3.942992  -0.001  -0.016304  0.087691  -0.001003  3.929046  -0.001
C  C40  1  0.96113612  0.12981588  0.32496119  1  -0.074133  -0.000199  3.723197  0.0  -0.018634  -0.000681  -0.094707  -0.000262  3.975803  0.0  -0.084779  -0.094772  -0.000306  3.962063  0.0
C  C41  1  0.03886019  0.87018461  0.67503857  1  -0.074226  -0.000207  3.723241  0.0  -0.018677  -0.000681  -0.094834  -0.000262  3.975792  0.0  -0.084824  -0.094878  -0.000306  3.96206  0.0
C  C42  1  0.98784406  0.19262330  0.43084377  1  -0.194297  0.000226  3.791548  0.0  -0.010135  0.000154  -0.219855  0.000193  4.048741  0.0  -0.106794  -0.215441  0.0002  4.033182  0.0
C  C43  1  0.01215350  0.80737719  0.56915544  1  -0.194172  0.000224  3.791488  0.0  -0.010129  0.000154  -0.219723  0.000193  4.048686  0.0  -0.106749  -0.215308  0.0002  4.033115  0.0
C  C44  1  0.85459918  0.12421729  0.47537656  1  0.290272  -0.000261  3.82308  0.0  0.383781  -0.000634  0.280115  -0.000331  4.102448  0.0  0.08636  0.273436  -0.000441  4.093004  -0.001
C  C45  1  0.14539919  0.87578195  0.52462271  1  0.290171  -0.000258  3.823057  0.0  0.384395  -0.000634  0.27998  -0.000331  4.102469  0.0  0.086278  0.273302  -0.000441  4.093023  -0.001
C  C46  1  0.69785150  0.99688052  0.41923053  1  -0.203965  0.000244  3.805496  0.0  -0.069471  0.000144  -0.227286  0.000188  4.063006  0.0  -0.108676  -0.221945  0.000167  4.046488  0.0
C  C47  1  0.30214730  0.00311998  0.58076888  1  -0.203906  0.000251  3.805441  0.0  -0.070032  0.000144  -0.227203  0.000188  4.06296  0.0  -0.108629  -0.221863  0.000167  4.04644  0.0
C  C48  1  0.67340914  0.93736457  0.31318534  1  -0.081809  -0.00027  3.719649  0.0  -0.049741  -0.000634  -0.100265  -0.000299  3.968252  0.0  -0.086564  -0.099502  -0.00035  3.953811  0.0
C  C49  1  0.32659092  0.06263593  0.68681503  1  -0.081771  -0.000274  3.719587  0.0  -0.049824  -0.000634  -0.100263  -0.000299  3.968145  0.0  -0.086561  -0.099501  -0.00035  3.953707  0.0
C  C50  1  0.77686795  0.94177768  0.14910556  1  -0.074075  0.003287  3.60781  0.003  0.216167  0.000432  -0.130511  0.000611  3.859191  0.001  -0.070314  -0.13286  0.000492  3.854551  0.001
C  C51  1  0.22312961  0.05822282  0.85089290  1  -0.074102  0.0033  3.607734  0.003  0.21618  0.000431  -0.130552  0.00061  3.859091  0.001  -0.070309  -0.132897  0.000491  3.854448  0.001
C  C52  1  0.70317461  0.64024298  0.15627317  1  -0.36663  0.003482  3.651193  0.003  -0.309806  6.2e-05  -0.396796  0.00087  3.899872  0.001  -0.079519  -0.392657  0.000348  3.891474  0.001
C  C53  1  0.29682589  0.35975877  0.84372658  1  -0.366573  0.003483  3.651203  0.003  -0.309888  6.2e-05  -0.396737  0.000871  3.899912  0.001  -0.07953  -0.392595  0.000347  3.891513  0.001
C  C54  1  0.00616129  0.80522272  0.17157495  1  -0.370792  0.000445  3.648801  0.0  -0.252578  -0.001905  -0.403629  -0.000351  3.898304  0.0  -0.082783  -0.399817  -0.001366  3.890361  -0.001
C  C55  1  0.99384002  0.19477778  0.82842562  1  -0.370809  0.000448  3.648854  0.0  -0.252722  -0.001904  -0.403623  -0.000351  3.898387  0.0  -0.08275  -0.399816  -0.001366  3.890455  -0.001
C  C56  1  0.55696640  0.70100977  0.71936026  1  0.136427  0.027935  3.681938  0.018  0.541906  0.009999  0.112236  0.011203  3.930807  0.006  0.0481  0.102418  0.015238  3.930486  0.008
C  C57  1  0.44303484  0.29898696  0.28064008  1  0.136365  0.027913  3.681753  0.018  0.542002  0.010001  0.112211  0.011205  3.930629  0.006  0.048072  0.102392  0.015235  3.930327  0.008
C  C58  1  0.48900488  0.65152187  0.61033756  1  -0.166434  -0.007106  3.718644  -0.011  -0.073202  -0.003481  -0.180263  -0.001478  3.957946  -0.003  -0.087055  -0.177237  0.000812  3.951279  -0.002
C  C59  1  0.51099923  0.34847237  0.38966462  1  -0.166399  -0.007112  3.718316  -0.011  -0.073146  -0.003483  -0.180175  -0.001479  3.95762  -0.003  -0.086985  -0.177151  0.000812  3.950964  -0.002
C  C60  1  0.53469850  0.52747507  0.55795563  1  0.082495  0.028483  3.774573  0.017  -0.085677  0.011997  0.093871  0.013063  4.005457  0.007  0.003051  0.087567  0.023703  3.996523  0.013
C  C61  1  0.46530112  0.47252417  0.44204234  1  0.082611  0.028513  3.774245  0.017  -0.038816  0.011935  0.093946  0.013065  4.005154  0.007  0.003011  0.087639  0.0237  3.996226  0.013
C  C62  1  0.65073470  0.45960890  0.62256337  1  -0.1619  -0.006888  3.700228  -0.011  -0.013728  -0.003262  -0.176211  -0.001302  3.943116  -0.003  -0.085107  -0.173512  0.001691  3.936869  -0.002
C  C63  1  0.34925992  0.54039034  0.37743454  1  -0.16192  -0.006903  3.700102  -0.011  -0.013757  -0.003264  -0.176219  -0.001303  3.943001  -0.003  -0.085086  -0.173509  0.001691  3.936734  -0.002
C  C64  1  0.71307592  0.51567571  0.73128015  1  0.138228  0.025355  3.681734  0.016  0.547679  0.007917  0.111748  0.008472  3.939317  0.005  0.048171  0.102841  0.012012  3.938647  0.006
C  C65  1  0.28691906  0.48432102  0.26871768  1  0.138205  0.025367  3.681698  0.016  0.547703  0.00792  0.111706  0.008475  3.939273  0.005  0.048145  0.102829  0.012011  3.938631  0.006
N  N66  1  0.81671280  0.78462750  0.12442249  1  -0.122739  -0.032063  3.296899  -0.063  -0.99987  -0.045055  -0.058604  -0.022968  3.551727  -0.042  -0.313968  -0.044108  -0.027809  3.536306  -0.049
N  N67  1  0.18328645  0.21537425  0.87557631  1  -0.122743  -0.03206  3.296931  -0.063  -1.000053  -0.045055  -0.058677  -0.022968  3.551823  -0.042  -0.313998  -0.044177  -0.027811  3.536403  -0.049
N  N68  1  0.66821972  0.63451843  0.78038206  1  -0.305958  -0.033452  3.287111  -0.07  -1.255368  -0.044901  -0.263008  -0.022753  3.571866  -0.043  -0.32995  -0.256236  -0.022171  3.575394  -0.044
N  N69  1  0.33178240  0.36548081  0.21961707  1  -0.305948  -0.033458  3.287058  -0.07  -1.255449  -0.044904  -0.263061  -0.022755  3.571898  -0.043  -0.32994  -0.256287  -0.022179  3.575433  -0.044
O  O70  1  0.01964617  0.75182674  0.97224446  1  -0.850776  -0.029491  2.07023  -0.051  -1.463308  -0.047911  -0.785626  -0.024178  2.343153  -0.038  -0.36065  -0.758953  -0.030778  2.355332  -0.047
O  O71  1  0.98035484  0.24818003  0.02775266  1  -0.850812  -0.029493  2.070218  -0.051  -1.46339  -0.047916  -0.785664  -0.024179  2.343148  -0.038  -0.36066  -0.758987  -0.030785  2.355327  -0.047
O  O72  1  0.20268446  0.04730068  0.08650391  1  -0.833329  -0.029866  2.102628  -0.049  -1.4556  -0.050519  -0.777551  -0.026016  2.405305  -0.038  -0.362234  -0.747827  -0.033686  2.416196  -0.049
O  O73  1  0.79731560  0.95269982  0.91349645  1  -0.833363  -0.029868  2.102617  -0.049  -1.455618  -0.05052  -0.777589  -0.026018  2.405303  -0.038  -0.36223  -0.747867  -0.033683  2.416185  -0.049
O  O74  1  0.30212787  0.80177135  0.12430566  1  -0.74646  -0.003309  2.011387  -0.006  -1.4603  -0.007058  -0.676326  -0.003046  2.237244  -0.005  -0.386025  -0.65885  -0.00432  2.253512  -0.007
O  O75  1  0.69787550  0.19822790  0.87569592  1  -0.746547  -0.003309  2.011407  -0.006  -1.460271  -0.007059  -0.676395  -0.003047  2.237232  -0.005  -0.386046  -0.658918  -0.00432  2.253506  -0.007
O  O76  1  0.71110199  0.47626181  0.97460361  1  -0.861687  -0.03121  2.103774  -0.053  -1.453966  -0.050228  -0.795927  -0.02562  2.375151  -0.037  -0.365601  -0.768316  -0.032586  2.387542  -0.048
O  O77  1  0.28889645  0.52374119  0.02539664  1  -0.861638  -0.031213  2.103907  -0.053  -1.453962  -0.050223  -0.795875  -0.02562  2.375275  -0.037  -0.3656  -0.768252  -0.032591  2.387639  -0.048
O  O78  1  0.85312360  0.39650589  0.14828489  1  -0.745067  -0.003761  1.980146  -0.007  -1.461081  -0.006937  -0.679398  -0.00292  2.200631  -0.005  -0.389971  -0.660841  -0.004356  2.2161  -0.008
O  O79  1  0.14688441  0.60349587  0.85171834  1  -0.744991  -0.003763  1.9803  -0.007  -1.461223  -0.006937  -0.679301  -0.002921  2.200743  -0.005  -0.389895  -0.660747  -0.004356  2.216213  -0.008
O  O80  1  0.51548145  0.30697354  0.07533684  1  -0.825666  -0.030741  2.026669  -0.051  -1.464826  -0.049729  -0.771253  -0.02528  2.311661  -0.038  -0.361463  -0.742283  -0.032734  2.321808  -0.049
O  O81  1  0.48452361  0.69302697  0.92466283  1  -0.825668  -0.030743  2.026677  -0.051  -1.464816  -0.049731  -0.771235  -0.025283  2.311665  -0.038  -0.361506  -0.742263  -0.032732  2.321798  -0.049
F  F82  1  0.87704182  0.18702395  0.57897208  1  -0.221984  -7.3e-05  1.182282  0.0  -0.665765  -0.000301  -0.169026  -0.000126  1.345506  0.0  -0.103993  -0.161912  -0.00019  1.35175  0.0
F  F83  1  0.12295817  0.81297279  0.42102806  1  -0.221954  -7.3e-05  1.182281  0.0  -0.665776  -0.0003  -0.168988  -0.000126  1.345516  0.0  -0.103954  -0.161874  -0.00019  1.351759  0.0
