# generated using pymatgen
data_ZnH3C4(NO)4
_symmetry_space_group_name_H-M   'P 1'
_cell_length_a   12.99489579
_cell_length_b   13.83863529
_cell_length_c   16.94443141
_cell_angle_alpha   90.00016189
_cell_angle_beta   90.00042375
_cell_angle_gamma   90.00002293
_symmetry_Int_Tables_number   1
_chemical_formula_structural   ZnH3C4(NO)4
_chemical_formula_sum   'Zn16 H48 C64 N64 O64'
_cell_volume   3047.14460984
_cell_formula_units_Z   16
loop_
 _symmetry_equiv_pos_site_id
 _symmetry_equiv_pos_as_xyz
  1  'x, y, z'
loop_
 _atom_site_type_symbol
 _atom_site_label
 _atom_site_symmetry_multiplicity
 _atom_site_fract_x
 _atom_site_fract_y
 _atom_site_fract_z
 _atom_site_occupancy
 _atom_site_pbe_bader_charge
 _atom_site_pbe_bader_spin_density
 _atom_site_pbe_cm5_charge
 _atom_site_pbe_ddec_charge
 _atom_site_pbe_ddec_spin_density
 _atom_site_pbe_ddec_sum_bond_order
 _atom_site_pbe_magmom
Zn  Zn0  1  0.97678791  0.40830661  0.57406382  1  1.261264  0  0.712555  0.731392  0  2.413175  0
Zn  Zn1  1  0.02321103  0.09169631  0.07406462  1  1.261352  0  0.712595  0.731524  0  2.413037  0
Zn  Zn2  1  0.47678871  0.59169443  0.92593750  1  1.261253  0  0.7126  0.731484  0  2.413108  0
Zn  Zn3  1  0.52321306  0.90830644  0.42593598  1  1.261225  0  0.712555  0.731425  0  2.413122  0
Zn  Zn4  1  0.02320898  0.59169420  0.42593478  1  1.261216  0  0.712553  0.731523  0  2.413009  0
Zn  Zn5  1  0.97679048  0.90830667  0.92593575  1  1.261296  0  0.712583  0.731451  0  2.413068  0
Zn  Zn6  1  0.52321511  0.40830566  0.07406582  1  1.261183  0  0.712573  0.731441  0  2.413159  0
Zn  Zn7  1  0.47678922  0.09169509  0.57406498  1  1.261261  0  0.712596  0.731498  0  2.413039  0
Zn  Zn8  1  0.92642898  0.47837333  0.90599050  1  1.257974  0  0.713286  0.731879  0  2.417079  0
Zn  Zn9  1  0.07356700  0.02162785  0.40599025  1  1.257897  0  0.713285  0.731871  0  2.417064  0
Zn  Zn10  1  0.42643579  0.52162841  0.59400994  1  1.258049  0  0.713219  0.731782  0  2.417221  0
Zn  Zn11  1  0.57357125  0.97837059  0.09401240  1  1.257939  0  0.713286  0.73185  0  2.417254  0
Zn  Zn12  1  0.07356868  0.52162603  0.09401164  1  1.258014  0  0.713277  0.731884  0  2.417038  0
Zn  Zn13  1  0.92643451  0.97837513  0.59401307  1  1.257911  0  0.713276  0.7319  0  2.417109  0
Zn  Zn14  1  0.57356418  0.47837168  0.40599102  1  1.257953  0  0.713218  0.731796  0  2.417224  0
Zn  Zn15  1  0.42643642  0.02162805  0.90599092  1  1.257994  0  0.713215  0.731821  0  2.417211  0
H  H16  1  0.94179297  0.19716164  0.65449521  1  0.187836  0  0.134825  0.112513  0  1.017209  0
H  H17  1  0.05820443  0.30283867  0.15449611  1  0.187817  0  0.13481  0.112535  0  1.017162  0
H  H18  1  0.44180463  0.80284082  0.84550178  1  0.187746  0  0.134767  0.11245  0  1.017241  0
H  H19  1  0.55821406  0.69715904  0.34550823  1  0.174864  0  0.134833  0.11254  0  1.017155  0
H  H20  1  0.05820007  0.80283917  0.34550693  1  0.187786  0  0.134805  0.112539  0  1.017179  0
H  H21  1  0.94179631  0.69716142  0.84550426  1  0.187815  0  0.134798  0.11247  0  1.017214  0
H  H22  1  0.55822535  0.19716215  0.15449150  1  0.174843  0  0.134799  0.112446  0  1.017178  0
H  H23  1  0.44178822  0.30284032  0.65449214  1  0.174869  0  0.134838  0.112551  0  1.017166  0
H  H24  1  0.74277644  0.35307051  0.50309700  1  0.153114  0  0.135166  0.103799  0  0.994668  0
H  H25  1  0.25722566  0.14692639  0.00310221  1  0.15294  0  0.135205  0.103828  0  0.994756  0
H  H26  1  0.24278026  0.64692900  0.99690712  1  0.153153  0  0.135181  0.103831  0  0.994658  0
H  H27  1  0.75721988  0.85307067  0.49690502  1  0.153155  0  0.135171  0.103817  0  0.994674  0
H  H28  1  0.25722660  0.64691874  0.49689511  1  0.153018  0  0.135223  0.10389  0  0.994735  0
H  H29  1  0.74277970  0.85306792  0.99690701  1  0.15309  0  0.135187  0.103818  0  0.994659  0
H  H30  1  0.75721817  0.35306603  0.00309502  1  0.153097  0  0.135213  0.103838  0  0.994625  0
H  H31  1  0.24278009  0.14693087  0.50309770  1  0.153138  0  0.135166  0.103759  0  0.994728  0
H  H32  1  0.05832085  0.23207916  0.36353521  1  0.504286  0  0.300862  0.319104  0  0.970984  0
H  H33  1  0.94167010  0.26792476  0.86353565  1  0.503962  0  0.300848  0.319024  0  0.971135  0
H  H34  1  0.55833004  0.76792433  0.13646441  1  0.503955  0  0.300851  0.31907  0  0.971116  0
H  H35  1  0.44167972  0.73207915  0.63646783  1  0.504224  0  0.300884  0.319139  0  0.970932  0
H  H36  1  0.94167758  0.76792743  0.63646811  1  0.503961  0  0.30089  0.319089  0  0.970929  0
H  H37  1  0.05832756  0.73207966  0.13646531  1  0.50396  0  0.300873  0.319051  0  0.971076  0
H  H38  1  0.44168609  0.23207937  0.86353064  1  0.504203  0  0.300866  0.319152  0  0.970952  0
H  H39  1  0.55831948  0.26792238  0.36353253  1  0.504215  0  0.300894  0.319155  0  0.970961  0
H  H40  1  0.05958699  0.34118321  0.41191347  1  0.466359  0  0.300438  0.318743  0  0.972781  0
H  H41  1  0.94040674  0.15882088  0.91191188  1  0.466445  0  0.300458  0.318798  0  0.972805  0
H  H42  1  0.55959336  0.65882028  0.08808615  1  0.466418  0  0.300447  0.318805  0  0.972858  0
H  H43  1  0.44041439  0.84118231  0.58809100  1  0.466351  0  0.300442  0.318714  0  0.972843  0
H  H44  1  0.94040682  0.65882338  0.58809280  1  0.466469  0  0.300467  0.318806  0  0.972731  0
H  H45  1  0.05959246  0.84117993  0.08808672  1  0.4664  0  0.300429  0.318715  0  0.972953  0
H  H46  1  0.44042508  0.34118342  0.91190890  1  0.466338  0  0.30043  0.318744  0  0.972718  0
H  H47  1  0.55958634  0.15881922  0.41190878  1  0.466372  0  0.300471  0.318762  0  0.97281  0
H  H48  1  0.72174276  0.61683247  0.32276485  1  0.522754  0  0.295783  0.315854  0  1.006395  0
H  H49  1  0.27824725  0.88317021  0.82276061  1  0.522783  0  0.295821  0.315874  0  1.006428  0
H  H50  1  0.22175185  0.38316819  0.17723865  1  0.52278  0  0.295818  0.315862  0  1.006454  0
H  H51  1  0.77825501  0.11683365  0.67723663  1  0.52265  0  0.295783  0.315849  0  1.006403  0
H  H52  1  0.27825183  0.38316328  0.67723257  1  0.522841  0  0.295812  0.31594  0  1.006357  0
H  H53  1  0.72175041  0.11683133  0.17723858  1  0.52279  0  0.295802  0.315871  0  1.006412  0
H  H54  1  0.77824196  0.61683045  0.82276113  1  0.522874  0  0.295831  0.315902  0  1.006491  0
H  H55  1  0.22175266  0.88316861  0.32276078  1  0.52275  0  0.29583  0.315859  0  1.006446  0
H  H56  1  0.84329366  0.65933889  0.34263843  1  0.480746  0  0.300413  0.311416  0  0.978853  0
H  H57  1  0.15669653  0.84066603  0.84263636  1  0.480701  0  0.300338  0.311339  0  0.978844  0
H  H58  1  0.34330178  0.34066182  0.15736693  1  0.480654  0  0.300365  0.311407  0  0.978825  0
H  H59  1  0.65670335  0.15934067  0.65736373  1  0.4807  0  0.300364  0.311354  0  0.978863  0
H  H60  1  0.15670169  0.34065831  0.65735839  1  0.480673  0  0.300334  0.311303  0  0.978981  0
H  H61  1  0.84329959  0.15933984  0.15736401  1  0.480765  0  0.300351  0.31133  0  0.978915  0
H  H62  1  0.65669204  0.65933321  0.84264052  1  0.480645  0  0.300311  0.311345  0  0.97892  0
H  H63  1  0.34330201  0.84066448  0.34263841  1  0.480787  0  0.300357  0.311361  0  0.978846  0
C  C64  1  0.97303342  0.41187662  0.74560158  1  1.570018  0  0.208041  0.476181  0  4.197498  0
C  C65  1  0.02695948  0.08812617  0.24560240  1  1.57007  0  0.207971  0.475987  0  4.197961  0
C  C66  1  0.47304565  0.58811863  0.75439618  1  1.570241  0  0.20797  0.476136  0  4.197584  0
C  C67  1  0.52696755  0.91187297  0.25440176  1  1.570232  0  0.207976  0.475812  0  4.198  0
C  C68  1  0.02695963  0.58812058  0.25439879  1  1.570192  0  0.208074  0.476281  0  4.197645  0
C  C69  1  0.97304972  0.91187608  0.75439915  1  1.569724  0  0.208009  0.476187  0  4.197717  0
C  C70  1  0.52695663  0.41187856  0.24559947  1  1.57035  0  0.208008  0.476211  0  4.197666  0
C  C71  1  0.47304011  0.08812495  0.74559802  1  1.569877  0  0.20804  0.47625  0  4.197747  0
C  C72  1  0.92217951  0.50902271  0.72174828  1  1.609433  0  0.192062  0.45862  0  4.285041  0
C  C73  1  0.07781029  0.99097456  0.22175622  1  1.60843  0  0.192036  0.458612  0  4.285099  0
C  C74  1  0.42219501  0.49096963  0.77824741  1  1.608824  0  0.192202  0.458716  0  4.285047  0
C  C75  1  0.57781667  0.00902460  0.27825000  1  1.609166  0  0.192108  0.458872  0  4.284927  0
C  C76  1  0.07781123  0.49096943  0.27824677  1  1.609124  0  0.19221  0.458794  0  4.284872  0
C  C77  1  0.92219891  0.00902625  0.77824709  1  1.608652  0  0.192178  0.458641  0  4.285168  0
C  C78  1  0.57780881  0.50902973  0.22175237  1  1.608888  0  0.192253  0.458748  0  4.284984  0
C  C79  1  0.42218561  0.99097404  0.72175155  1  1.608872  0  0.192151  0.458722  0  4.284951  0
C  C80  1  0.02981252  0.22074442  0.47964464  1  1.539553  0  0.320533  0.524039  0  4.097616  0
C  C81  1  0.97017801  0.27925773  0.97964527  1  1.53977  0  0.320464  0.523974  0  4.097621  0
C  C82  1  0.52982290  0.77925906  0.02035245  1  1.540268  0  0.320393  0.523845  0  4.097591  0
C  C83  1  0.47019035  0.72074474  0.52035837  1  1.539531  0  0.320602  0.524281  0  4.0974  0
C  C84  1  0.97017975  0.77925783  0.52035868  1  1.540345  0  0.320634  0.524449  0  4.097299  0
C  C85  1  0.02982196  0.72074163  0.02035392  1  1.540272  0  0.320491  0.524027  0  4.097468  0
C  C86  1  0.47020323  0.22074609  0.97964024  1  1.539246  0  0.3206  0.524385  0  4.097329  0
C  C87  1  0.52981039  0.27925607  0.47964259  1  1.539755  0  0.320588  0.524212  0  4.097431  0
C  C88  1  0.97115190  0.18940211  0.59509583  1  0.983496  0  0.138008  0.159368  0  4.002567  0
C  C89  1  0.02884262  0.31060016  0.09509599  1  0.983612  0  0.137945  0.159257  0  4.002614  0
C  C90  1  0.47116414  0.81060109  0.90490310  1  0.983714  0  0.137955  0.159303  0  4.002697  0
C  C91  1  0.52885359  0.68940115  0.40490759  1  0.996519  0  0.138024  0.159328  0  4.002573  0
C  C92  1  0.02884114  0.81059942  0.40490690  1  0.983675  0  0.13797  0.159273  0  4.002612  0
C  C93  1  0.97115812  0.68939993  0.90490379  1  0.98359  0  0.137961  0.159299  0  4.002651  0
C  C94  1  0.52886661  0.18940189  0.09509196  1  0.996653  0  0.13805  0.159651  0  4.002495  0
C  C95  1  0.47114792  0.31059966  0.59509278  1  0.996515  0  0.137992  0.159283  0  4.002605  0
C  C96  1  0.79749444  0.54716681  0.40951737  1  1.516811  0  0.324521  0.539595  0  4.093888  0
C  C97  1  0.20250486  0.95283039  0.90951995  1  1.516542  0  0.324506  0.539462  0  4.09407  0
C  C98  1  0.29750042  0.45283171  0.09048655  1  1.51651  0  0.324538  0.539667  0  4.093891  0
C  C99  1  0.70250329  0.04716910  0.59048276  1  1.516522  0  0.324548  0.539593  0  4.09394  0
C  C100  1  0.20250630  0.45282389  0.59047355  1  1.517025  0  0.324627  0.540073  0  4.093412  0
C  C101  1  0.79750049  0.04716608  0.09048514  1  1.516853  0  0.324485  0.539518  0  4.094101  0
C  C102  1  0.70249955  0.54716332  0.90951736  1  1.516857  0  0.324576  0.539659  0  4.093778  0
C  C103  1  0.29749821  0.95283316  0.40951701  1  1.516475  0  0.324532  0.539611  0  4.093989  0
C  C104  1  0.77689896  0.41671981  0.47643059  1  0.989751  0  0.143028  0.158997  0  4.006933  0
C  C105  1  0.22310386  0.08327656  0.97643656  1  0.98989  0  0.143023  0.15904  0  4.006929  0
C  C106  1  0.27690280  0.58327943  0.02357263  1  0.989739  0  0.143018  0.15897  0  4.00713  0
C  C107  1  0.72309971  0.91672077  0.52356981  1  0.989671  0  0.143032  0.159035  0  4.006981  0
C  C108  1  0.22310332  0.58326872  0.52355974  1  0.990291  0  0.142946  0.159056  0  4.007115  0
C  C109  1  0.77690304  0.91671775  0.02357207  1  0.989707  0  0.142985  0.158944  0  4.007033  0
C  C110  1  0.72309640  0.41671705  0.97642951  1  0.98965  0  0.142971  0.158878  0  4.007004  0
C  C111  1  0.27690180  0.08328004  0.47643174  1  0.989673  0  0.143041  0.159055  0  4.006955  0
C  C112  1  0.70990732  0.66611677  0.63454871  1  2.131435  0  0.360149  0.720356  0  4.132422  0
C  C113  1  0.29008857  0.83387514  0.13455455  1  2.130971  0  0.359961  0.720005  0  4.131867  0
C  C114  1  0.20989896  0.33387116  0.86544696  1  2.131082  0  0.359838  0.719934  0  4.132116  0
C  C115  1  0.79008201  0.16612265  0.36544816  1  2.131001  0  0.359985  0.719946  0  4.131964  0
C  C116  1  0.29008958  0.33387898  0.36544988  1  2.131409  0  0.360087  0.720232  0  4.131816  0
C  C117  1  0.70988524  0.16613651  0.86545940  1  2.131286  0  0.359811  0.719962  0  4.132158  0
C  C118  1  0.79007792  0.66612893  0.13455872  1  2.130362  0  0.359897  0.719956  0  4.132321  0
C  C119  1  0.20990642  0.83388755  0.63455516  1  2.131493  0  0.360041  0.720265  0  4.132129  0
C  C120  1  0.68985102  0.89271814  0.79230458  1  2.120958  0  0.367785  0.720699  0  4.105954  0
C  C121  1  0.31014947  0.60725842  0.29230351  1  2.120701  0  0.367636  0.720558  0  4.105816  0
C  C122  1  0.18985567  0.10727484  0.70768508  1  2.121459  0  0.36762  0.720459  0  4.106684  0
C  C123  1  0.81013609  0.39272276  0.20769872  1  2.121062  0  0.36778  0.720658  0  4.105715  0
C  C124  1  0.31013510  0.10727834  0.20768929  1  2.120863  0  0.367686  0.72061  0  4.10641  0
C  C125  1  0.68985204  0.39273372  0.70770099  1  2.121159  0  0.367721  0.720648  0  4.105624  0
C  C126  1  0.81013199  0.89273103  0.29229759  1  2.121501  0  0.367859  0.720642  0  4.105996  0
C  C127  1  0.18985156  0.60727371  0.79230047  1  2.120916  0  0.3678  0.720732  0  4.105314  0
N  N128  1  0.99579290  0.26399176  0.54707608  1  -1.237504  0  -0.368136  -0.421903  0  3.453442  0
N  N129  1  0.00419731  0.23601035  0.04707593  1  -1.237668  0  -0.368062  -0.421846  0  3.453326  0
N  N130  1  0.49580634  0.73601001  0.95292122  1  -1.238155  0  -0.368054  -0.421696  0  3.45314  0
N  N131  1  0.50421185  0.76399095  0.45292751  1  -1.237381  0  -0.368149  -0.421953  0  3.453391  0
N  N132  1  0.00419706  0.73601194  0.45292724  1  -1.238143  0  -0.368197  -0.422089  0  3.453296  0
N  N133  1  0.99580420  0.76398902  0.95292385  1  -1.238105  0  -0.368068  -0.421821  0  3.453218  0
N  N134  1  0.50422441  0.26399080  0.04707148  1  -1.237131  0  -0.368163  -0.422089  0  3.453584  0
N  N135  1  0.49579120  0.23600986  0.54707285  1  -1.237593  0  -0.368104  -0.421904  0  3.453363  0
N  N136  1  0.98788291  0.10459890  0.56100670  1  -0.829486  0  -0.276547  -0.216553  0  3.579784  0
N  N137  1  0.01211206  0.39540398  0.06100873  1  -0.829344  0  -0.276501  -0.216436  0  3.579694  0
N  N138  1  0.48789474  0.89540431  0.93899055  1  -0.829336  0  -0.276457  -0.216378  0  3.579701  0
N  N139  1  0.51212101  0.60459804  0.43899593  1  -0.82946  0  -0.276521  -0.216505  0  3.579732  0
N  N140  1  0.01211245  0.89540408  0.43899485  1  -0.82954  0  -0.27647  -0.216388  0  3.579604  0
N  N141  1  0.98788868  0.60459683  0.93899104  1  -0.829282  0  -0.27649  -0.216417  0  3.57971  0
N  N142  1  0.51213370  0.10459722  0.06100392  1  -0.830482  0  -0.276649  -0.216874  0  3.580037  0
N  N143  1  0.48787973  0.39540204  0.56100503  1  -0.829496  0  -0.276543  -0.216499  0  3.579797  0
N  N144  1  0.02626037  0.12372330  0.48629390  1  -0.845251  0  -0.279034  -0.326655  0  3.407845  0
N  N145  1  0.97373176  0.37627960  0.98629596  1  -0.845547  0  -0.27904  -0.326707  0  3.407598  0
N  N146  1  0.52627227  0.87628017  0.01370494  1  -0.845631  0  -0.279027  -0.326691  0  3.407643  0
N  N147  1  0.47374246  0.62372433  0.51370889  1  -0.845249  0  -0.279037  -0.326712  0  3.407745  0
N  N148  1  0.97373498  0.87627967  0.51370824  1  -0.845345  0  -0.279071  -0.326873  0  3.407614  0
N  N149  1  0.02626897  0.62372194  0.01370500  1  -0.845568  0  -0.279063  -0.326749  0  3.40759  0
N  N150  1  0.47375387  0.12372281  0.98629070  1  -0.844432  0  -0.279037  -0.326692  0  3.407726  0
N  N151  1  0.52625828  0.37627648  0.48629148  1  -0.8453  0  -0.279039  -0.326702  0  3.407781  0
N  N152  1  0.06773096  0.26805390  0.41560902  1  -1.26269  0  -0.591474  -0.675938  0  3.304152  0
N  N153  1  0.93225819  0.23195021  0.91560873  1  -1.262517  0  -0.591452  -0.675891  0  3.304355  0
N  N154  1  0.56774271  0.73194887  0.08439065  1  -1.262439  0  -0.59143  -0.675968  0  3.304368  0
N  N155  1  0.43227116  0.76805443  0.58439410  1  -1.262676  0  -0.591537  -0.676044  0  3.304133  0
N  N156  1  0.93226208  0.73195269  0.58439548  1  -1.262592  0  -0.591541  -0.676107  0  3.304138  0
N  N157  1  0.06774101  0.76805349  0.08439282  1  -1.262479  0  -0.591476  -0.675878  0  3.304299  0
N  N158  1  0.43228343  0.26805266  0.91560558  1  -1.262525  0  -0.59141  -0.67601  0  3.304112  0
N  N159  1  0.56772958  0.23194711  0.41560449  1  -1.262689  0  -0.591564  -0.676069  0  3.304141  0
N  N160  1  0.87225570  0.44554567  0.49020238  1  -0.806584  0  -0.2686  -0.202292  0  3.554166  0
N  N161  1  0.12774648  0.05445002  0.99020951  1  -0.80654  0  -0.268618  -0.202358  0  3.55416  0
N  N162  1  0.37225863  0.55445360  0.00979784  1  -0.806608  0  -0.268611  -0.202334  0  3.554319  0
N  N163  1  0.62774451  0.94554872  0.50979572  1  -0.806563  0  -0.2686  -0.202427  0  3.554377  0
N  N164  1  0.12774812  0.55444358  0.50978500  1  -0.806813  0  -0.268614  -0.202453  0  3.5544  0
N  N165  1  0.87225811  0.94554645  0.00979558  1  -0.806694  0  -0.268565  -0.202342  0  3.554377  0
N  N166  1  0.62774134  0.44554432  0.99020548  1  -0.806574  0  -0.268597  -0.202276  0  3.554357  0
N  N167  1  0.37225853  0.05445426  0.49020464  1  -0.806682  0  -0.268636  -0.202363  0  3.554379  0
N  N168  1  0.88636413  0.52980679  0.44752832  1  -0.80752  0  -0.284982  -0.323642  0  3.425405  0
N  N169  1  0.11363708  0.97019053  0.94753516  1  -0.807329  0  -0.28497  -0.323482  0  3.42538  0
N  N170  1  0.38636821  0.47019031  0.05247198  1  -0.807301  0  -0.284909  -0.32354  0  3.425245  0
N  N171  1  0.61363591  0.02981109  0.55247000  1  -0.807238  0  -0.284962  -0.323502  0  3.42546  0
N  N172  1  0.11363892  0.47018173  0.55245965  1  -0.807528  0  -0.284925  -0.323599  0  3.42537  0
N  N173  1  0.88636674  0.02980811  0.05246993  1  -0.807711  0  -0.285013  -0.323593  0  3.425466  0
N  N174  1  0.61363330  0.52980472  0.94753193  1  -0.807807  0  -0.28501  -0.323587  0  3.425353  0
N  N175  1  0.38636714  0.97019333  0.44753036  1  -0.807311  0  -0.284985  -0.323553  0  3.425352  0
N  N176  1  0.72664515  0.47710789  0.42631376  1  -1.23414  0  -0.37112  -0.42889  0  3.475805  0
N  N177  1  0.27335718  0.02288975  0.92631751  1  -1.234216  0  -0.371155  -0.429012  0  3.475859  0
N  N178  1  0.22665176  0.52289060  0.07368976  1  -1.23404  0  -0.371185  -0.429006  0  3.475864  0
N  N179  1  0.77335200  0.97710977  0.57368855  1  -1.23407  0  -0.371189  -0.428991  0  3.475871  0
N  N180  1  0.27335636  0.52288064  0.57367894  1  -1.234604  0  -0.371152  -0.429244  0  3.475973  0
N  N181  1  0.72665125  0.97710528  0.07369053  1  -1.233957  0  -0.371111  -0.428849  0  3.475822  0
N  N182  1  0.77334974  0.47710515  0.92631120  1  -1.23398  0  -0.371124  -0.428922  0  3.475736  0
N  N183  1  0.22664720  0.02289249  0.42631359  1  -1.233967  0  -0.371146  -0.42899  0  3.475715  0
N  N184  1  0.77945100  0.62513828  0.36333115  1  -1.285888  0  -0.596712  -0.676177  0  3.304048  0
N  N185  1  0.22054325  0.87486309  0.86333069  1  -1.28585  0  -0.596664  -0.676039  0  3.304151  0
N  N186  1  0.27945892  0.37486167  0.13667327  1  -1.285848  0  -0.596692  -0.676164  0  3.304122  0
N  N187  1  0.72054754  0.12513930  0.63667094  1  -1.285783  0  -0.596655  -0.6761  0  3.303987  0
N  N188  1  0.22054666  0.37485386  0.63666450  1  -1.285994  0  -0.596699  -0.676307  0  3.303838  0
N  N189  1  0.77945672  0.12513700  0.13667145  1  -1.285877  0  -0.596638  -0.676062  0  3.304172  0
N  N190  1  0.72053874  0.62513625  0.86333005  1  -1.285729  0  -0.59673  -0.676205  0  3.304039  0
N  N191  1  0.27945781  0.87486296  0.36332884  1  -1.285869  0  -0.596676  -0.676118  0  3.304138  0
O  O192  1  0.00236741  0.35635064  0.69109295  1  -1.175496  0  -0.296841  -0.492617  0  2.380614  0
O  O193  1  0.99762957  0.14365341  0.19109409  1  -1.175564  0  -0.29673  -0.492486  0  2.380725  0
O  O194  1  0.50237282  0.64364877  0.80890863  1  -1.17527  0  -0.296776  -0.492575  0  2.380533  0
O  O195  1  0.49764091  0.85634880  0.30890861  1  -1.175634  0  -0.296703  -0.492357  0  2.381003  0
O  O196  1  0.99763410  0.64364800  0.30890742  1  -1.175493  0  -0.296774  -0.492601  0  2.380788  0
O  O197  1  0.00237347  0.85635029  0.80890509  1  -1.175374  0  -0.29676  -0.492556  0  2.380935  0
O  O198  1  0.49763408  0.35634987  0.19109292  1  -1.17564  0  -0.296773  -0.492567  0  2.380856  0
O  O199  1  0.50236522  0.14365057  0.69109412  1  -1.175631  0  -0.296701  -0.492496  0  2.380942  0
O  O200  1  0.91549576  0.52548374  0.64825452  1  -1.161165  0  -0.309543  -0.519234  0  2.325375  0
O  O201  1  0.08449102  0.97451400  0.14825597  1  -1.16089  0  -0.309615  -0.5194  0  2.325178  0
O  O202  1  0.41551196  0.47450860  0.85174291  1  -1.161411  0  -0.309639  -0.519417  0  2.325404  0
O  O203  1  0.58449888  0.02548950  0.35174379  1  -1.16109  0  -0.309574  -0.519342  0  2.325233  0
O  O204  1  0.08449343  0.47450695  0.35174112  1  -1.161403  0  -0.309699  -0.519485  0  2.325339  0
O  O205  1  0.91551280  0.02548898  0.85173909  1  -1.16137  0  -0.309614  -0.519335  0  2.325519  0
O  O206  1  0.58449339  0.52549077  0.14825687  1  -1.161342  0  -0.309678  -0.519438  0  2.325356  0
O  O207  1  0.41550262  0.97451275  0.64825716  1  -1.161007  0  -0.309666  -0.51941  0  2.325307  0
O  O208  1  0.89199178  0.56212414  0.77756955  1  -1.189693  0  -0.307418  -0.530059  0  2.305759  0
O  O209  1  0.10799317  0.93787911  0.27757282  1  -1.1892  0  -0.307353  -0.529929  0  2.306044  0
O  O210  1  0.39201057  0.43787181  0.72242598  1  -1.18921  0  -0.307523  -0.530069  0  2.305826  0
O  O211  1  0.60800211  0.06212295  0.22242767  1  -1.189617  0  -0.307418  -0.53012  0  2.30582  0
O  O212  1  0.10799434  0.43787306  0.22242256  1  -1.189295  0  -0.307456  -0.530069  0  2.305803  0
O  O213  1  0.89201834  0.06212676  0.72242106  1  -1.189007  0  -0.30746  -0.530018  0  2.305833  0
O  O214  1  0.60798786  0.56212900  0.27757498  1  -1.189199  0  -0.307487  -0.530032  0  2.305946  0
O  O215  1  0.39200324  0.93787641  0.77757447  1  -1.189518  0  -0.307427  -0.530056  0  2.305851  0
O  O216  1  0.98275912  0.39279105  0.81867102  1  -1.166464  0  -0.305432  -0.504891  0  2.436681  0
O  O217  1  0.01723371  0.10721344  0.31867183  1  -1.166071  0  -0.305469  -0.504819  0  2.436737  0
O  O218  1  0.48277604  0.60720565  0.68133033  1  -1.166556  0  -0.305373  -0.504794  0  2.436725  0
O  O219  1  0.51723953  0.89278714  0.18132933  1  -1.16639  0  -0.305526  -0.504837  0  2.436573  0
O  O220  1  0.01723008  0.60720903  0.18132876  1  -1.166512  0  -0.305474  -0.504955  0  2.436578  0
O  O221  1  0.98278011  0.89278954  0.68132677  1  -1.165964  0  -0.305469  -0.504953  0  2.436465  0
O  O222  1  0.51722470  0.39279371  0.31867063  1  -1.166455  0  -0.305451  -0.504958  0  2.436564  0
O  O223  1  0.48277044  0.10721005  0.81867222  1  -1.165917  0  -0.305521  -0.505061  0  2.436607  0
O  O224  1  0.71837783  0.72177336  0.68665737  1  -1.07486  0  -0.185088  -0.364902  0  2.212431  0
O  O225  1  0.28162549  0.77821584  0.18666066  1  -1.074791  0  -0.185024  -0.364749  0  2.211896  0
O  O226  1  0.21836664  0.27821819  0.81333599  1  -1.074907  0  -0.184864  -0.36462  0  2.211939  0
O  O227  1  0.78161844  0.22177978  0.31333904  1  -1.074696  0  -0.185047  -0.364775  0  2.211976  0
O  O228  1  0.28162291  0.27822239  0.31334064  1  -1.07505  0  -0.18509  -0.364876  0  2.211927  0
O  O229  1  0.71834986  0.22179364  0.81335210  1  -1.075048  0  -0.184815  -0.364566  0  2.211959  0
O  O230  1  0.78161025  0.72178768  0.18666556  1  -1.074427  0  -0.184955  -0.364678  0  2.212067  0
O  O231  1  0.21837768  0.77822681  0.68666133  1  -1.075008  0  -0.185039  -0.36486  0  2.211978  0
O  O232  1  0.70042256  0.61060687  0.58265134  1  -1.081956  0  -0.17161  -0.33813  0  2.222749  0
O  O233  1  0.29956667  0.88938992  0.08266030  1  -1.081558  0  -0.171494  -0.337936  0  2.222653  0
O  O234  1  0.20041935  0.38938034  0.91734546  1  -1.081536  0  -0.171509  -0.337975  0  2.222885  0
O  O235  1  0.79955981  0.11061077  0.41734364  1  -1.081692  0  -0.171491  -0.337831  0  2.222675  0
O  O236  1  0.29956971  0.38939033  0.41734667  1  -1.081743  0  -0.171542  -0.338011  0  2.222631  0
O  O237  1  0.70040945  0.11062101  0.91735364  1  -1.081593  0  -0.171545  -0.338033  0  2.222887  0
O  O238  1  0.79956138  0.61061397  0.08266435  1  -1.081319  0  -0.171492  -0.337943  0  2.222932  0
O  O239  1  0.20042169  0.88940161  0.58266204  1  -1.081872  0  -0.171552  -0.338087  0  2.222929  0
O  O240  1  0.73863501  0.85080152  0.83965592  1  -1.071389  0  -0.168863  -0.345802  0  2.215186  0
O  O241  1  0.26136055  0.64917303  0.33965467  1  -1.070896  0  -0.168852  -0.3457  0  2.214912  0
O  O242  1  0.23864153  0.14918786  0.66033106  1  -1.071454  0  -0.168861  -0.345752  0  2.215432  0
O  O243  1  0.76134901  0.35080741  0.16034787  1  -1.070836  0  -0.168842  -0.345764  0  2.215074  0
O  O244  1  0.26134726  0.14919495  0.16033973  1  -1.071002  0  -0.168888  -0.345857  0  2.215386  0
O  O245  1  0.73863788  0.35082055  0.66034747  1  -1.071348  0  -0.168895  -0.345757  0  2.214885  0
O  O246  1  0.76134536  0.85081367  0.33964688  1  -1.071019  0  -0.168893  -0.345742  0  2.215103  0
O  O247  1  0.23863942  0.64918834  0.83965309  1  -1.070889  0  -0.168912  -0.345822  0  2.214787  0
O  O248  1  0.64178885  0.93494259  0.74477265  1  -1.065692  0  -0.166062  -0.334904  0  2.22684  0
O  O249  1  0.35821271  0.56503670  0.24477294  1  -1.065927  0  -0.165906  -0.334882  0  2.227105  0
O  O250  1  0.14179471  0.06505543  0.75521732  1  -1.066161  0  -0.165894  -0.334709  0  2.227306  0
O  O251  1  0.85820136  0.43494522  0.25523015  1  -1.066334  0  -0.166073  -0.334882  0  2.226683  0
O  O252  1  0.35820188  0.06505461  0.25521827  1  -1.065966  0  -0.165931  -0.334749  0  2.22704  0
O  O253  1  0.64178956  0.43495472  0.75523333  1  -1.065919  0  -0.165956  -0.334911  0  2.22691  0
O  O254  1  0.85819603  0.93495838  0.24477006  1  -1.066592  0  -0.166107  -0.334917  0  2.226997  0
O  O255  1  0.14178707  0.56505342  0.74476904  1  -1.066123  0  -0.166028  -0.334924  0  2.226608  0
