# generated using pymatgen
data_SrH18C14(N2O5)2
_symmetry_space_group_name_H-M   'P 1'
_cell_length_a   9.21479526
_cell_length_b   9.21479728
_cell_length_c   11.27459045
_cell_angle_alpha   96.95283162
_cell_angle_beta   96.95278440
_cell_angle_gamma   94.08866891
_symmetry_Int_Tables_number   1
_chemical_formula_structural   SrH18C14(N2O5)2
_chemical_formula_sum   'Sr2 H36 C28 N8 O20'
_cell_volume   939.72878646
_cell_formula_units_Z   2
loop_
 _symmetry_equiv_pos_site_id
 _symmetry_equiv_pos_as_xyz
  1  'x, y, z'
loop_
 _atom_site_type_symbol
 _atom_site_label
 _atom_site_symmetry_multiplicity
 _atom_site_fract_x
 _atom_site_fract_y
 _atom_site_fract_z
 _atom_site_occupancy
 _atom_site_hle17_bader_spin_density
 _atom_site_hle17_ddec_charge
 _atom_site_hle17_ddec_spin_density
 _atom_site_hle17_ddec_sum_bond_order
 _atom_site_hle17_magmom
 _atom_site_hse06_10hf_bader_spin_density
 _atom_site_hse06_10hf_ddec_charge
 _atom_site_hse06_10hf_ddec_spin_density
 _atom_site_hse06_10hf_ddec_sum_bond_order
 _atom_site_hse06_10hf_magmom
 _atom_site_hse06_bader_spin_density
 _atom_site_hse06_ddec_charge
 _atom_site_hse06_ddec_spin_density
 _atom_site_hse06_ddec_sum_bond_order
 _atom_site_hse06_magmom
 _atom_site_pbe_bader_spin_density
 _atom_site_pbe_cm5_charge
 _atom_site_pbe_ddec_charge
 _atom_site_pbe_ddec_spin_density
 _atom_site_pbe_ddec_sum_bond_order
 _atom_site_pbe_magmom
Sr  Sr0  1  0.91383303  0.08616564  0.74999985  1  0  1.56181  0  1.190973  0  0  1.405834  0  1.580602  0  0  1.442344  0  1.537459  0  0  0.967526  1.37872  0  1.612364  0
Sr  Sr1  1  0.08616703  0.91383380  0.24999963  1  0  1.56179  0  1.191007  0  0  1.405812  0  1.580644  0  0  1.442325  0  1.5375  0  0  0.967525  1.378702  0  1.612406  0
H  H2  1  0.85976341  0.96472480  0.48104246  1  0  0.420072  0  0.858566  0  0  0.390467  0  0.93292  0  0  0.400014  0  0.918522  0  0  0.310694  0.383687  0  0.943117  0
H  H3  1  0.03527468  0.14023667  0.01895634  1  0  0.42009  0  0.85854  0  0  0.390485  0  0.932895  0  0  0.400032  0  0.918499  0  0  0.310703  0.383705  0  0.943093  0
H  H4  1  0.14023647  0.03527244  0.51895679  1  0  0.420086  0  0.85852  0  0  0.390475  0  0.932904  0  0  0.400022  0  0.918508  0  0  0.310687  0.383696  0  0.943102  0
H  H5  1  0.96472767  0.85976387  0.98104346  1  0  0.42009  0  0.858513  0  0  0.390484  0  0.932889  0  0  0.400032  0  0.918492  0  0  0.310693  0.383706  0  0.943085  0
H  H6  1  0.83430079  0.13143420  0.47392834  1  0  0.42465  0  0.877799  0  0  0.388955  0  0.949806  0  0  0.40021  0  0.933253  0  0  0.294676  0.380941  0  0.961569  0
H  H7  1  0.86856565  0.16569904  0.02607108  1  0  0.424677  0  0.877766  0  0  0.388991  0  0.949759  0  0  0.400246  0  0.933208  0  0  0.294686  0.380978  0  0.961522  0
H  H8  1  0.16569799  0.86856304  0.52606991  1  0  0.424648  0  0.877805  0  0  0.388957  0  0.949805  0  0  0.400211  0  0.933255  0  0  0.29466  0.380944  0  0.961567  0
H  H9  1  0.13143679  0.83430260  0.97392973  1  0  0.424643  0  0.877811  0  0  0.388959  0  0.949801  0  0  0.400213  0  0.933251  0  0  0.294666  0.380947  0  0.961562  0
H  H10  1  0.44119540  0.82287997  0.91252235  1  0  0.386508  0  0.922402  0  0  0.353079  0  1.004917  0  0  0.366347  0  0.988242  0  0  0.292013  0.343911  0  1.01345  0
H  H11  1  0.17711982  0.55880169  0.58747683  1  0  0.386526  0  0.922374  0  0  0.353052  0  1.004971  0  0  0.36632  0  0.98828  0  0  0.292023  0.343885  0  1.013497  0
H  H12  1  0.55880367  0.17712057  0.08747802  1  0  0.386519  0  0.922366  0  0  0.353102  0  1.004862  0  0  0.366369  0  0.988204  0  0  0.292022  0.343933  0  1.013401  0
H  H13  1  0.82288135  0.44119776  0.41252363  1  0  0.386521  0  0.922411  0  0  0.353039  0  1.005022  0  0  0.366307  0  0.988308  0  0  0.29201  0.343872  0  1.013549  0
H  H14  1  0.28773687  0.18242422  0.69659326  1  0  0.320443  0  0.916227  0  0  0.29801  0  0.981695  0  0  0.307097  0  0.974292  0  0  0.320204  0.291683  0  0.986758  0
H  H15  1  0.81757460  0.71226271  0.80340502  1  0  0.320451  0  0.916234  0  0  0.298017  0  0.981704  0  0  0.307104  0  0.974302  0  0  0.32023  0.291691  0  0.986768  0
H  H16  1  0.71226329  0.81757632  0.30340722  1  0  0.320341  0  0.916363  0  0  0.297926  0  0.981797  0  0  0.307013  0  0.974401  0  0  0.320178  0.291601  0  0.986859  0
H  H17  1  0.18242446  0.28773783  0.19659446  1  0  0.320365  0  0.916339  0  0  0.297947  0  0.981773  0  0  0.307033  0  0.974379  0  0  0.320203  0.291621  0  0.986837  0
H  H18  1  0.66144446  0.31744871  0.61222704  1  0  0.099381  0  0.937027  0  0  0.116988  0  0.990775  0  0  0.118339  0  0.991333  0  0  0.10864  0.116042  0  0.990438  0
H  H19  1  0.68255062  0.33855658  0.88777311  1  0  0.099385  0  0.93701  0  0  0.11699  0  0.990748  0  0  0.118353  0  0.991285  0  0  0.108649  0.116045  0  0.990411  0
H  H20  1  0.33855580  0.68255293  0.38777266  1  0  0.099375  0  0.937015  0  0  0.116974  0  0.990774  0  0  0.118324  0  0.99133  0  0  0.108625  0.116029  0  0.990438  0
H  H21  1  0.31744855  0.66144506  0.11222826  1  0  0.099379  0  0.937013  0  0  0.116991  0  0.990758  0  0  0.118356  0  0.991297  0  0  0.10864  0.116046  0  0.990422  0
H  H22  1  0.49159936  0.38902719  0.63490202  1  0  0.087995  0  0.927975  0  0  0.101254  0  0.990179  0  0  0.10326  0  0.98888  0  0  0.097914  0.100367  0  0.990077  0
H  H23  1  0.61097255  0.50840109  0.86509821  1  0  0.088009  0  0.928036  0  0  0.10126  0  0.990239  0  0  0.103264  0  0.988943  0  0  0.097933  0.100373  0  0.990136  0
H  H24  1  0.50840080  0.61097335  0.36509846  1  0  0.088004  0  0.927961  0  0  0.101258  0  0.990166  0  0  0.103264  0  0.988868  0  0  0.097922  0.100371  0  0.990065  0
H  H25  1  0.38902760  0.49159944  0.13490138  1  0  0.088022  0  0.928022  0  0  0.101276  0  0.990231  0  0  0.103282  0  0.988937  0  0  0.097932  0.10039  0  0.990129  0
H  H26  1  0.53193502  0.13319466  0.44285037  1  0  0.103718  0  0.962963  0  0  0.122756  0  1.027776  0  0  0.123592  0  1.029462  0  0  0.087914  0.122212  0  1.026353  0
H  H27  1  0.86680643  0.46806442  0.05714923  1  0  0.103726  0  0.962995  0  0  0.122754  0  1.027816  0  0  0.123592  0  1.029501  0  0  0.087923  0.122211  0  1.026395  0
H  H28  1  0.46806524  0.86680698  0.55715023  1  0  0.103694  0  0.963012  0  0  0.122707  0  1.027851  0  0  0.123563  0  1.029517  0  0  0.087909  0.122164  0  1.026428  0
H  H29  1  0.13319383  0.53193722  0.94285136  1  0  0.103696  0  0.963028  0  0  0.122728  0  1.027844  0  0  0.123567  0  1.029529  0  0  0.087916  0.122186  0  1.026423  0
H  H30  1  0.50677301  0.31670781  0.41610310  1  0  0.09706  0  0.94057  0  0  0.118984  0  0.998342  0  0  0.120662  0  0.997935  0  0  0.085954  0.118  0  0.998206  0
H  H31  1  0.68329389  0.49322699  0.08389758  1  0  0.097097  0  0.940552  0  0  0.118994  0  0.998346  0  0  0.120671  0  0.997941  0  0  0.085962  0.118012  0  0.998209  0
H  H32  1  0.49322616  0.68329382  0.58389739  1  0  0.097073  0  0.940574  0  0  0.118969  0  0.998373  0  0  0.120647  0  0.997969  0  0  0.085942  0.117986  0  0.998236  0
H  H33  1  0.31670636  0.50677465  0.91610301  1  0  0.097068  0  0.940566  0  0  0.118971  0  0.998366  0  0  0.120649  0  0.997958  0  0  0.08595  0.117989  0  0.998228  0
H  H34  1  0.36199364  0.20781619  0.46288891  1  0  0.107388  0  0.95151  0  0  0.126825  0  1.015238  0  0  0.128689  0  1.014754  0  0  0.091573  0.125411  0  1.01568  0
H  H35  1  0.79218411  0.63800700  0.03711081  1  0  0.107389  0  0.951517  0  0  0.126828  0  1.015236  0  0  0.128693  0  1.014752  0  0  0.091571  0.125415  0  1.015679  0
H  H36  1  0.63800652  0.79218435  0.53711067  1  0  0.107386  0  0.951517  0  0  0.126823  0  1.015237  0  0  0.128688  0  1.014755  0  0  0.091574  0.125409  0  1.015679  0
H  H37  1  0.20781614  0.36199464  0.96288889  1  0  0.107389  0  0.951543  0  0  0.126827  0  1.015266  0  0  0.128691  0  1.014784  0  0  0.09157  0.125413  0  1.015709  0
C  C38  1  0.54946152  0.00530097  0.80230156  1  0  -0.026068  0  3.823572  0  0  -0.032116  0  4.091765  0  0  -0.035867  0  4.112607  0  0  0.080501  -0.02981  0  4.077838  0
C  C39  1  0.99469550  0.45053629  0.69769528  1  0  -0.026163  0  3.82365  0  0  -0.032154  0  4.091827  0  0  -0.035905  0  4.112668  0  0  0.080552  -0.029849  0  4.0779  0
C  C40  1  0.45053864  0.99469957  0.19769803  1  0  -0.026135  0  3.823625  0  0  -0.032174  0  4.091815  0  0  -0.035926  0  4.112654  0  0  0.080471  -0.02987  0  4.077891  0
C  C41  1  0.00530238  0.54946315  0.30230398  1  0  -0.026087  0  3.823509  0  0  -0.032154  0  4.091721  0  0  -0.035904  0  4.112561  0  0  0.080527  -0.029848  0  4.077797  0
C  C42  1  0.40188012  0.03222345  0.79591403  1  0  0.016436  0  3.708064  0  0  -0.00349  0  3.974291  0  0  -0.002834  0  3.991125  0  0  0.09105  -0.003849  0  3.963269  0
C  C43  1  0.96777405  0.59811738  0.70408382  1  0  0.016445  0  3.707922  0  0  -0.003571  0  3.974257  0  0  -0.002918  0  3.991092  0  0  0.091014  -0.003928  0  3.963234  0
C  C44  1  0.59812013  0.96777819  0.20408567  1  0  0.016503  0  3.707978  0  0  -0.003435  0  3.974228  0  0  -0.002777  0  3.991061  0  0  0.091087  -0.003792  0  3.963206  0
C  C45  1  0.03222483  0.40188097  0.29591543  1  0  0.016515  0  3.707851  0  0  -0.003455  0  3.974158  0  0  -0.002799  0  3.990993  0  0  0.091022  -0.003814  0  3.963138  0
C  C46  1  0.51922175  0.17817249  0.68864993  1  0  0.410831  0  3.651968  0  0  0.384273  0  3.927045  0  0  0.399001  0  3.940491  0  0  0.245076  0.37505  0  3.91748  0
C  C47  1  0.82182604  0.48077895  0.81135011  1  0  0.410862  0  3.651851  0  0  0.384277  0  3.926946  0  0  0.399004  0  3.940392  0  0  0.24508  0.375049  0  3.91739  0
C  C48  1  0.48077841  0.82182805  0.31135054  1  0  0.410849  0  3.651887  0  0  0.384281  0  3.926984  0  0  0.399008  0  3.94043  0  0  0.245082  0.37506  0  3.917418  0
C  C49  1  0.17817303  0.51922159  0.18865026  1  0  0.410933  0  3.651808  0  0  0.384364  0  3.926902  0  0  0.399091  0  3.940351  0  0  0.24511  0.375136  0  3.917348  0
C  C50  1  0.62861860  0.89364677  0.85922814  1  0  0.658965  0  3.843246  0  0  0.604083  0  4.148992  0  0  0.63886  0  4.138336  0  0  0.239138  0.580718  0  4.155454  0
C  C51  1  0.10635153  0.37138010  0.64077101  1  0  0.658995  0  3.8433  0  0  0.604112  0  4.149028  0  0  0.63889  0  4.13837  0  0  0.239139  0.580747  0  4.155489  0
C  C52  1  0.37138147  0.10635267  0.14077133  1  0  0.658979  0  3.843301  0  0  0.604112  0  4.149033  0  0  0.63889  0  4.138373  0  0  0.239129  0.580747  0  4.155498  0
C  C53  1  0.89364864  0.62862045  0.35922946  1  0  0.659018  0  3.843176  0  0  0.604211  0  4.148831  0  0  0.63899  0  4.138171  0  0  0.239177  0.580845  0  4.155296  0
C  C54  1  0.27857302  0.97271058  0.85285958  1  0  0.651342  0  3.943614  0  0  0.596905  0  4.249346  0  0  0.630945  0  4.239426  0  0  0.22504  0.573677  0  4.25572  0
C  C55  1  0.02728724  0.72142610  0.64713972  1  0  0.651332  0  3.943589  0  0  0.596886  0  4.249359  0  0  0.63093  0  4.239436  0  0  0.225059  0.573656  0  4.255734  0
C  C56  1  0.72142714  0.02728996  0.14714001  1  0  0.651311  0  3.943518  0  0  0.596879  0  4.249261  0  0  0.630917  0  4.239345  0  0  0.22505  0.57365  0  4.255636  0
C  C57  1  0.97271273  0.27857225  0.35285964  1  0  0.651235  0  3.943643  0  0  0.596778  0  4.249412  0  0  0.630818  0  4.239495  0  0  0.224991  0.573551  0  4.255781  0
C  C58  1  0.54286306  0.28891811  0.60513115  1  0  -0.163048  0  3.707177  0  0  -0.199851  0  3.963375  0  0  -0.202211  0  3.974307  0  0  -0.148968  -0.198505  0  3.955654  0
C  C59  1  0.71108144  0.45713781  0.89486993  1  0  -0.163047  0  3.707224  0  0  -0.199809  0  3.963363  0  0  -0.202169  0  3.974285  0  0  -0.148968  -0.198458  0  3.955639  0
C  C60  1  0.45713710  0.71108244  0.39486933  1  0  -0.163019  0  3.707159  0  0  -0.199804  0  3.96332  0  0  -0.202161  0  3.974256  0  0  -0.148945  -0.198457  0  3.955601  0
C  C61  1  0.28891872  0.54286273  0.10513054  1  0  -0.163079  0  3.707215  0  0  -0.19988  0  3.963412  0  0  -0.20225  0  3.974347  0  0  -0.148969  -0.198532  0  3.955695  0
C  C62  1  0.48141169  0.23272943  0.47366529  1  0  -0.266273  0  3.67093  0  0  -0.34076  0  3.915551  0  0  -0.343031  0  3.925452  0  0  -0.241934  -0.339021  0  3.908495  0
C  C63  1  0.76727174  0.51858884  0.02633536  1  0  -0.266349  0  3.670958  0  0  -0.340824  0  3.915579  0  0  -0.343095  0  3.925471  0  0  -0.241966  -0.339087  0  3.908527  0
C  C64  1  0.51858847  0.76727110  0.52633429  1  0  -0.266285  0  3.670988  0  0  -0.340735  0  3.915621  0  0  -0.343022  0  3.925503  0  0  -0.241936  -0.338999  0  3.908565  0
C  C65  1  0.23272851  0.48141280  0.97366523  1  0  -0.266268  0  3.671005  0  0  -0.340735  0  3.91563  0  0  -0.343004  0  3.925529  0  0  -0.241938  -0.338996  0  3.908577  0
N  N66  1  0.62065712  0.09795941  0.73661373  1  0  -0.480101  0  3.073517  0  0  -0.438431  0  3.345398  0  0  -0.454243  0  3.361319  0  0  -0.379452  -0.428077  0  3.33512  0
N  N67  1  0.90203882  0.37934211  0.76338608  1  0  -0.480084  0  3.073441  0  0  -0.43842  0  3.345327  0  0  -0.454233  0  3.361246  0  0  -0.379497  -0.428067  0  3.335052  0
N  N68  1  0.37934194  0.90204113  0.26338575  1  0  -0.480097  0  3.073486  0  0  -0.438423  0  3.345372  0  0  -0.454234  0  3.361291  0  0  -0.379457  -0.428071  0  3.335096  0
N  N69  1  0.09796016  0.62065733  0.23661417  1  0  -0.480171  0  3.073469  0  0  -0.438498  0  3.345372  0  0  -0.45431  0  3.361291  0  0  -0.379505  -0.428145  0  3.3351  0
N  N70  1  0.38670830  0.14152895  0.72417798  1  0  -0.327669  0  3.365254  0  0  -0.26826  0  3.593015  0  0  -0.284455  0  3.605893  0  0  -0.358113  -0.257549  0  3.584101  0
N  N71  1  0.85846780  0.61329095  0.77582090  1  0  -0.327661  0  3.365162  0  0  -0.268208  0  3.592929  0  0  -0.284403  0  3.605807  0  0  -0.358125  -0.257496  0  3.584017  0
N  N72  1  0.61329187  0.85847159  0.27582249  1  0  -0.327609  0  3.365172  0  0  -0.268203  0  3.592962  0  0  -0.2844  0  3.605838  0  0  -0.358082  -0.257493  0  3.584048  0
N  N73  1  0.14153127  0.38670959  0.22417947  1  0  -0.327669  0  3.365213  0  0  -0.268227  0  3.592969  0  0  -0.284422  0  3.605844  0  0  -0.358091  -0.257513  0  3.584059  0
O  O74  1  0.76299374  0.88638233  0.85147229  1  0  -0.631906  0  2.022295  0  0  -0.572967  0  2.255902  0  0  -0.594897  0  2.243393  0  0  -0.315813  -0.557813  0  2.263848  0
O  O75  1  0.11361481  0.23700435  0.64852753  1  0  -0.631958  0  2.022274  0  0  -0.573011  0  2.255891  0  0  -0.594942  0  2.243382  0  0  -0.315839  -0.557858  0  2.263837  0
O  O76  1  0.23700623  0.11361601  0.14852707  1  0  -0.631901  0  2.022251  0  0  -0.572986  0  2.255873  0  0  -0.594921  0  2.243377  0  0  -0.315822  -0.557833  0  2.263822  0
O  O77  1  0.88638407  0.76299399  0.35147261  1  0  -0.631917  0  2.022286  0  0  -0.573012  0  2.255881  0  0  -0.594945  0  2.243377  0  0  -0.315838  -0.557859  0  2.263827  0
O  O78  1  0.81808868  0.04896901  0.52104086  1  0  -0.866463  0  1.811782  0  0  -0.81542  0  2.0054  0  0  -0.833615  0  1.975035  0  0  -0.623266  -0.802243  0  2.026775  0
O  O79  1  0.95103039  0.18190980  0.97895802  1  0  -0.866518  0  1.811739  0  0  -0.81547  0  2.005355  0  0  -0.833664  0  1.974992  0  0  -0.623283  -0.802292  0  2.026729  0
O  O80  1  0.18191010  0.95102823  0.47895828  1  0  -0.866483  0  1.811752  0  0  -0.815431  0  2.00539  0  0  -0.833624  0  1.975028  0  0  -0.623244  -0.802253  0  2.026765  0
O  O81  1  0.04897186  0.81808965  0.02104255  1  0  -0.866496  0  1.811766  0  0  -0.815447  0  2.005392  0  0  -0.833642  0  1.97503  0  0  -0.623254  -0.80227  0  2.026767  0
O  O82  1  0.55621000  0.79995300  0.91378258  1  0  -0.534778  0  2.0631  0  0  -0.484968  0  2.280522  0  0  -0.507865  0  2.265496  0  0  -0.316393  -0.469409  0  2.288166  0
O  O83  1  0.20004504  0.44378705  0.58621727  1  0  -0.5347  0  2.063081  0  0  -0.484906  0  2.280592  0  0  -0.507802  0  2.265555  0  0  -0.316375  -0.469347  0  2.288234  0
O  O84  1  0.44378897  0.20004644  0.08621590  1  0  -0.534751  0  2.06316  0  0  -0.484962  0  2.280574  0  0  -0.507859  0  2.26556  0  0  -0.316377  -0.469402  0  2.28822  0
O  O85  1  0.79995394  0.55621240  0.41378476  1  0  -0.534775  0  2.06303  0  0  -0.484986  0  2.280502  0  0  -0.507884  0  2.265449  0  0  -0.316407  -0.469426  0  2.288146  0
O  O86  1  0.29959207  0.86113575  0.91048275  1  0  -0.611618  0  2.013946  0  0  -0.548067  0  2.228148  0  0  -0.574411  0  2.217305  0  0  -0.303594  -0.530119  0  2.234288  0
O  O87  1  0.13886151  0.70040512  0.58951626  1  0  -0.611698  0  2.014013  0  0  -0.548067  0  2.228207  0  0  -0.574413  0  2.217358  0  0  -0.303625  -0.530119  0  2.234346  0
O  O88  1  0.70040809  0.13886479  0.08951684  1  0  -0.611598  0  2.013899  0  0  -0.548043  0  2.228084  0  0  -0.574388  0  2.217248  0  0  -0.303585  -0.530095  0  2.234228  0
O  O89  1  0.86113855  0.29959432  0.41048321  1  0  -0.611695  0  2.013991  0  0  -0.548053  0  2.228182  0  0  -0.574398  0  2.217328  0  0  -0.303599  -0.530105  0  2.23432  0
O  O90  1  0.16122870  0.03366645  0.84470370  1  0  -0.657742  0  2.005995  0  0  -0.601149  0  2.254332  0  0  -0.624747  0  2.243547  0  0  -0.366612  -0.584651  0  2.261419  0
O  O91  1  0.96633163  0.83876984  0.65529351  1  0  -0.657724  0  2.00602  0  0  -0.601126  0  2.254356  0  0  -0.624725  0  2.243571  0  0  -0.366615  -0.584626  0  2.261442  0
O  O92  1  0.83877146  0.96633408  0.15529500  1  0  -0.657773  0  2.005894  0  0  -0.601186  0  2.254232  0  0  -0.624783  0  2.243445  0  0  -0.366653  -0.584688  0  2.261318  0
O  O93  1  0.03366834  0.16122850  0.34470496  1  0  -0.657637  0  2.006018  0  0  -0.60104  0  2.254361  0  0  -0.624636  0  2.243576  0  0  -0.366566  -0.58454  0  2.26144  0
