# generated using pymatgen
data_ZnH12C20NO4
_symmetry_space_group_name_H-M   'P 1'
_cell_length_a   20.07545465
_cell_length_b   20.24732828
_cell_length_c   20.24734861
_cell_angle_alpha   66.78401844
_cell_angle_beta   61.63608524
_cell_angle_gamma   61.63578948
_symmetry_Int_Tables_number   1
_chemical_formula_structural   ZnH12C20NO4
_chemical_formula_sum   'Zn8 H96 C160 N8 O32'
_cell_volume   6219.83394273
_cell_formula_units_Z   8
loop_
 _symmetry_equiv_pos_site_id
 _symmetry_equiv_pos_as_xyz
  1  'x, y, z'
loop_
 _atom_site_type_symbol
 _atom_site_label
 _atom_site_symmetry_multiplicity
 _atom_site_fract_x
 _atom_site_fract_y
 _atom_site_fract_z
 _atom_site_occupancy
 _atom_site_pbe_bader_charge
 _atom_site_pbe_bader_spin_density
 _atom_site_pbe_cm5_charge
 _atom_site_pbe_ddec_charge
 _atom_site_pbe_ddec_spin_density
 _atom_site_pbe_ddec_sum_bond_order
 _atom_site_pbe_magmom
Zn  Zn0  1  0.57910260  0.07400019  0.54462654  1  1.294042  0  0.671211  0.825366  0  2.401986  0
Zn  Zn1  1  0.92089863  0.45537390  0.92600123  1  1.294054  0  0.671206  0.82534  0  2.402018  0
Zn  Zn2  1  0.42089590  0.92599771  0.45537593  1  1.294265  0  0.671188  0.825304  0  2.402021  0
Zn  Zn3  1  0.07910071  0.54462630  0.07400044  1  1.293995  0  0.671203  0.825418  0  2.401938  0
Zn  Zn4  1  0.48202789  0.14225508  0.67475579  1  1.295029  0  0.665338  0.824233  0  2.413883  0
Zn  Zn5  1  0.01797275  0.32524274  0.85774967  1  1.294888  0  0.665362  0.824281  0  2.41383  0
Zn  Zn6  1  0.51797471  0.85774396  0.32524482  1  1.295095  0  0.665376  0.824274  0  2.413668  0
Zn  Zn7  1  0.98202357  0.67475803  0.14225071  1  1.294975  0  0.665337  0.824221  0  2.413672  0
H  H8  1  0.31518551  0.24983037  0.71907830  1  0.115263  0  0.121509  0.092849  0  1.02968  0
H  H9  1  0.18480828  0.28093242  0.75016307  1  0.116091  0  0.121476  0.092814  0  1.029616  0
H  H10  1  0.68481644  0.75017040  0.28092292  1  0.115327  0  0.121485  0.092782  0  1.029657  0
H  H11  1  0.81517974  0.71907870  0.24982821  1  0.115259  0  0.121471  0.092789  0  1.029616  0
H  H12  1  0.32225485  0.01474567  0.80068063  1  0.09145  0  0.1029  0.116646  0  1.001221  0
H  H13  1  0.17775114  0.19932854  0.98524839  1  0.091545  0  0.102935  0.116573  0  1.001228  0
H  H14  1  0.67775037  0.98524476  0.19932611  1  0.091609  0  0.102954  0.116625  0  1.001248  0
H  H15  1  0.82226097  0.80067392  0.01474400  1  0.091516  0  0.102921  0.11665  0  1.001258  0
H  H16  1  0.19216115  0.44370226  0.83534559  1  0.108459  0  0.109297  0.115194  0  1.029516  0
H  H17  1  0.30783769  0.16465672  0.55629542  1  0.108455  0  0.109303  0.11523  0  1.029517  0
H  H18  1  0.80784030  0.55629679  0.16465704  1  0.108377  0  0.109252  0.115111  0  1.029621  0
H  H19  1  0.69216001  0.83534347  0.44370159  1  0.108383  0  0.109278  0.115196  0  1.029516  0
H  H20  1  0.21819175  0.39353603  0.08147029  1  0.129858  0  0.126161  0.099882  0  0.981354  0
H  H21  1  0.28180814  0.91852852  0.60646795  1  0.129875  0  0.126161  0.099918  0  0.981282  0
H  H22  1  0.78181763  0.60646759  0.91852637  1  0.129967  0  0.126161  0.099897  0  0.981327  0
H  H23  1  0.71818803  0.08147111  0.39353493  1  0.129983  0  0.126179  0.099891  0  0.981309  0
H  H24  1  0.74565600  0.19855938  0.41384119  1  0.102548  0  0.101885  0.110964  0  1.00927  0
H  H25  1  0.75434371  0.58615999  0.80144245  1  0.102504  0  0.10188  0.11098  0  1.009275  0
H  H26  1  0.25433530  0.80144428  0.58615891  1  0.102532  0  0.101888  0.111017  0  1.009345  0
H  H27  1  0.24565457  0.41384309  0.19855809  1  0.102556  0  0.101882  0.110971  0  1.00926  0
H  H28  1  0.12574194  0.82388215  0.99815741  1  0.073687  0  0.101721  0.111607  0  1.008524  0
H  H29  1  0.37426435  0.00184164  0.17611321  1  0.073391  0  0.101731  0.111602  0  1.008597  0
H  H30  1  0.87425084  0.17611920  0.00183698  1  0.073435  0  0.101755  0.111635  0  1.008497  0
H  H31  1  0.62574411  0.99816141  0.82388459  1  0.073665  0  0.101765  0.11164  0  1.008536  0
H  H32  1  0.93398447  0.39835120  0.21756573  1  0.111343  0  0.10288  0.11123  0  1.035187  0
H  H33  1  0.56600480  0.78242886  0.60166179  1  0.111092  0  0.102828  0.111193  0  1.035191  0
H  H34  1  0.06601211  0.60164899  0.78243081  1  0.111394  0  0.102832  0.1112  0  1.035221  0
H  H35  1  0.43398998  0.21756676  0.39834824  1  0.111287  0  0.102853  0.111212  0  1.035217  0
H  H36  1  0.63935950  0.41856078  0.53567194  1  0.051975  0  0.102118  0.10379  0  0.996341  0
H  H37  1  0.86064380  0.46432265  0.58144548  1  0.051911  0  0.102109  0.103763  0  0.996318  0
H  H38  1  0.36063808  0.58144573  0.46432510  1  0.051864  0  0.102114  0.103792  0  0.996353  0
H  H39  1  0.13936523  0.53567580  0.41855485  1  0.051962  0  0.102148  0.103811  0  0.996317  0
H  H40  1  0.47662033  0.90292962  0.61029008  1  0.099581  0  0.102655  0.106085  0  1.029078  0
H  H41  1  0.02339554  0.38971921  0.09706322  1  0.099193  0  0.102676  0.10613  0  1.029106  0
H  H42  1  0.52338370  0.09706252  0.38971406  1  0.099616  0  0.10263  0.106118  0  1.028995  0
H  H43  1  0.97661735  0.61028267  0.90292903  1  0.099417  0  0.102639  0.106082  0  1.029038  0
H  H44  1  0.57800916  0.31621515  0.59851122  1  0.090233  0  0.102667  0.109652  0  1.002785  0
H  H45  1  0.92199351  0.40148890  0.68378999  1  0.090759  0  0.102694  0.109663  0  1.002823  0
H  H46  1  0.42198691  0.68379080  0.40148971  1  0.090246  0  0.102659  0.109674  0  1.002856  0
H  H47  1  0.07800345  0.59850845  0.31621983  1  0.090215  0  0.10269  0.109691  0  1.002814  0
H  H48  1  0.24788953  0.90208077  0.93308519  1  0.043566  0  0.107527  0.121765  0  0.955452  0
H  H49  1  0.25211384  0.06691873  0.09791250  1  0.04367  0  0.107506  0.121718  0  0.955557  0
H  H50  1  0.75211007  0.09790965  0.06691872  1  0.043576  0  0.107501  0.121714  0  0.955526  0
H  H51  1  0.74789003  0.93308146  0.90208806  1  0.043734  0  0.107515  0.121744  0  0.955529  0
H  H52  1  0.17875037  0.95934788  0.88445375  1  0.053826  0  0.10149  0.110697  0  0.972589  0
H  H53  1  0.32125648  0.11554594  0.04064933  1  0.053704  0  0.101517  0.110708  0  0.972625  0
H  H54  1  0.82125089  0.04065174  0.11554677  1  0.053798  0  0.101484  0.11068  0  0.972596  0
H  H55  1  0.67875216  0.88444907  0.95934957  1  0.053857  0  0.101509  0.110716  0  0.972575  0
H  H56  1  0.31083797  0.29533417  0.00086468  1  0.082608  0  0.112987  0.117964  0  0.99364  0
H  H57  1  0.18916189  0.99913938  0.70466673  1  0.082611  0  0.113006  0.118021  0  0.99365  0
H  H58  1  0.68917408  0.70467290  0.99912987  1  0.082668  0  0.112994  0.117959  0  0.993616  0
H  H59  1  0.81083026  0.00086656  0.29533058  1  0.082695  0  0.112992  0.117949  0  0.993638  0
H  H60  1  0.22058842  0.33718023  0.81100210  1  0.124289  0  0.111929  0.125581  0  1.027087  0
H  H61  1  0.27940758  0.18900764  0.66281301  1  0.124203  0  0.111896  0.125583  0  1.027052  0
H  H62  1  0.77941912  0.66282225  0.18899635  1  0.124176  0  0.11186  0.125509  0  1.027131  0
H  H63  1  0.72057981  0.81100520  0.33717640  1  0.124109  0  0.111861  0.125516  0  1.027112  0
H  H64  1  0.71917487  0.51032513  0.44552859  1  0.067973  0  0.100429  0.101878  0  1.019753  0
H  H65  1  0.78082185  0.55447088  0.48967856  1  0.067811  0  0.100421  0.101936  0  1.01975  0
H  H66  1  0.28083119  0.48967218  0.55447307  1  0.068172  0  0.100531  0.101983  0  1.019744  0
H  H67  1  0.21917581  0.44552472  0.51032521  1  0.067809  0  0.100474  0.101931  0  1.019752  0
H  H68  1  0.32754385  0.71330117  0.76604613  1  0.051012  0  0.102175  0.105349  0  0.996582  0
H  H69  1  0.17246462  0.23395472  0.28669225  1  0.050788  0  0.102146  0.105301  0  0.996597  0
H  H70  1  0.67246188  0.28669097  0.23395673  1  0.051059  0  0.102179  0.105354  0  0.996505  0
H  H71  1  0.82753094  0.76604204  0.71330957  1  0.05091  0  0.102165  0.105341  0  0.99657  0
H  H72  1  0.81416546  0.57745191  0.34217294  1  0.069727  0  0.098923  0.100696  0  1.024729  0
H  H73  1  0.68582392  0.65782486  0.42255756  1  0.070114  0  0.098958  0.100671  0  1.024828  0
H  H74  1  0.18583718  0.42254712  0.65782420  1  0.069723  0  0.098952  0.100712  0  1.024695  0
H  H75  1  0.31417046  0.34217191  0.57744925  1  0.070014  0  0.098952  0.100728  0  1.024699  0
H  H76  1  0.41389387  0.80304121  0.67336350  1  0.084877  0  0.10408  0.111413  0  1.001869  0
H  H77  1  0.08612187  0.32664137  0.19695175  1  0.085059  0  0.104178  0.111517  0  1.002002  0
H  H78  1  0.58611136  0.19694921  0.32664125  1  0.084678  0  0.104135  0.111457  0  1.001916  0
H  H79  1  0.91388471  0.67335765  0.80304554  1  0.084943  0  0.104133  0.111471  0  1.001999  0
H  H80  1  0.23107638  0.64907441  0.87201169  1  0.096533  0  0.101759  0.10743  0  1.007159  0
H  H81  1  0.26892249  0.12798135  0.35092748  1  0.091002  0  0.101771  0.107453  0  1.0071  0
H  H82  1  0.76891387  0.35092923  0.12798100  1  0.091327  0  0.101791  0.107466  0  1.007089  0
H  H83  1  0.73107380  0.87201943  0.64907587  1  0.09101  0  0.101791  0.107515  0  1.007056  0
H  H84  1  0.49703160  0.16627525  0.80447034  1  0.127482  0  0.128792  0.103867  0  0.973252  0
H  H85  1  0.00296757  0.19553253  0.83372353  1  0.12749  0  0.128775  0.103858  0  0.973292  0
H  H86  1  0.50297696  0.83373067  0.19552184  1  0.12744  0  0.128859  0.103984  0  0.973221  0
H  H87  1  0.99702285  0.80447514  0.16627046  1  0.127467  0  0.128873  0.10399  0  0.973201  0
H  H88  1  0.10145295  0.53224239  0.92604509  1  0.141596  0  0.125767  0.102262  0  1.000007  0
H  H89  1  0.39854618  0.07395393  0.46775803  1  0.141657  0  0.125746  0.102227  0  1.000066  0
H  H90  1  0.89854916  0.46775493  0.07395692  1  0.141536  0  0.125759  0.102263  0  1.000053  0
H  H91  1  0.60145355  0.92604224  0.53224357  1  0.141548  0  0.12575  0.102271  0  1.000017  0
H  H92  1  0.41442280  0.25512657  0.89570656  1  0.066675  0  0.113837  0.119711  0  0.992235  0
H  H93  1  0.08557659  0.10429821  0.74487093  1  0.066648  0  0.113835  0.119692  0  0.992352  0
H  H94  1  0.58558887  0.74487704  0.10428706  1  0.066947  0  0.113839  0.119713  0  0.992326  0
H  H95  1  0.91441289  0.89570889  0.25512470  1  0.067179  0  0.113823  0.119711  0  0.992335  0
H  H96  1  0.81475667  0.31545281  0.27939815  1  0.04931  0  0.107234  0.122128  0  0.963521  0
H  H97  1  0.68524387  0.72060095  0.68454750  1  0.049295  0  0.10724  0.122097  0  0.963572  0
H  H98  1  0.18524504  0.68454565  0.72060063  1  0.049351  0  0.107255  0.122141  0  0.963535  0
H  H99  1  0.31475593  0.27939809  0.31545145  1  0.049264  0  0.107241  0.122153  0  0.963491  0
H  H100  1  0.88402393  0.26221079  0.32807650  1  0.066814  0  0.108942  0.123808  0  0.956279  0
H  H101  1  0.61597865  0.67192107  0.73779379  1  0.066742  0  0.108958  0.123838  0  0.956255  0
H  H102  1  0.11597167  0.73778884  0.67192713  1  0.067203  0  0.108934  0.123794  0  0.956293  0
H  H103  1  0.38402444  0.32807510  0.26220970  1  0.066919  0  0.108932  0.123822  0  0.956303  0
C  C104  1  0.33301590  0.25220608  0.76089741  1  0.553351  0  0.055374  0.09892  0  3.920941  0
C  C105  1  0.16697955  0.23910964  0.74779129  1  0.552599  0  0.055377  0.098991  0  3.920671  0
C  C106  1  0.66698628  0.74779411  0.23910344  1  0.553355  0  0.055412  0.099036  0  3.920994  0
C  C107  1  0.83300994  0.76089746  0.25220384  1  0.553401  0  0.055496  0.099181  0  3.920772  0
C  C108  1  0.93490888  0.53314863  0.21396029  1  1.553365  0  0.209333  0.581445  0  4.190284  0
C  C109  1  0.56508214  0.78603269  0.46686003  1  1.55377  0  0.209287  0.581426  0  4.190222  0
C  C110  1  0.06508586  0.46685501  0.78603377  1  1.55344  0  0.20937  0.5816  0  4.190044  0
C  C111  1  0.43492019  0.21396406  0.53314112  1  1.553668  0  0.209371  0.581611  0  4.190145  0
C  C112  1  0.25910990  0.36077518  0.91080280  1  -0.041685  0  0.016073  0.102879  0  3.983222  0
C  C113  1  0.24089046  0.08919877  0.63922462  1  -0.041811  0  0.016136  0.102986  0  3.983368  0
C  C114  1  0.74089792  0.63922500  0.08919692  1  -0.041948  0  0.016136  0.102942  0  3.983333  0
C  C115  1  0.75910277  0.91080430  0.36077382  1  -0.041941  0  0.016113  0.102904  0  3.983338  0
C  C116  1  0.31033032  0.30511345  0.86049245  1  -0.012044  0  0.018658  0.110766  0  3.976041  0
C  C117  1  0.18966786  0.13951269  0.69488340  1  -0.011996  0  0.0187  0.110744  0  3.976276  0
C  C118  1  0.68967719  0.69488615  0.13950418  1  -0.012087  0  0.018799  0.11093  0  3.976014  0
C  C119  1  0.81032311  0.86049498  0.30511182  1  -0.011757  0  0.018766  0.111016  0  3.976095  0
C  C120  1  0.61800106  0.19419403  0.54679503  1  1.558779  0  0.212873  0.593429  0  4.171859  0
C  C121  1  0.88199526  0.45320799  0.80580999  1  1.558861  0  0.212895  0.593512  0  4.171801  0
C  C122  1  0.38199487  0.80580618  0.45320971  1  1.558845  0  0.212719  0.593271  0  4.171865  0
C  C123  1  0.11799364  0.54679282  0.19419975  1  1.558819  0  0.212843  0.593623  0  4.171175  0
C  C124  1  0.11764619  0.69285457  0.00380885  1  1.555848  0  0.21008  0.589223  0  4.172955  0
C  C125  1  0.38235635  0.99618546  0.30714586  1  1.555852  0  0.210099  0.589311  0  4.172773  0
C  C126  1  0.88234915  0.30714735  0.99619005  1  1.556101  0  0.210109  0.589469  0  4.172642  0
C  C127  1  0.61764803  0.00381186  0.69285511  1  1.555378  0  0.210025  0.589288  0  4.172789  0
C  C128  1  0.40391311  0.96332339  0.70258349  1  -0.039982  0  -0.024118  -0.037469  0  3.986447  0
C  C129  1  0.09609314  0.29742330  0.03667349  1  -0.040213  0  -0.024092  -0.037426  0  3.986213  0
C  C130  1  0.59608710  0.03666991  0.29742049  1  -0.040177  0  -0.024015  -0.037298  0  3.986119  0
C  C131  1  0.90391648  0.70257974  0.96332130  1  -0.040136  0  -0.024078  -0.037378  0  3.986364  0
C  C132  1  0.44479970  0.02111053  0.66523601  1  1.572498  0  0.208865  0.582295  0  4.186039  0
C  C133  1  0.05520147  0.33477046  0.97888762  1  1.573108  0  0.208806  0.582237  0  4.186254  0
C  C134  1  0.55520488  0.97888332  0.33476029  1  1.572595  0  0.208993  0.582413  0  4.185964  0
C  C135  1  0.94479750  0.66523835  0.02111034  1  1.572524  0  0.208999  0.582477  0  4.185839  0
C  C136  1  0.65843354  0.25243299  0.50952374  1  -0.012091  0  -0.020473  -0.031647  0  3.974782  0
C  C137  1  0.84156747  0.49047639  0.74756939  1  -0.011861  0  -0.020552  -0.031803  0  3.975118  0
C  C138  1  0.34156070  0.74757182  0.49047700  1  -0.012384  0  -0.02051  -0.031685  0  3.974998  0
C  C139  1  0.15842820  0.50952151  0.25243439  1  -0.011849  0  -0.020542  -0.031692  0  3.974722  0
C  C140  1  0.34054275  0.96827077  0.77423195  1  -0.070495  0  -0.089928  -0.157128  0  3.979918  0
C  C141  1  0.15946478  0.22577677  0.03172248  1  -0.070167  0  -0.090046  -0.157078  0  3.979738  0
C  C142  1  0.65946248  0.03171965  0.22577280  1  -0.070522  0  -0.09002  -0.157201  0  3.979686  0
C  C143  1  0.84054574  0.77422685  0.96827216  1  -0.07021  0  -0.08996  -0.157161  0  3.979807  0
C  C144  1  0.30341099  0.91421116  0.80886440  1  0.009652  0  -0.011324  0.075433  0  3.967591  0
C  C145  1  0.19660024  0.19113884  0.08578272  1  0.009233  0  -0.01127  0.075534  0  3.967307  0
C  C146  1  0.69659622  0.08578155  0.19113755  1  0.009616  0  -0.011359  0.075442  0  3.967551  0
C  C147  1  0.80340989  0.80886133  0.91421198  1  0.009504  0  -0.011364  0.075436  0  3.967547  0
C  C148  1  0.87881299  0.49182325  0.27451337  1  -0.052053  0  -0.026265  -0.044552  0  3.999777  0
C  C149  1  0.62117639  0.72548323  0.50818515  1  -0.051263  0  -0.026345  -0.044713  0  3.999763  0
C  C150  1  0.12118572  0.50817578  0.72548213  1  -0.051623  0  -0.026388  -0.044732  0  3.999814  0
C  C151  1  0.37881998  0.27451583  0.49181884  1  -0.051278  0  -0.026298  -0.044662  0  3.999629  0
C  C152  1  0.19976868  0.42913358  0.88976820  1  -0.01049  0  -0.074263  -0.158848  0  3.914576  0
C  C153  1  0.30023275  0.11023276  0.57086633  1  -0.010474  0  -0.074295  -0.158903  0  3.914788  0
C  C154  1  0.80023604  0.57086431  0.11023337  1  -0.010465  0  -0.074272  -0.158756  0  3.914844  0
C  C155  1  0.69976613  0.88976571  0.42913327  1  -0.010434  0  -0.074306  -0.158875  0  3.914701  0
C  C156  1  0.75803701  0.30343936  0.40373505  1  0.020458  0  -0.00759  0.080439  0  3.948831  0
C  C157  1  0.74196524  0.59626389  0.69656216  1  0.020718  0  -0.00766  0.080309  0  3.948966  0
C  C158  1  0.24195925  0.69656314  0.59626320  1  0.020833  0  -0.007644  0.080354  0  3.948844  0
C  C159  1  0.25803717  0.40373572  0.30343634  1  0.020595  0  -0.007595  0.080348  0  3.948788  0
C  C160  1  0.21488891  0.40137321  0.02652880  1  0.473038  0  0.061252  0.107997  0  3.92931  0
C  C161  1  0.28511159  0.97347028  0.59862885  1  0.473189  0  0.061186  0.107818  0  3.92937  0
C  C162  1  0.78511815  0.59862755  0.97346907  1  0.472996  0  0.061233  0.107875  0  3.929478  0
C  C163  1  0.71488571  0.02652934  0.40137301  1  0.472883  0  0.061208  0.107921  0  3.929369  0
C  C164  1  0.77321465  0.41661189  0.38825186  1  -0.050831  0  -0.008081  0.025021  0  4.000317  0
C  C165  1  0.72678294  0.61174607  0.58339377  1  -0.050859  0  -0.008039  0.024884  0  4.000318  0
C  C166  1  0.22678584  0.58338830  0.61174780  1  -0.051297  0  -0.008025  0.025135  0  4.00034  0
C  C167  1  0.27321675  0.38825011  0.41661130  1  -0.050862  0  -0.008061  0.025009  0  4.000266  0
C  C168  1  0.72379218  0.24696455  0.43914466  1  -0.095867  0  -0.087462  -0.154664  0  3.970441  0
C  C169  1  0.77620765  0.56085660  0.75303598  1  -0.095926  0  -0.087384  -0.154602  0  3.970517  0
C  C170  1  0.27620102  0.75303853  0.56085577  1  -0.096204  0  -0.087435  -0.154707  0  3.970664  0
C  C171  1  0.22379070  0.43914475  0.24696520  1  -0.095813  0  -0.087421  -0.154633  0  3.970456  0
C  C172  1  0.22374822  0.83667287  0.88911146  1  -0.027632  0  -0.011989  0.074141  0  3.963373  0
C  C173  1  0.27625558  0.11088715  0.16332625  1  -0.027877  0  -0.011955  0.074153  0  3.963304  0
C  C174  1  0.77624765  0.16332617  0.11088536  1  -0.027365  0  -0.012005  0.074098  0  3.963338  0
C  C175  1  0.72374885  0.88911304  0.83667455  1  -0.027568  0  -0.011965  0.074159  0  3.96338  0
C  C176  1  0.17343215  0.73315457  0.94026222  1  0.018872  0  -0.019845  -0.027212  0  3.973216  0
C  C177  1  0.32656886  0.05973464  0.26684422  1  0.018892  0  -0.019913  -0.027467  0  3.973351  0
C  C178  1  0.82656078  0.26684792  0.05973066  1  0.018448  0  -0.019959  -0.027646  0  3.973481  0
C  C179  1  0.67343337  0.94026842  0.73315597  1  0.018545  0  -0.019942  -0.027547  0  3.973435  0
C  C180  1  0.17007789  0.80116847  0.94695535  1  0.005011  0  -0.089344  -0.156371  0  3.978316  0
C  C181  1  0.32992586  0.05304280  0.19882847  1  0.005414  0  -0.089379  -0.156295  0  3.978397  0
C  C182  1  0.82991544  0.19883287  0.05304076  1  0.005509  0  -0.089377  -0.156331  0  3.978401  0
C  C183  1  0.67008042  0.94695853  0.80116953  1  0.005266  0  -0.089349  -0.156269  0  3.97831  0
C  C184  1  0.83321252  0.38522471  0.32346289  1  -0.020402  0  -0.006535  0.085759  0  3.942244  0
C  C185  1  0.66678711  0.67653187  0.61478038  1  -0.019935  0  -0.006464  0.086645  0  3.941347  0
C  C186  1  0.16678829  0.61477317  0.67653456  1  -0.007346  0  -0.006618  0.085639  0  3.942394  0
C  C187  1  0.33321471  0.32346316  0.38522365  1  -0.0203  0  -0.00655  0.085791  0  3.942388  0
C  C188  1  0.88647251  0.42203456  0.26730289  1  -0.014447  0  -0.088722  -0.15887  0  3.964079  0
C  C189  1  0.61352265  0.73269149  0.57797271  1  -0.014389  0  -0.088757  -0.15926  0  3.963877  0
C  C190  1  0.11352618  0.57796448  0.73269410  1  -0.027466  0  -0.088564  -0.158704  0  3.964001  0
C  C191  1  0.38647593  0.26730469  0.42203041  1  -0.014305  0  -0.088726  -0.158874  0  3.964006  0
C  C192  1  0.72727100  0.36572262  0.43820785  1  -0.05483  0  -0.009865  0.021341  0  4.007986  0
C  C193  1  0.77273091  0.56178987  0.63427820  1  -0.054816  0  -0.009856  0.021332  0  4.007994  0
C  C194  1  0.27272703  0.63427815  0.56179124  1  -0.054596  0  -0.009862  0.021326  0  4.008003  0
C  C195  1  0.22727036  0.43820975  0.36572182  1  -0.054936  0  -0.009883  0.021392  0  4.008028  0
C  C196  1  0.32997795  0.85360136  0.77357582  1  -0.101816  0  -0.011643  0.017225  0  4.005661  0
C  C197  1  0.17003225  0.22642739  0.14639240  1  -0.102082  0  -0.011642  0.017159  0  4.005581  0
C  C198  1  0.67002899  0.14638905  0.22642716  1  -0.102014  0  -0.011667  0.017136  0  4.005753  0
C  C199  1  0.82997314  0.77357336  0.85360378  1  -0.101947  0  -0.011684  0.017137  0  4.005493  0
C  C200  1  0.66283196  0.37081871  0.50878012  1  -0.018594  0  -0.093186  -0.130991  0  4.017121  0
C  C201  1  0.83717056  0.49121912  0.62918479  1  -0.0186  0  -0.093128  -0.130821  0  4.016958  0
C  C202  1  0.33716456  0.62918608  0.49121859  1  -0.018748  0  -0.093132  -0.130891  0  4.017131  0
C  C203  1  0.16283337  0.50877934  0.37081790  1  -0.0185  0  -0.093203  -0.130993  0  4.017264  0
C  C204  1  0.42917600  0.90405344  0.66699261  1  -0.021146  0  -0.088439  -0.102221  0  3.993589  0
C  C205  1  0.07083684  0.33301651  0.09594004  1  -0.020587  0  -0.088458  -0.10233  0  3.993681  0
C  C206  1  0.57082924  0.09593698  0.33301215  1  -0.020908  0  -0.088467  -0.102329  0  3.993462  0
C  C207  1  0.92917389  0.66698653  0.90405622  1  -0.020761  0  -0.088436  -0.102234  0  3.993566  0
C  C208  1  0.62879436  0.31397511  0.54396245  1  -0.047305  0  -0.08795  -0.098715  0  3.994497  0
C  C209  1  0.87120821  0.45603660  0.68603126  1  -0.048367  0  -0.088021  -0.09878  0  3.994783  0
C  C210  1  0.37120252  0.68603026  0.45603586  1  -0.047241  0  -0.087977  -0.098796  0  3.994683  0
C  C211  1  0.12878947  0.54396189  0.31397581  1  -0.047543  0  -0.087939  -0.098776  0  3.994505  0
C  C212  1  0.23403485  0.90786215  0.88408213  1  -0.021552  0  -0.149513  -0.244245  0  4.000238  0
C  C213  1  0.26597113  0.11591867  0.09213309  1  -0.02147  0  -0.149559  -0.244278  0  4.000242  0
C  C214  1  0.76596610  0.09213230  0.11591809  1  -0.021837  0  -0.149422  -0.244094  0  4.000192  0
C  C215  1  0.73403623  0.88407979  0.90786407  1  -0.021889  0  -0.149501  -0.244236  0  4.000366  0
C  C216  1  0.26688114  0.34781056  0.98057607  1  -0.021165  0  -0.076582  -0.172201  0  3.951984  0
C  C217  1  0.23311937  0.01942595  0.65219052  1  -0.021089  0  -0.076611  -0.172291  0  3.952083  0
C  C218  1  0.73312950  0.65218962  0.01942382  1  -0.021302  0  -0.076652  -0.172277  0  3.951941  0
C  C219  1  0.76687491  0.98057426  0.34781053  1  -0.021328  0  -0.076584  -0.172213  0  3.952047  0
C  C220  1  0.28194141  0.30184871  0.81088328  1  -0.077259  0  -0.072405  -0.15994  0  3.909102  0
C  C221  1  0.21805484  0.18912560  0.69814576  1  -0.076782  0  -0.072435  -0.160021  0  3.909093  0
C  C222  1  0.71806338  0.69815205  0.18911613  1  -0.07712  0  -0.072368  -0.159937  0  3.909072  0
C  C223  1  0.78193556  0.81088667  0.30184594  1  -0.077462  0  -0.072373  -0.16001  0  3.909189  0
C  C224  1  0.76556672  0.48595324  0.39575337  1  -0.037349  0  -0.095308  -0.134774  0  4.009145  0
C  C225  1  0.73442703  0.60424436  0.51405256  1  -0.037454  0  -0.095266  -0.134979  0  4.009304  0
C  C226  1  0.23443598  0.51404407  0.60424590  1  -0.037082  0  -0.095467  -0.135011  0  4.00911  0
C  C227  1  0.26556883  0.39575298  0.48595432  1  -0.037121  0  -0.09534  -0.134906  0  4.009064  0
C  C228  1  0.28356407  0.73800928  0.81625066  1  -0.01871  0  -0.094674  -0.13503  0  4.018724  0
C  C229  1  0.21644165  0.18374807  0.26198750  1  -0.018351  0  -0.094644  -0.134922  0  4.018864  0
C  C230  1  0.71643724  0.26198573  0.18374769  1  -0.018838  0  -0.094727  -0.135128  0  4.018895  0
C  C231  1  0.78355666  0.81625040  0.73801336  1  -0.018597  0  -0.094637  -0.134922  0  4.018807  0
C  C232  1  0.28081888  0.80535368  0.82353281  1  -0.066806  0  -0.012649  0.018749  0  4.005583  0
C  C233  1  0.21918754  0.17646682  0.19464378  1  -0.066798  0  -0.01262  0.018789  0  4.005673  0
C  C234  1  0.71918085  0.19464249  0.17646780  1  -0.067026  0  -0.012555  0.018936  0  4.005824  0
C  C235  1  0.78081544  0.82353279  0.80535446  1  -0.066885  0  -0.012632  0.018737  0  4.005645  0
C  C236  1  0.81813630  0.52339109  0.33836400  1  -0.052261  0  -0.092783  -0.10873  0  4.007643  0
C  C237  1  0.68185423  0.66163222  0.47661714  1  -0.053542  0  -0.092759  -0.108471  0  4.007599  0
C  C238  1  0.18186407  0.47660795  0.66163369  1  -0.05284  0  -0.092732  -0.108606  0  4.007604  0
C  C239  1  0.31814251  0.33836281  0.52338777  1  -0.0537  0  -0.092768  -0.108592  0  4.007571  0
C  C240  1  0.39328538  0.84845924  0.70224404  1  -0.031104  0  -0.093004  -0.135846  0  4.003254  0
C  C241  1  0.10672780  0.29776200  0.15153366  1  -0.031028  0  -0.093121  -0.135964  0  4.003714  0
C  C242  1  0.60671986  0.15153118  0.29776071  1  -0.030453  0  -0.093045  -0.135876  0  4.003342  0
C  C243  1  0.89328161  0.70223702  0.84846331  1  -0.031167  0  -0.093022  -0.135887  0  4.003505  0
C  C244  1  0.22996037  0.70220651  0.87497959  1  -0.078641  0  -0.088426  -0.099986  0  4.002848  0
C  C245  1  0.27004276  0.12501547  0.29779259  1  -0.073165  0  -0.088423  -0.099955  0  4.002817  0
C  C246  1  0.77003452  0.29779368  0.12501526  1  -0.073421  0  -0.088381  -0.099807  0  4.002685  0
C  C247  1  0.72995737  0.87498415  0.70220845  1  -0.073061  0  -0.08842  -0.099982  0  4.002721  0
C  C248  1  0.43561196  0.20585324  0.80800984  1  0.429393  0  0.058912  0.100968  0  3.930276  0
C  C249  1  0.06438689  0.19199323  0.79414533  1  0.429031  0  0.058837  0.10084  0  3.930199  0
C  C250  1  0.56439673  0.79414923  0.19198560  1  0.429522  0  0.058802  0.100698  0  3.930447  0
C  C251  1  0.93560223  0.80801330  0.20585168  1  0.429604  0  0.058792  0.100719  0  3.930369  0
C  C252  1  0.14969984  0.47947195  0.93904920  1  0.503976  0  0.062511  0.119497  0  3.894201  0
C  C253  1  0.35029814  0.06095077  0.52053142  1  0.503887  0  0.062478  0.119424  0  3.894272  0
C  C254  1  0.85030083  0.52052768  0.06095406  1  0.504058  0  0.062499  0.119413  0  3.894523  0
C  C255  1  0.64970171  0.93904655  0.47947065  1  0.504045  0  0.062491  0.119377  0  3.894204  0
C  C256  1  0.38875615  0.25486929  0.85898291  1  0.045889  0  -0.077854  -0.177096  0  3.950098  0
C  C257  1  0.11124238  0.14102282  0.74512729  1  0.045857  0  -0.077785  -0.176945  0  3.95017  0
C  C258  1  0.61125276  0.74513261  0.14101266  1  0.045677  0  -0.077886  -0.177085  0  3.950277  0
C  C259  1  0.88874555  0.85898543  0.25486811  1  0.045482  0  -0.077817  -0.177068  0  3.950365  0
C  C260  1  0.82722089  0.31164663  0.32855250  1  -0.021536  0  -0.14622  -0.245869  0  3.98219  0
C  C261  1  0.67277731  0.67144765  0.68835670  1  -0.021547  0  -0.146191  -0.246011  0  3.981928  0
C  C262  1  0.17277608  0.68835242  0.67144826  1  -0.02199  0  -0.146158  -0.245766  0  3.982115  0
C  C263  1  0.32722267  0.32855083  0.31164585  1  -0.021611  0  -0.146167  -0.245859  0  3.982068  0
N  N264  1  0.15676492  0.46564422  0.00651272  1  -1.253277  0  -0.320843  -0.203775  0  3.520322  0
N  N265  1  0.34323393  0.99348427  0.53436145  1  -1.253424  0  -0.320735  -0.20353  0  3.520223  0
N  N266  1  0.84323562  0.53435884  0.99348727  1  -1.252994  0  -0.320754  -0.203571  0  3.520615  0
N  N267  1  0.65676569  0.00651364  0.46564248  1  -1.252912  0  -0.320745  -0.203591  0  3.520327  0
N  N268  1  0.40853464  0.20515890  0.75901499  1  -1.240001  0  -0.317594  -0.194451  0  3.512346  0
N  N269  1  0.09146259  0.24099011  0.79484131  1  -1.239824  0  -0.317522  -0.194406  0  3.512167  0
N  N270  1  0.59147001  0.79484071  0.24098494  1  -1.239865  0  -0.317608  -0.194441  0  3.512562  0
N  N271  1  0.90852630  0.75901700  0.20515706  1  -1.240269  0  -0.317705  -0.19462  0  3.512433  0
O  O272  1  0.49312500  0.02225929  0.59567293  1  -1.18043  0  -0.316515  -0.550733  0  2.348102  0
O  O273  1  0.00687604  0.40433000  0.97774270  1  -1.180476  0  -0.316416  -0.550671  0  2.348387  0
O  O274  1  0.50687686  0.97773113  0.40433043  1  -1.180407  0  -0.316601  -0.550863  0  2.347916  0
O  O275  1  0.99311803  0.59566448  0.02226910  1  -1.180211  0  -0.316573  -0.550942  0  2.34785  0
O  O276  1  0.06507671  0.72538830  0.05999456  1  -1.167829  0  -0.323751  -0.553086  0  2.305293  0
O  O277  1  0.43492938  0.94000483  0.27460770  1  -1.167664  0  -0.323774  -0.553123  0  2.305551  0
O  O278  1  0.93493116  0.27460269  0.94000677  1  -1.167904  0  -0.323885  -0.553229  0  2.305051  0
O  O279  1  0.56506474  0.05999711  0.72540015  1  -1.167345  0  -0.323816  -0.55316  0  2.305221  0
O  O280  1  0.55744355  0.20390152  0.60927379  1  -1.171913  0  -0.319845  -0.552649  0  2.343307  0
O  O281  1  0.94255124  0.39072692  0.79610917  1  -1.171959  0  -0.319863  -0.552717  0  2.343497  0
O  O282  1  0.44255501  0.79610044  0.39074187  1  -1.171892  0  -0.319738  -0.552521  0  2.343664  0
O  O283  1  0.05743012  0.60926068  0.20390925  1  -1.172118  0  -0.319797  -0.552711  0  2.343353  0
O  O284  1  0.00051772  0.49462476  0.16870484  1  -1.160632  0  -0.313985  -0.537372  0  2.314597  0
O  O285  1  0.49947341  0.83129077  0.50538253  1  -1.160683  0  -0.313889  -0.537189  0  2.314512  0
O  O286  1  0.99948710  0.50537140  0.83129538  1  -1.160659  0  -0.313896  -0.537279  0  2.314784  0
O  O287  1  0.50051787  0.16870370  0.49462563  1  -1.160724  0  -0.313922  -0.537318  0  2.314845  0
O  O288  1  0.64589759  0.14011236  0.51286759  1  -1.169799  0  -0.322222  -0.552743  0  2.317005  0
O  O289  1  0.85409872  0.48713893  0.85989050  1  -1.169633  0  -0.322227  -0.552776  0  2.316846  0
O  O290  1  0.35408755  0.85989707  0.48713902  1  -1.16972  0  -0.322189  -0.552743  0  2.316535  0
O  O291  1  0.14590510  0.51286757  0.14010316  1  -1.16981  0  -0.322253  -0.552875  0  2.316258  0
O  O292  1  0.91198370  0.60425555  0.21203820  1  -1.184657  0  -0.318343  -0.564697  0  2.355958  0
O  O293  1  0.58800962  0.78795279  0.39575207  1  -1.184783  0  -0.318402  -0.564806  0  2.355857  0
O  O294  1  0.08800713  0.39574520  0.78794646  1  -1.184591  0  -0.318433  -0.564893  0  2.355638  0
O  O295  1  0.41199798  0.21205545  0.60424951  1  -1.184645  0  -0.318457  -0.564907  0  2.355665  0
O  O296  1  0.12701727  0.62878774  0.99705285  1  -1.174894  0  -0.318534  -0.555441  0  2.341982  0
O  O297  1  0.37297562  0.00294098  0.37121665  1  -1.175001  0  -0.318499  -0.555429  0  2.34177  0
O  O298  1  0.87297631  0.37121302  0.00293992  1  -1.175005  0  -0.318444  -0.555463  0  2.342137  0
O  O299  1  0.62702325  0.99706497  0.62878643  1  -1.17488  0  -0.318399  -0.55536  0  2.342097  0
O  O300  1  0.42815279  0.06475827  0.70653239  1  -1.168542  0  -0.322152  -0.550269  0  2.332285  0
O  O301  1  0.07184441  0.29346958  0.93524925  1  -1.168996  0  -0.322135  -0.550182  0  2.33229  0
O  O302  1  0.57184354  0.93524709  0.29346321  1  -1.16882  0  -0.322174  -0.550254  0  2.332459  0
O  O303  1  0.92816317  0.70653748  0.06474244  1  -1.168619  0  -0.322189  -0.550264  0  2.332564  0
