# generated using pymatgen
data_H10PbC12Br2N4O
_symmetry_space_group_name_H-M   'P 1'
_cell_length_a   7.37600029
_cell_length_b   10.26304745
_cell_length_c   10.82449365
_cell_angle_alpha   92.06535529
_cell_angle_beta   100.97824713
_cell_angle_gamma   103.60197811
_symmetry_Int_Tables_number   1
_chemical_formula_structural   H10PbC12Br2N4O
_chemical_formula_sum   'H20 Pb2 C24 Br4 N8 O2'
_cell_volume   779.04925080
_cell_formula_units_Z   2
loop_
 _symmetry_equiv_pos_site_id
 _symmetry_equiv_pos_as_xyz
  1  'x, y, z'
loop_
 _atom_site_type_symbol
 _atom_site_label
 _atom_site_symmetry_multiplicity
 _atom_site_fract_x
 _atom_site_fract_y
 _atom_site_fract_z
 _atom_site_occupancy
 _atom_site_hle17_bader_spin_density
 _atom_site_hle17_ddec_charge
 _atom_site_hle17_ddec_spin_density
 _atom_site_hle17_ddec_sum_bond_order
 _atom_site_hle17_magmom
 _atom_site_hse06_10hf_bader_spin_density
 _atom_site_hse06_10hf_ddec_charge
 _atom_site_hse06_10hf_ddec_spin_density
 _atom_site_hse06_10hf_ddec_sum_bond_order
 _atom_site_hse06_10hf_magmom
 _atom_site_hse06_bader_spin_density
 _atom_site_hse06_ddec_charge
 _atom_site_hse06_ddec_spin_density
 _atom_site_hse06_ddec_sum_bond_order
 _atom_site_hse06_magmom
 _atom_site_pbe_bader_spin_density
 _atom_site_pbe_cm5_charge
 _atom_site_pbe_ddec_charge
 _atom_site_pbe_ddec_spin_density
 _atom_site_pbe_ddec_sum_bond_order
 _atom_site_pbe_magmom
H  H0  1  0.17347028  0.60715627  0.05946938  1  0  0.097027  0  0.952396  0  0  0.108021  0  1.01146  0  0  0.111006  0  1.010296  0  0  0.101718  0.106422  0  1.011509  0
H  H1  1  0.82652185  0.39284200  0.94051415  1  0  0.097092  0  0.952345  0  0  0.108023  0  1.011475  0  0  0.111009  0  1.010312  0  0  0.10171  0.106456  0  1.011492  0
H  H2  1  0.39668288  0.80144560  0.19890806  1  0  0.073787  0  0.958467  0  0  0.077983  0  1.03028  0  0  0.081499  0  1.026677  0  0  0.101467  0.076207  0  1.031752  0
H  H3  1  0.60330830  0.19853233  0.80109869  1  0  0.07373  0  0.958435  0  0  0.077939  0  1.030249  0  0  0.081459  0  1.026652  0  0  0.101456  0.07616  0  1.031726  0
H  H4  1  0.73637414  0.82628469  0.03798604  1  0  0.114391  0  0.978275  0  0  0.120767  0  1.045679  0  0  0.124605  0  1.043799  0  0  0.093619  0.118567  0  1.045839  0
H  H5  1  0.26362025  0.17370883  0.96204828  1  0  0.114235  0  0.978621  0  0  0.120652  0  1.045957  0  0  0.124494  0  1.04408  0  0  0.093581  0.118453  0  1.046115  0
H  H6  1  0.83064856  0.61842831  0.98103572  1  0  0.092563  0  0.933771  0  0  0.104247  0  0.991191  0  0  0.10724  0  0.988669  0  0  0.105613  0.102384  0  0.992487  0
H  H7  1  0.16933766  0.38156941  0.01897288  1  0  0.092574  0  0.933695  0  0  0.104263  0  0.991117  0  0  0.107262  0  0.988593  0  0  0.105621  0.102398  0  0.992413  0
H  H8  1  0.82333234  0.44383312  0.26428996  1  0  0.091768  0  0.995101  0  0  0.099602  0  1.062653  0  0  0.103366  0  1.058904  0  0  0.091361  0.097041  0  1.065303  0
H  H9  1  0.17666867  0.55617216  0.73571658  1  0  0.091833  0  0.995028  0  0  0.099625  0  1.062647  0  0  0.103392  0  1.05889  0  0  0.091392  0.097064  0  1.065298  0
H  H10  1  0.40787738  0.57975474  0.46928953  1  0  0.093441  0  0.966938  0  0  0.097842  0  1.036872  0  0  0.101985  0  1.031965  0  0  0.117173  0.095335  0  1.03934  0
H  H11  1  0.59213363  0.42025131  0.53070822  1  0  0.093362  0  0.966832  0  0  0.097786  0  1.036771  0  0  0.101937  0  1.031846  0  0  0.117124  0.095276  0  1.039251  0
H  H12  1  0.04714451  0.83441510  0.46949334  1  0  0.077949  0  0.968622  0  0  0.077573  0  1.051157  0  0  0.081289  0  1.046872  0  0  0.094293  0.074997  0  1.05405  0
H  H13  1  0.95286264  0.16558356  0.53052736  1  0  0.078032  0  0.968461  0  0  0.077668  0  1.050967  0  0  0.081378  0  1.046681  0  0  0.094366  0.075092  0  1.053859  0
H  H14  1  0.77652419  0.66647216  0.33359077  1  0  0.112383  0  0.940749  0  0  0.121854  0  0.997797  0  0  0.125714  0  0.996453  0  0  0.102657  0.119434  0  0.99841  0
H  H15  1  0.22348415  0.33353906  0.66642092  1  0  0.112425  0  0.94065  0  0  0.121914  0  0.997692  0  0  0.125772  0  0.996351  0  0  0.102692  0.119497  0  0.998299  0
H  H16  1  0.81609715  0.05178473  0.13994059  1  0  0.095251  0  0.945565  0  0  0.101553  0  1.015122  0  0  0.105615  0  1.010054  0  0  0.111066  0.098585  0  1.018963  0
H  H17  1  0.18393021  0.94822928  0.86004886  1  0  0.095324  0  0.94555  0  0  0.101636  0  1.015109  0  0  0.10569  0  1.010055  0  0  0.111078  0.09867  0  1.01896  0
H  H18  1  0.89912266  0.26712449  0.23167859  1  0  0.266283  0  0.954582  0  0  0.244051  0  1.033186  0  0  0.252436  0  1.027381  0  0  0.285289  0.23801  0  1.037152  0
H  H19  1  0.10088989  0.73287761  0.76831905  1  0  0.2664  0  0.954421  0  0  0.24411  0  1.033097  0  0  0.2525  0  1.027291  0  0  0.285271  0.238062  0  1.037067  0
Pb  Pb20  1  0.44275816  0.12206251  0.35582826  1  0  1.051597  0  1.696326  0  0  0.848802  0  2.146546  0  0  0.909648  0  2.103731  0  0  0.459106  0.806365  0  2.175222  0
Pb  Pb21  1  0.55725741  0.87794317  0.64410624  1  0  1.05158  0  1.696603  0  0  0.848771  0  2.146854  0  0  0.909636  0  2.103998  0  0  0.459055  0.806331  0  2.17554  0
C  C22  1  0.01704758  0.92250021  0.14819692  1  0  0.198675  0  3.802528  0  0  0.200093  0  4.047828  0  0  0.204595  0  4.069875  0  0  0.114933  0.197101  0  4.033634  0
C  C23  1  0.98295510  0.07749272  0.85181625  1  0  0.198733  0  3.802609  0  0  0.200224  0  4.04779  0  0  0.20473  0  4.069837  0  0  0.114953  0.197241  0  4.033595  0
C  C24  1  0.12245186  0.69390779  0.08421619  1  0  -0.108567  0  3.72814  0  0  -0.125556  0  3.986837  0  0  -0.13094  0  4.007596  0  0  -0.086926  -0.121601  0  3.973886  0
C  C25  1  0.87754070  0.30608778  0.91578013  1  0  -0.108735  0  3.728116  0  0  -0.125672  0  3.986827  0  0  -0.131057  0  4.007591  0  0  -0.086979  -0.121747  0  3.973865  0
C  C26  1  0.24891441  0.80299852  0.16094427  1  0  0.143903  0  3.71657  0  0  0.113011  0  3.973609  0  0  0.119649  0  3.991305  0  0  0.049949  0.107435  0  3.963523  0
C  C27  1  0.75108104  0.19698867  0.83906008  1  0  0.144075  0  3.716733  0  0  0.113173  0  3.973734  0  0  0.119802  0  3.991437  0  0  0.050095  0.107597  0  3.963657  0
C  C28  1  0.88117442  0.81678606  0.07280391  1  0  -0.134181  0  3.679008  0  0  -0.156041  0  3.928527  0  0  -0.162423  0  3.949398  0  0  -0.080844  -0.151684  0  3.914023  0
C  C29  1  0.11882173  0.18320832  0.92721592  1  0  -0.134047  0  3.679152  0  0  -0.155931  0  3.928614  0  0  -0.162318  0  3.949492  0  0  -0.080794  -0.151573  0  3.914102  0
C  C30  1  0.93508465  0.70083099  0.04056926  1  0  -0.006195  0  3.72819  0  0  -0.026101  0  3.98613  0  0  -0.023083  0  4.004259  0  0  -0.071314  -0.028124  0  3.973899  0
C  C31  1  0.06490656  0.29916495  0.95943801  1  0  -0.00617  0  3.728025  0  0  -0.02609  0  3.985947  0  0  -0.02308  0  4.004082  0  0  -0.071336  -0.028113  0  3.973723  0
C  C32  1  0.96317462  0.04655152  0.17699278  1  0  0.049771  0  3.646235  0  0  0.008046  0  3.912679  0  0  0.01683  0  3.923052  0  0  0.069572  0.000871  0  3.907253  0
C  C33  1  0.03684331  0.95345029  0.82301295  1  0  0.049591  0  3.646203  0  0  0.007834  0  3.912645  0  0  0.016619  0  3.923021  0  0  0.06946  0.000639  0  3.907244  0
C  C34  1  0.17742748  0.36782429  0.33237645  1  0  0.521648  0  3.82297  0  0  0.470344  0  4.107988  0  0  0.501126  0  4.109567  0  0  0.249745  0.447813  0  4.108663  0
C  C35  1  0.82258275  0.63217939  0.66762748  1  0  0.521502  0  3.82301  0  0  0.470137  0  4.108088  0  0  0.500923  0  4.109666  0  0  0.249638  0.447601  0  4.108765  0
C  C36  1  0.12306126  0.49464841  0.36066981  1  0  -0.119958  0  3.772806  0  0  -0.093119  0  4.008034  0  0  -0.105958  0  4.03341  0  0  -0.015748  -0.08491  0  3.991884  0
C  C37  1  0.87693910  0.50535045  0.63934353  1  0  -0.119952  0  3.772722  0  0  -0.093101  0  4.00798  0  0  -0.105948  0  4.033356  0  0  -0.015727  -0.084888  0  3.991833  0
C  C38  1  0.94231000  0.51896061  0.32234187  1  0  -0.020244  0  3.688983  0  0  -0.046863  0  3.93132  0  0  -0.041785  0  3.949606  0  0  -0.067878  -0.050711  0  3.920462  0
C  C39  1  0.05768989  0.48104124  0.67767165  1  0  -0.02025  0  3.688995  0  0  -0.046839  0  3.931327  0  0  -0.041756  0  3.949608  0  0  -0.067824  -0.050691  0  3.920473  0
C  C40  1  0.26653111  0.59627516  0.43667897  1  0  0.123719  0  3.67849  0  0  0.084323  0  3.927538  0  0  0.093217  0  3.94416  0  0  0.054357  0.08106  0  3.914031  0
C  C41  1  0.73347354  0.40372406  0.56333034  1  0  0.123909  0  3.678064  0  0  0.084486  0  3.927125  0  0  0.093384  0  3.943746  0  0  0.054434  0.081219  0  3.91362  0
C  C42  1  0.06505616  0.73701386  0.43706915  1  0  0.138059  0  3.690536  0  0  0.100507  0  3.957452  0  0  0.109235  0  3.974745  0  0  0.045185  0.095736  0  3.94549  0
C  C43  1  0.93494724  0.26298597  0.56294652  1  0  0.137956  0  3.690524  0  0  0.100456  0  3.957407  0  0  0.109193  0  3.974688  0  0  0.045175  0.095684  0  3.945444  0
C  C44  1  0.91425467  0.64250854  0.36078895  1  0  -0.112753  0  3.708425  0  0  -0.120768  0  3.958443  0  0  -0.129592  0  3.980467  0  0  -0.085048  -0.115545  0  3.944571  0
C  C45  1  0.08574832  0.35749437  0.63922507  1  0  -0.112778  0  3.708432  0  0  -0.120849  0  3.958447  0  0  -0.129674  0  3.980469  0  0  -0.085113  -0.115626  0  3.94458  0
Br  Br46  1  0.29815572  0.07107185  0.60746417  1  0  -0.584951  0  0.883112  0  0  -0.511955  0  1.161867  0  0  -0.537659  0  1.143689  0  0  -0.239998  -0.49349  0  1.173022  0
Br  Br47  1  0.70173508  0.92884661  0.39242367  1  0  -0.585001  0  0.883338  0  0  -0.511951  0  1.161992  0  0  -0.537654  0  1.143812  0  0  -0.239991  -0.493487  0  1.173145  0
Br  Br48  1  0.58186288  0.23459900  0.13545302  1  0  -0.583291  0  0.86151  0  0  -0.523514  0  1.111784  0  0  -0.543493  0  1.092056  0  0  -0.264016  -0.5092  0  1.123839  0
Br  Br49  1  0.41814859  0.76548321  0.86449078  1  0  -0.583286  0  0.861629  0  0  -0.523462  0  1.111951  0  0  -0.543442  0  1.092213  0  0  -0.263945  -0.50915  0  1.124005  0
N  N50  1  0.08984770  0.14694976  0.24154541  1  0  -0.145113  0  3.212754  0  0  -0.099178  0  3.48116  0  0  -0.109511  0  3.501983  0  0  -0.192011  -0.092765  0  3.467961  0
N  N51  1  0.91016204  0.85304821  0.75847095  1  0  -0.14501  0  3.212564  0  0  -0.0991  0  3.480926  0  0  -0.109432  0  3.501749  0  0  -0.191945  -0.09268  0  3.467732  0
N  N52  1  0.03946346  0.26262312  0.26488693  1  0  -0.285413  0  3.414393  0  0  -0.231448  0  3.655335  0  0  -0.254084  0  3.672598  0  0  -0.27696  -0.214751  0  3.643262  0
N  N53  1  0.96054362  0.73737505  0.73512447  1  0  -0.285553  0  3.414256  0  0  -0.2315  0  3.655191  0  0  -0.254142  0  3.67245  0  0  -0.276997  -0.214795  0  3.643131  0
N  N54  1  0.23865580  0.71392906  0.47518160  1  0  -0.342268  0  3.186284  0  0  -0.273369  0  3.451699  0  0  -0.293934  0  3.473275  0  0  -0.305276  -0.259364  0  3.435329  0
N  N55  1  0.76134510  0.28606698  0.52482881  1  0  -0.342395  0  3.186039  0  0  -0.273534  0  3.451523  0  0  -0.294095  0  3.473087  0  0  -0.305339  -0.259528  0  3.435156  0
N  N56  1  0.19842186  0.91438789  0.19271721  1  0  -0.358181  0  3.160126  0  0  -0.291119  0  3.405084  0  0  -0.310127  0  3.427812  0  0  -0.293973  -0.277383  0  3.390226  0
N  N57  1  0.80157970  0.08560129  0.80729088  1  0  -0.358368  0  3.160375  0  0  -0.29134  0  3.40531  0  0  -0.31035  0  3.428046  0  0  -0.294113  -0.277603  0  3.390446  0
O  O58  1  0.34387880  0.35781363  0.37073101  1  0  -0.541001  0  2.026792  0  0  -0.479535  0  2.259181  0  0  -0.506424  0  2.254194  0  0  -0.26711  -0.463773  0  2.264106  0
O  O59  1  0.65613857  0.64219926  0.62925518  1  0  -0.540905  0  2.026767  0  0  -0.479383  0  2.259139  0  0  -0.506274  0  2.254152  0  0  -0.267002  -0.46362  0  2.264064  0
