# generated using pymatgen
data_CuH22C18(NO2)4
_symmetry_space_group_name_H-M   'P 1'
_cell_length_a   7.57647745
_cell_length_b   9.09322294
_cell_length_c   14.47647409
_cell_angle_alpha   93.15206786
_cell_angle_beta   90.00021281
_cell_angle_gamma   90.00001524
_symmetry_Int_Tables_number   1
_chemical_formula_structural   CuH22C18(NO2)4
_chemical_formula_sum   'Cu2 H44 C36 N8 O16'
_cell_volume   995.84199232
_cell_formula_units_Z   2
loop_
 _symmetry_equiv_pos_site_id
 _symmetry_equiv_pos_as_xyz
  1  'x, y, z'
loop_
 _atom_site_type_symbol
 _atom_site_label
 _atom_site_symmetry_multiplicity
 _atom_site_fract_x
 _atom_site_fract_y
 _atom_site_fract_z
 _atom_site_occupancy
 _atom_site_hle17_ddec_charge
 _atom_site_hle17_ddec_spin_density
 _atom_site_hle17_ddec_sum_bond_order
 _atom_site_hle17_magmom
 _atom_site_hse06_10hf_ddec_charge
 _atom_site_hse06_10hf_ddec_spin_density
 _atom_site_hse06_10hf_ddec_sum_bond_order
 _atom_site_hse06_10hf_magmom
 _atom_site_hse06_ddec_charge
 _atom_site_hse06_ddec_spin_density
 _atom_site_hse06_ddec_sum_bond_order
 _atom_site_hse06_magmom
 _atom_site_pbe_cm5_charge
 _atom_site_pbe_ddec_charge
 _atom_site_pbe_ddec_spin_density
 _atom_site_pbe_ddec_sum_bond_order
 _atom_site_pbe_magmom
Cu  Cu0  1  0.99999963  0.99999989  0.50000067  1  0.851718  0.678281  1.766299  0.496  0.830453  0.769034  2.142484  0.613  0.922048  0.836608  2.076845  0.699  0.743981  0.775225  0.722624  2.188391  0.559
Cu  Cu1  1  0.50000149  0.00000010  0.00000049  1  0.851746  0.678295  1.766284  0.496  0.830526  0.769035  2.142366  0.613  0.922069  0.836602  2.07675  0.699  0.744019  0.77533  0.722626  2.188231  0.559
H  H2  1  0.05719446  0.96779632  0.79368667  1  0.115742  0.000186  0.914212  0.0  0.132472  0.000157  0.970079  0.0  0.135324  0.000104  0.968339  0.0  0.107357  0.130486  0.000198  0.971254  0.0
H  H3  1  0.55719152  0.03220689  0.70631276  1  0.115838  0.000185  0.914284  0.0  0.132528  0.000157  0.970158  0.0  0.135378  0.000104  0.968417  0.0  0.10738  0.130541  0.000198  0.971332  0.0
H  H4  1  0.94280695  0.03221078  0.20631479  1  0.115824  0.000188  0.914274  0.0  0.132543  0.000157  0.970136  0.0  0.135395  0.000103  0.968398  0.0  0.107369  0.130551  0.000198  0.971311  0.0
H  H5  1  0.44280724  0.96778589  0.29368684  1  0.115742  0.000191  0.9143  0.0  0.132487  0.000157  0.970168  0.0  0.13534  0.000103  0.968432  0.0  0.107348  0.130496  0.000198  0.971345  0.0
H  H6  1  0.88805787  0.08305120  0.75768692  1  0.114898  -1.8e-05  0.91749  0.0  0.131176  -3e-05  0.975312  0.0  0.133169  -3e-05  0.974779  0.0  0.106787  0.129655  -3.3e-05  0.975903  0.0
H  H7  1  0.38806043  0.91694994  0.74231309  1  0.114854  -2.7e-05  0.91763  0.0  0.131139  -3e-05  0.975418  0.0  0.133129  -3e-05  0.97488  0.0  0.106765  0.12962  -3.3e-05  0.976009  0.0
H  H8  1  0.11194089  0.91695481  0.24231519  1  0.114879  -2.3e-05  0.917491  0.0  0.13114  -3e-05  0.975337  0.0  0.133135  -3e-05  0.974796  0.0  0.106744  0.129616  -3.3e-05  0.975927  0.0
H  H9  1  0.61193834  0.08304504  0.25768659  1  0.114869  -1.9e-05  0.917503  0.0  0.131144  -3e-05  0.975352  0.0  0.133142  -3.1e-05  0.974811  0.0  0.106752  0.129619  -3.3e-05  0.975943  0.0
H  H10  1  0.98744888  0.27399149  0.88812087  1  0.104572  0.000343  0.94148  0.001  0.117811  0.000463  1.003573  0.001  0.119486  0.000289  1.003856  0.0  0.101775  0.116634  0.000612  1.003411  0.001
H  H11  1  0.48744781  0.72601080  0.61188075  1  0.104607  0.000344  0.941461  0.001  0.117862  0.000463  1.003544  0.001  0.119539  0.000289  1.003827  0.0  0.101798  0.116688  0.000612  1.00338  0.001
H  H12  1  0.01255120  0.72601342  0.11188328  1  0.104618  0.000338  0.941471  0.001  0.11788  0.000463  1.003551  0.001  0.11956  0.000289  1.003834  0.0  0.101809  0.116705  0.000612  1.003385  0.001
H  H13  1  0.51254832  0.27398858  0.38811562  1  0.104577  0.000346  0.941489  0.001  0.117862  0.000463  1.003557  0.001  0.119545  0.000289  1.003834  0.0  0.101781  0.116678  0.000612  1.003401  0.001
H  H14  1  0.88165443  0.11492699  0.92192482  1  0.114102  -0.000384  0.955127  0.0  0.125629  -0.000141  1.019142  0.0  0.126866  -0.000195  1.020865  0.0  0.105188  0.124701  -3.7e-05  1.018116  0.0
H  H15  1  0.38164921  0.88507414  0.57807517  1  0.114067  -0.000392  0.955135  0.0  0.125586  -0.000141  1.019186  0.0  0.126823  -0.000195  1.02091  0.0  0.105166  0.124656  -3.7e-05  1.01816  0.0
H  H16  1  0.11834698  0.88507790  0.07807657  1  0.11408  -0.000401  0.955107  0.0  0.125608  -0.000141  1.01914  0.0  0.126846  -0.000195  1.020865  0.0  0.105169  0.124678  -3.6e-05  1.018115  0.0
H  H17  1  0.61834692  0.11492634  0.42192330  1  0.114057  -0.000385  0.955124  0.0  0.125609  -0.00014  1.019149  0.0  0.126848  -0.000195  1.020871  0.0  0.10518  0.124679  -3.6e-05  1.018124  0.0
H  H18  1  0.97610647  0.82237453  0.65537079  1  0.093514  0.001041  0.972014  0.002  0.097626  0.000837  1.043404  0.002  0.099504  0.000575  1.0424  0.001  0.1153  0.096098  0.001035  1.044426  0.002
H  H19  1  0.47611082  0.17762113  0.84462851  1  0.09349  0.001038  0.972072  0.002  0.097598  0.000837  1.043473  0.002  0.099477  0.000575  1.04247  0.001  0.115287  0.09607  0.001036  1.044497  0.002
H  H20  1  0.02389230  0.17762375  0.34462899  1  0.093432  0.001043  0.972079  0.002  0.097602  0.000837  1.043419  0.002  0.09948  0.000574  1.042415  0.001  0.11529  0.096071  0.001035  1.04444  0.002
H  H21  1  0.52389190  0.82238046  0.15537207  1  0.093459  0.001041  0.972071  0.002  0.097572  0.000837  1.043477  0.002  0.099451  0.000575  1.042473  0.001  0.115279  0.096043  0.001035  1.044496  0.002
H  H22  1  0.26555432  0.42084272  0.58784662  1  0.117427  0.000255  0.967503  0.001  0.125757  -4e-06  1.030581  0.0  0.129645  -5.7e-05  1.027473  0.0  0.105558  0.122681  7.6e-05  1.033502  0.0
H  H23  1  0.76555302  0.57915726  0.91215241  1  0.117424  0.000254  0.967466  0.001  0.125755  -4e-06  1.030549  0.0  0.129642  -5.7e-05  1.027443  0.0  0.105545  0.122684  7.6e-05  1.033458  0.0
H  H24  1  0.73444973  0.57915887  0.41215327  1  0.117371  0.000256  0.967454  0.001  0.125712  -4e-06  1.03054  0.0  0.1296  -5.7e-05  1.027429  0.0  0.105517  0.12264  7.6e-05  1.033453  0.0
H  H25  1  0.23445102  0.42084322  0.08784675  1  0.117411  0.000259  0.967469  0.001  0.125741  -4e-06  1.030546  0.0  0.129629  -5.7e-05  1.027436  0.0  0.105515  0.122664  7.6e-05  1.033461  0.0
H  H26  1  0.30526484  0.50862872  0.42961899  1  0.105568  0.000734  0.938699  0.001  0.118789  0.000592  0.991916  0.001  0.121459  0.000412  0.991199  0.0  0.10917  0.11686  0.000745  0.992568  0.001
H  H27  1  0.80526241  0.49137340  0.07038186  1  0.105515  0.000737  0.938724  0.001  0.118732  0.000592  0.991955  0.001  0.121402  0.000412  0.991237  0.0  0.109162  0.116801  0.000745  0.992607  0.001
H  H28  1  0.69473789  0.49137287  0.57038090  1  0.10557  0.000733  0.938732  0.001  0.118792  0.000592  0.991946  0.001  0.121456  0.000412  0.991244  0.0  0.109182  0.116865  0.000745  0.9926  0.001
H  H29  1  0.19474031  0.50862819  0.92961872  1  0.105575  0.000738  0.938704  0.001  0.118748  0.000592  0.991972  0.001  0.121413  0.000413  0.991273  0.0  0.109175  0.116821  0.000745  0.992626  0.001
H  H30  1  0.18668589  0.75599601  0.39176100  1  0.083817  0.000925  0.949752  0.002  0.090013  0.000767  1.019076  0.001  0.092583  0.000535  1.016328  0.001  0.112189  0.087983  0.000941  1.021014  0.002
H  H31  1  0.68668365  0.24400496  0.10823958  1  0.083804  0.00093  0.949794  0.002  0.090002  0.000767  1.019119  0.001  0.092579  0.000535  1.016364  0.001  0.112187  0.087972  0.000941  1.021056  0.002
H  H32  1  0.81331287  0.24400559  0.60824027  1  0.08381  0.000929  0.949757  0.002  0.090002  0.000767  1.019078  0.001  0.09258  0.000535  1.016322  0.001  0.112186  0.087976  0.000941  1.021018  0.002
H  H33  1  0.31331643  0.75599552  0.89176027  1  0.083814  0.000931  0.949763  0.002  0.090009  0.000767  1.019092  0.001  0.092579  0.000535  1.016344  0.001  0.112197  0.087983  0.000941  1.021035  0.002
H  H34  1  0.12391913  0.47260043  0.74164236  1  0.320946  0.000141  0.940233  0.0  0.305005  0.000144  1.005398  0.0  0.311292  0.000101  1.00087  0.0  0.291009  0.300653  0.000155  1.008393  0.0
H  H35  1  0.62392201  0.52740060  0.75835782  1  0.320899  0.000143  0.940253  0.0  0.304974  0.000144  1.005395  0.0  0.31126  0.000101  1.000869  0.0  0.291009  0.300624  0.000155  1.00839  0.0
H  H36  1  0.87608227  0.52740446  0.25835833  1  0.320955  0.000141  0.940161  0.0  0.305018  0.000144  1.005324  0.0  0.311304  0.000101  1.000799  0.0  0.291009  0.300666  0.000155  1.008319  0.0
H  H37  1  0.37608204  0.47259878  0.24164200  1  0.320879  0.000141  0.940306  0.0  0.304961  0.000144  1.00545  0.0  0.311247  0.000101  1.000924  0.0  0.291006  0.300609  0.000155  1.008443  0.0
H  H38  1  0.98797380  0.62449976  0.76026013  1  0.32241  8e-06  0.90459  0.0  0.309986  1.8e-05  0.963305  0.0  0.316139  1.6e-05  0.958647  0.0  0.299057  0.305541  3e-05  0.966629  0.0
H  H39  1  0.48797880  0.37550031  0.73973865  1  0.322542  1e-05  0.904577  0.0  0.310026  1.8e-05  0.963401  0.0  0.31618  1.6e-05  0.958744  0.0  0.299085  0.305583  3e-05  0.966724  0.0
H  H40  1  0.01202497  0.37550073  0.23973973  1  0.32261  9e-06  0.904479  0.0  0.310055  1.8e-05  0.963371  0.0  0.316209  1.6e-05  0.958711  0.0  0.299064  0.305608  3e-05  0.966694  0.0
H  H41  1  0.51202525  0.62449908  0.26026186  1  0.322538  7e-06  0.904376  0.0  0.310022  1.8e-05  0.963227  0.0  0.316174  1.6e-05  0.958573  0.0  0.299077  0.305576  3e-05  0.966551  0.0
H  H42  1  0.25120068  0.14261746  0.60037620  1  0.387737  -0.000155  0.927781  0.0  0.352446  -0.000121  1.014008  0.0  0.366384  -0.000161  0.994689  0.0  0.290437  0.34273  -7.5e-05  1.023622  0.0
H  H43  1  0.75119939  0.85738253  0.89962488  1  0.387697  -0.000157  0.927856  0.0  0.352408  -0.000121  1.01407  0.0  0.366345  -0.000161  0.994752  0.0  0.290413  0.342692  -7.5e-05  1.0237  0.0
H  H44  1  0.74879940  0.85738193  0.39962431  1  0.387626  -0.000157  0.927981  0.0  0.352411  -0.000121  1.014061  0.0  0.366346  -0.00016  0.994746  0.0  0.290412  0.342698  -7.5e-05  1.023677  0.0
H  H45  1  0.24880334  0.14261244  0.10037203  1  0.387746  -0.000155  0.927797  0.0  0.352431  -0.000121  1.014032  0.0  0.366367  -0.000161  0.994715  0.0  0.29043  0.342716  -7.5e-05  1.023658  0.0
C  C46  1  0.14373959  0.15985902  0.72965108  1  0.717781  -5.1e-05  3.759956  0.0  0.67213  3e-06  4.062037  0.0  0.705118  -4e-06  4.052469  0.0  0.231719  0.649798  -9.9e-05  4.067773  0.0
C  C47  1  0.64374530  0.84011999  0.77034703  1  0.717781  -7.4e-05  3.760525  0.0  0.672274  2e-06  4.062391  0.0  0.705224  -5e-06  4.052855  0.0  0.231731  0.649948  -9.9e-05  4.068131  0.0
C  C48  1  0.85625521  0.84012385  0.27034888  1  0.717749  -7.8e-05  3.760598  0.0  0.672301  1e-06  4.062409  0.0  0.705288  -4e-06  4.052829  0.0  0.231722  0.649971  -9.9e-05  4.068141  0.0
C  C49  1  0.35625479  0.15985295  0.22964916  1  0.717747  -6.3e-05  3.760158  0.0  0.672353  2e-06  4.061913  0.0  0.705335  -5e-06  4.05235  0.0  0.231883  0.650019  -9.9e-05  4.067644  0.0
C  C50  1  0.01760071  0.08401597  0.79219593  1  -0.244283  -0.000347  3.697762  -0.001  -0.286849  0.000182  3.951025  0.0  -0.291074  0.000101  3.957953  0.0  -0.165424  -0.283878  0.000299  3.946228  0.0
C  C51  1  0.51760072  0.91598723  0.70780480  1  -0.244482  -0.000319  3.697966  -0.001  -0.287011  0.000182  3.95111  0.0  -0.291214  0.000102  3.958038  0.0  -0.165515  -0.284039  0.000299  3.946311  0.0
C  C52  1  0.98239806  0.91599003  0.20780618  1  -0.24441  -0.000334  3.697697  -0.001  -0.28698  0.000182  3.95091  0.0  -0.291199  0.000101  3.957839  0.0  -0.165472  -0.284002  0.000299  3.94609  0.0
C  C53  1  0.48239409  0.08400665  0.29219484  1  -0.244229  -0.000362  3.697745  -0.001  -0.286876  0.000181  3.951059  0.0  -0.29111  0.000102  3.958013  0.0  -0.165435  -0.283895  0.000299  3.946237  0.0
C  C54  1  0.00215721  0.15394691  0.88909743  1  -0.249184  0.010145  3.704298  0.011  -0.288802  0.006362  3.949835  0.007  -0.295461  0.004264  3.959693  0.005  -0.168681  -0.284149  0.007922  3.942996  0.009
C  C55  1  0.50215519  0.84605518  0.61090254  1  -0.249218  0.010155  3.704447  0.011  -0.288867  0.006363  3.949913  0.007  -0.295536  0.004264  3.959776  0.005  -0.168689  -0.284214  0.007923  3.943072  0.009
C  C56  1  0.99784287  0.84605798  0.11090326  1  -0.249238  0.010174  3.704292  0.011  -0.288858  0.006363  3.949774  0.007  -0.295534  0.004266  3.959658  0.005  -0.168688  -0.284208  0.007923  3.942927  0.009
C  C57  1  0.49784226  0.15394420  0.38909589  1  -0.249145  0.010148  3.70422  0.011  -0.288848  0.006364  3.949796  0.007  -0.295518  0.004264  3.959671  0.005  -0.16866  -0.284186  0.007923  3.942954  0.009
C  C58  1  0.15082020  0.12454344  0.95547167  1  0.709865  -0.00729  3.772815  -0.007  0.665318  -0.001338  4.079434  -0.002  0.702587  -0.001904  4.071625  -0.002  0.223038  0.640191  -0.000694  4.08376  -0.002
C  C59  1  0.65081639  0.87545870  0.54452790  1  0.709991  -0.007307  3.772678  -0.007  0.665546  -0.00134  4.079153  -0.002  0.702816  -0.001904  4.071342  -0.002  0.223151  0.640417  -0.000694  4.08348  -0.002
C  C60  1  0.84918121  0.87546366  0.04452978  1  0.709806  -0.007313  3.772783  -0.007  0.665285  -0.00134  4.079404  -0.002  0.70255  -0.001905  4.071609  -0.002  0.223012  0.640156  -0.000694  4.083728  -0.002
C  C61  1  0.34918501  0.12453739  0.45547388  1  0.709745  -0.007308  3.772824  -0.007  0.665317  -0.00134  4.079327  -0.002  0.702585  -0.001904  4.071527  -0.002  0.223032  0.640185  -0.000695  4.083646  -0.002
C  C62  1  0.05147739  0.75001640  0.60792563  1  -0.003577  -0.009137  3.653638  -0.006  -0.035696  -0.002389  3.913402  -0.002  -0.031378  -0.004044  3.932584  -0.003  0.027437  -0.038717  -0.001087  3.901466  -0.001
C  C63  1  0.55148112  0.24998020  0.89207287  1  -0.003604  -0.009137  3.653735  -0.006  -0.035751  -0.002388  3.913524  -0.002  -0.031423  -0.004045  3.932677  -0.003  0.027411  -0.038771  -0.001087  3.901594  -0.001
C  C64  1  0.94851874  0.24998629  0.39207360  1  -0.003527  -0.009159  3.653594  -0.006  -0.035721  -0.002389  3.9134  -0.002  -0.031402  -0.004045  3.932578  -0.003  0.027425  -0.038738  -0.001088  3.901455  -0.001
C  C65  1  0.44852161  0.75002029  0.10792767  1  -0.003558  -0.009166  3.653632  -0.006  -0.035711  -0.002389  3.913444  -0.002  -0.03139  -0.004044  3.93261  -0.003  0.02743  -0.038725  -0.001087  3.901503  -0.001
C  C66  1  0.11743820  0.61514357  0.63668353  1  0.283339  0.008826  3.858622  0.01  0.282076  0.003552  4.104666  0.004  0.288641  0.003091  4.126499  0.004  0.105108  0.277403  0.003878  4.089693  0.005
C  C67  1  0.61743913  0.38485195  0.86331438  1  0.283334  0.008819  3.858871  0.01  0.282131  0.003551  4.104812  0.004  0.2887  0.003092  4.126645  0.004  0.105173  0.277457  0.003878  4.089841  0.005
C  C68  1  0.88256453  0.38486132  0.36331647  1  0.283217  0.008833  3.858788  0.01  0.282044  0.003551  4.104732  0.004  0.288613  0.003091  4.126558  0.004  0.10505  0.277374  0.003878  4.089754  0.005
C  C69  1  0.38256227  0.61514854  0.13668548  1  0.283258  0.008835  3.858886  0.01  0.282061  0.003551  4.104828  0.004  0.288631  0.003091  4.12666  0.004  0.105142  0.277389  0.003878  4.089846  0.005
C  C70  1  0.21213103  0.52709143  0.57043620  1  -0.148375  -0.011477  3.680193  -0.007  -0.169158  -0.004268  3.925854  -0.002  -0.170115  -0.005004  3.942854  -0.003  -0.086413  -0.16853  -0.003569  3.915176  -0.002
C  C71  1  0.71213246  0.47290633  0.92956335  1  -0.148433  -0.011473  3.680332  -0.007  -0.169239  -0.004265  3.925978  -0.002  -0.1702  -0.005005  3.942982  -0.003  -0.086459  -0.168608  -0.003569  3.915303  -0.002
C  C72  1  0.78787037  0.47291015  0.42956300  1  -0.148271  -0.011509  3.680114  -0.007  -0.169078  -0.004267  3.925735  -0.002  -0.170036  -0.005004  3.942735  -0.003  -0.086399  -0.168448  -0.003569  3.915059  -0.002
C  C73  1  0.28787158  0.52709306  0.07043716  1  -0.148346  -0.011511  3.680229  -0.007  -0.169123  -0.004267  3.925823  -0.002  -0.170083  -0.005004  3.942826  -0.003  -0.08636  -0.168489  -0.00357  3.915145  -0.002
C  C74  1  0.23453164  0.57601854  0.48194866  1  -0.08335  0.009415  3.774045  0.01  -0.09692  0.003873  4.029834  0.005  -0.100282  0.003432  4.04916  0.004  -0.082928  -0.094941  0.004159  4.016941  0.005
C  C75  1  0.73453014  0.42398024  0.01805125  1  -0.08329  0.009418  3.774086  0.01  -0.096841  0.003872  4.029862  0.005  -0.100204  0.003432  4.049198  0.004  -0.082918  -0.094861  0.004159  4.016964  0.005
C  C76  1  0.76546845  0.42398304  0.51805054  1  -0.083385  0.009439  3.774024  0.01  -0.096964  0.003873  4.029805  0.005  -0.10033  0.003432  4.049134  0.004  -0.082929  -0.094987  0.004159  4.01692  0.005
C  C77  1  0.26547127  0.57601915  0.98194995  1  -0.083342  0.009422  3.77408  0.01  -0.096868  0.003873  4.029846  0.005  -0.100234  0.003432  4.049177  0.004  -0.082952  -0.094891  0.004159  4.01696  0.005
C  C78  1  0.16682861  0.71182857  0.45924932  1  0.082481  -0.007401  3.718292  -0.005  0.044136  -0.001646  3.993104  -0.001  0.052617  -0.003561  4.0097  -0.002  0.021943  0.038948  -0.000304  3.982312  0.0
C  C79  1  0.66682987  0.28817020  0.04075184  1  0.082498  -0.007443  3.718301  -0.005  0.044139  -0.001645  3.993144  -0.001  0.052608  -0.003562  4.009739  -0.002  0.021954  0.038953  -0.000304  3.982352  0.0
C  C80  1  0.83316883  0.28817413  0.54075199  1  0.082472  -0.007448  3.718258  -0.005  0.044164  -0.001646  3.993069  -0.001  0.052638  -0.00356  4.009662  -0.002  0.021919  0.03897  -0.000303  3.982286  0.0
C  C81  1  0.33317154  0.71183030  0.95924939  1  0.08248  -0.007439  3.718351  -0.005  0.044125  -0.001646  3.993182  -0.001  0.052604  -0.00356  4.009776  -0.002  0.021936  0.03893  -0.000304  3.982407  0.0
N  N82  1  0.07720541  0.79632169  0.52264273  1  -0.294726  0.076949  3.437847  0.098  -0.245098  0.051325  3.735913  0.07  -0.27451  0.042244  3.761271  0.062  -0.362405  -0.227811  0.05627  3.721647  0.073
N  N83  1  0.57720709  0.20367823  0.97735663  1  -0.294665  0.076969  3.437709  0.098  -0.245065  0.051325  3.735811  0.07  -0.274461  0.042245  3.761161  0.062  -0.362386  -0.227786  0.056269  3.721549  0.073
N  N84  1  0.92279072  0.20367990  0.47735785  1  -0.294596  0.076965  3.437683  0.098  -0.245039  0.051322  3.735852  0.07  -0.27445  0.042242  3.761216  0.062  -0.362306  -0.227751  0.056268  3.721582  0.073
N  N85  1  0.42279300  0.79632336  0.02264396  1  -0.294668  0.07697  3.437763  0.098  -0.245076  0.051324  3.735889  0.07  -0.274471  0.042243  3.761237  0.062  -0.362391  -0.227797  0.056269  3.72163  0.073
N  N86  1  0.09358574  0.57794419  0.72639542  1  -0.666914  0.003863  3.093016  0.004  -0.631953  0.000753  3.311612  0.001  -0.653391  0.000716  3.314784  0.001  -0.595572  -0.616565  0.000888  3.308681  0.001
N  N87  1  0.59358605  0.42205243  0.77360387  1  -0.66695  0.003861  3.093189  0.004  -0.631925  0.000753  3.311816  0.001  -0.653366  0.000716  3.314988  0.001  -0.59558  -0.616537  0.000888  3.308885  0.001
N  N88  1  0.90641831  0.42205850  0.27360382  1  -0.667096  0.003868  3.092995  0.004  -0.632011  0.000753  3.311666  0.001  -0.653452  0.000716  3.314834  0.001  -0.595539  -0.616622  0.000887  3.308732  0.001
N  N89  1  0.40641404  0.57794475  0.22639588  1  -0.666957  0.003871  3.093077  0.004  -0.631919  0.000753  3.311693  0.001  -0.653361  0.000716  3.314868  0.001  -0.595596  -0.61653  0.000887  3.308756  0.001
O  O90  1  0.16203672  0.08885511  0.64843572  1  -0.613653  -0.001153  2.174032  0.0  -0.571056  -0.001085  2.435661  0.0  -0.597965  -0.00139  2.417199  0.0  -0.335906  -0.55251  -0.000651  2.445573  0.001
O  O91  1  0.66203774  0.91114594  0.85156384  1  -0.613676  -0.001146  2.173904  0.0  -0.571139  -0.001084  2.435479  0.0  -0.59804  -0.001389  2.417038  0.0  -0.335921  -0.552583  -0.00065  2.445377  0.001
O  O92  1  0.83796073  0.91114209  0.35156679  1  -0.613625  -0.001146  2.174035  0.0  -0.571157  -0.001085  2.435594  0.0  -0.598071  -0.00139  2.417136  0.0  -0.335926  -0.552608  -0.000651  2.445496  0.001
O  O93  1  0.33796631  0.08884902  0.14843238  1  -0.613769  -0.00115  2.174061  0.0  -0.571214  -0.001085  2.435629  0.0  -0.598114  -0.001389  2.417162  0.0  -0.336015  -0.552675  -0.000651  2.445548  0.001
O  O94  1  0.22086788  0.27715544  0.75197921  1  -0.603134  -0.000102  1.937314  0.0  -0.547832  -0.000119  2.149054  0.0  -0.567207  -0.000123  2.139331  0.0  -0.300103  -0.534549  9.2e-05  2.155362  0.0
O  O95  1  0.72086415  0.72285883  0.74801813  1  -0.602872  -9e-05  1.938126  0.0  -0.547732  -0.000118  2.149927  0.0  -0.567083  -0.000124  2.140206  0.0  -0.300011  -0.534454  9.2e-05  2.156236  0.0
O  O96  1  0.77913616  0.72285715  0.24801897  1  -0.602891  -9e-05  1.937995  0.0  -0.547776  -0.000117  2.149796  0.0  -0.56714  -0.000123  2.140057  0.0  -0.300021  -0.534502  9.2e-05  2.156109  0.0
O  O97  1  0.27912274  0.27713834  0.25197816  1  -0.602967  -8.9e-05  1.937367  0.0  -0.547888  -0.000118  2.149141  0.0  -0.567255  -0.000124  2.139414  0.0  -0.300165  -0.53461  9.2e-05  2.155447  0.0
O  O98  1  0.27317510  0.03457591  0.92936743  1  -0.59724  0.085552  2.053409  0.117  -0.566493  0.057888  2.335134  0.087  -0.609027  0.043291  2.328449  0.071  -0.311112  -0.538299  0.067598  2.339546  0.096
O  O99  1  0.77317547  0.96542188  0.57063293  1  -0.597336  0.085556  2.053435  0.117  -0.566604  0.057887  2.33513  0.087  -0.609149  0.04329  2.328445  0.071  -0.311194  -0.538405  0.067597  2.339546  0.096
O  O100  1  0.72682366  0.96542679  0.07063319  1  -0.597218  0.085551  2.053413  0.117  -0.566444  0.057886  2.335104  0.087  -0.608973  0.043289  2.328422  0.071  -0.31111  -0.538248  0.067599  2.33951  0.096
O  O101  1  0.22682329  0.03457311  0.42937020  1  -0.597183  0.085555  2.053408  0.117  -0.566456  0.057889  2.335098  0.087  -0.609  0.043292  2.328418  0.071  -0.311097  -0.538253  0.067603  2.339505  0.096
O  O102  1  0.13920733  0.19076922  0.03515552  1  -0.595639  1.5e-05  2.00947  0.002  -0.545719  -0.00029  2.235784  0.001  -0.571396  -0.000999  2.224046  0.0  -0.31649  -0.528015  0.000337  2.242109  0.002
O  O103  1  0.63919988  0.80923282  0.46484293  1  -0.595667  1.9e-05  2.009441  0.002  -0.545848  -0.00029  2.235701  0.001  -0.571523  -0.000999  2.223963  0.0  -0.316554  -0.528144  0.000337  2.242023  0.002
O  O104  1  0.86079276  0.80923237  0.96484575  1  -0.595618  2.5e-05  2.009457  0.002  -0.545716  -0.000289  2.23572  0.001  -0.571389  -0.000999  2.223985  0.0  -0.316491  -0.528016  0.000337  2.242048  0.002
O  O105  1  0.36079756  0.19076986  0.53515493  1  -0.595613  2.4e-05  2.009449  0.002  -0.545733  -0.00029  2.235687  0.001  -0.571405  -0.001  2.223948  0.0  -0.316518  -0.528033  0.000337  2.242011  0.002
