# generated using pymatgen
data_NaGdH6(CO2)5
_symmetry_space_group_name_H-M   'P 1'
_cell_length_a   6.20686957
_cell_length_b   9.52779994
_cell_length_c   15.66831836
_cell_angle_alpha   90.00012481
_cell_angle_beta   92.71397273
_cell_angle_gamma   90.00038503
_symmetry_Int_Tables_number   1
_chemical_formula_structural   NaGdH6(CO2)5
_chemical_formula_sum   'Na4 Gd4 H24 C20 O40'
_cell_volume   925.55075452
_cell_formula_units_Z   4
loop_
 _symmetry_equiv_pos_site_id
 _symmetry_equiv_pos_as_xyz
  1  'x, y, z'
loop_
 _atom_site_type_symbol
 _atom_site_label
 _atom_site_symmetry_multiplicity
 _atom_site_fract_x
 _atom_site_fract_y
 _atom_site_fract_z
 _atom_site_occupancy
 _atom_site_hle17_bader_spin_density
 _atom_site_hle17_ddec_charge
 _atom_site_hle17_ddec_spin_density
 _atom_site_hle17_ddec_sum_bond_order
 _atom_site_hle17_magmom
 _atom_site_hse06_10hf_bader_spin_density
 _atom_site_hse06_10hf_ddec_charge
 _atom_site_hse06_10hf_ddec_spin_density
 _atom_site_hse06_10hf_ddec_sum_bond_order
 _atom_site_hse06_10hf_magmom
 _atom_site_hse06_bader_spin_density
 _atom_site_hse06_ddec_charge
 _atom_site_hse06_ddec_spin_density
 _atom_site_hse06_ddec_sum_bond_order
 _atom_site_hse06_magmom
 _atom_site_pbe_bader_spin_density
 _atom_site_pbe_cm5_charge
 _atom_site_pbe_ddec_charge
 _atom_site_pbe_ddec_spin_density
 _atom_site_pbe_ddec_sum_bond_order
 _atom_site_pbe_magmom
Na  Na0  1  0.98094458  0.96876039  0.27318194  1  0  0.916454  0  0.372695  0  0  0.878081  0  0.516618  0  0  0.888039  0  0.496084  0  0  0.702532  0.86985  0  0.532725  0
Na  Na1  1  0.01905017  0.46876135  0.22681524  1  0  0.916452  0  0.372755  0  0  0.878069  0  0.51672  0  0  0.888027  0  0.496182  0  0  0.702542  0.869843  0  0.532826  0
Na  Na2  1  0.01905658  0.03123943  0.72681686  1  0  0.916463  0  0.372711  0  0  0.878073  0  0.516659  0  0  0.888037  0  0.496123  0  0  0.702534  0.869839  0  0.532765  0
Na  Na3  1  0.98094776  0.53124057  0.77318349  1  0  0.916473  0  0.372734  0  0  0.878082  0  0.516712  0  0  0.888043  0  0.49618  0  0  0.702538  0.869847  0  0.532817  0
Gd  Gd4  1  0.43412056  0.97450421  0.12141246  1  0  2.14954  0  1.801802  0  0  2.052427  0  2.154679  0  0  2.10774  0  2.102071  0  0  1.450664  2.01225  0  2.193997  0
Gd  Gd5  1  0.56588068  0.47450391  0.37858869  1  0  2.149654  0  1.801733  0  0  2.052471  0  2.154742  0  0  2.107838  0  2.102033  0  0  1.450641  2.012286  0  2.194079  0
Gd  Gd6  1  0.56589833  0.02549666  0.87858797  1  0  2.149667  0  1.801654  0  0  2.05244  0  2.154723  0  0  2.107799  0  2.102049  0  0  1.450649  2.012192  0  2.194166  0
Gd  Gd7  1  0.43410756  0.52549485  0.62141240  1  0  2.149631  0  1.801773  0  0  2.052457  0  2.15475  0  0  2.107784  0  2.102126  0  0  1.450628  2.01219  0  2.194206  0
H  H8  1  0.66378850  0.47097495  0.07466240  1  0  0.129191  0  0.917958  0  0  0.145549  0  0.973732  0  0  0.147774  0  0.973296  0  0  0.11559  0.14394  0  0.974193  0
H  H9  1  0.33620626  0.97096648  0.42533733  1  0  0.129253  0  0.91789  0  0  0.145551  0  0.973771  0  0  0.147775  0  0.973332  0  0  0.11558  0.143943  0  0.974234  0
H  H10  1  0.33622072  0.52903221  0.92533719  1  0  0.129205  0  0.918144  0  0  0.145575  0  0.973963  0  0  0.147806  0  0.973521  0  0  0.11559  0.143965  0  0.974422  0
H  H11  1  0.66378036  0.02902914  0.57466500  1  0  0.129191  0  0.917905  0  0  0.145552  0  0.973722  0  0  0.147782  0  0.973284  0  0  0.115597  0.143941  0  0.974182  0
H  H12  1  0.38002844  0.47525865  0.08272826  1  0  0.104643  0  0.931428  0  0  0.120887  0  0.988081  0  0  0.123288  0  0.987048  0  0  0.109101  0.119088  0  0.989088  0
H  H13  1  0.61996152  0.97525349  0.41727266  1  0  0.104612  0  0.931472  0  0  0.120911  0  0.988082  0  0  0.123313  0  0.987045  0  0  0.109117  0.119111  0  0.989091  0
H  H14  1  0.61996466  0.52474326  0.91727037  1  0  0.104666  0  0.931333  0  0  0.120961  0  0.988028  0  0  0.123368  0  0.986995  0  0  0.10913  0.119162  0  0.989034  0
H  H15  1  0.38002347  0.02474003  0.58273092  1  0  0.104567  0  0.931424  0  0  0.12082  0  0.988113  0  0  0.123222  0  0.987088  0  0  0.10906  0.119022  0  0.989122  0
H  H16  1  0.06062968  0.71792727  0.35359313  1  0  0.413773  0  0.875931  0  0  0.386279  0  0.947355  0  0  0.39596  0  0.932859  0  0  0.297051  0.379328  0  0.95783  0
H  H17  1  0.93937049  0.21792566  0.14640512  1  0  0.413714  0  0.875917  0  0  0.386227  0  0.947405  0  0  0.395903  0  0.932915  0  0  0.297046  0.379273  0  0.957881  0
H  H18  1  0.93936021  0.28207045  0.64640353  1  0  0.41374  0  0.875871  0  0  0.38625  0  0.947365  0  0  0.395929  0  0.932871  0  0  0.297024  0.379291  0  0.957847  0
H  H19  1  0.06063711  0.78207311  0.85359572  1  0  0.413719  0  0.875885  0  0  0.386223  0  0.947407  0  0  0.395902  0  0.932914  0  0  0.297035  0.379266  0  0.957888  0
H  H20  1  0.85935510  0.77168652  0.40025667  1  0  0.410014  0  0.897303  0  0  0.382306  0  0.957666  0  0  0.391729  0  0.943911  0  0  0.290573  0.375626  0  0.967428  0
H  H21  1  0.14064402  0.27169280  0.09974162  1  0  0.410035  0  0.897279  0  0  0.382325  0  0.957645  0  0  0.391749  0  0.943889  0  0  0.29057  0.375645  0  0.967407  0
H  H22  1  0.14064122  0.22831014  0.59974203  1  0  0.410064  0  0.897251  0  0  0.382351  0  0.957626  0  0  0.391774  0  0.943869  0  0  0.290584  0.375671  0  0.967389  0
H  H23  1  0.85936679  0.72830806  0.90026056  1  0  0.410103  0  0.897205  0  0  0.382393  0  0.957573  0  0  0.391818  0  0.943815  0  0  0.290609  0.375713  0  0.967336  0
H  H24  1  0.06085840  0.21598666  0.36771962  1  0  0.416903  0  0.869856  0  0  0.389347  0  0.939314  0  0  0.398971  0  0.924947  0  0  0.296721  0.382333  0  0.949873  0
H  H25  1  0.93913690  0.71598815  0.13228044  1  0  0.416847  0  0.869921  0  0  0.389293  0  0.939384  0  0  0.398917  0  0.925016  0  0  0.296723  0.382277  0  0.949947  0
H  H26  1  0.93914113  0.78401001  0.63228233  1  0  0.416862  0  0.869951  0  0  0.389307  0  0.939376  0  0  0.398933  0  0.925007  0  0  0.296721  0.382289  0  0.949942  0
H  H27  1  0.06086264  0.28401692  0.86772024  1  0  0.416905  0  0.869885  0  0  0.389342  0  0.939327  0  0  0.39897  0  0.924953  0  0  0.29671  0.382328  0  0.949889  0
H  H28  1  0.87179536  0.16584893  0.42192899  1  0  0.41742  0  0.873148  0  0  0.392245  0  0.93172  0  0  0.401229  0  0.918583  0  0  0.29591  0.385766  0  0.941246  0
H  H29  1  0.12820424  0.66585298  0.07807236  1  0  0.417388  0  0.873148  0  0  0.392206  0  0.931774  0  0  0.401189  0  0.918636  0  0  0.295885  0.385729  0  0.941298  0
H  H30  1  0.12820738  0.83414563  0.57807430  1  0  0.417372  0  0.87316  0  0  0.392185  0  0.931807  0  0  0.401171  0  0.918664  0  0  0.295855  0.385707  0  0.941334  0
H  H31  1  0.87179371  0.33414998  0.92192509  1  0  0.417369  0  0.87325  0  0  0.392173  0  0.931839  0  0  0.40116  0  0.918696  0  0  0.295852  0.385695  0  0.941366  0
C  C32  1  0.62183889  0.21756410  0.24752557  1  0  0.582773  0  3.915475  0  0  0.538972  0  4.213995  0  0  0.569192  0  4.203665  0  0  0.229407  0.518225  0  4.220363  0
C  C33  1  0.37815324  0.71758037  0.25246932  1  0  0.582858  0  3.915574  0  0  0.538972  0  4.214228  0  0  0.569219  0  4.203863  0  0  0.229369  0.518206  0  4.220624  0
C  C34  1  0.37816067  0.78243571  0.75247256  1  0  0.582814  0  3.915513  0  0  0.538947  0  4.214108  0  0  0.569188  0  4.203738  0  0  0.229371  0.518196  0  4.220475  0
C  C35  1  0.62185440  0.28241944  0.74752705  1  0  0.582771  0  3.915494  0  0  0.538914  0  4.214099  0  0  0.569155  0  4.203735  0  0  0.229362  0.518154  0  4.220482  0
C  C36  1  0.38022210  0.21304840  0.26499386  1  0  0.582921  0  3.91219  0  0  0.538274  0  4.212332  0  0  0.568648  0  4.201722  0  0  0.229952  0.517436  0  4.218888  0
C  C37  1  0.61977483  0.71306566  0.23499984  1  0  0.583119  0  3.912054  0  0  0.538478  0  4.212216  0  0  0.568823  0  4.201647  0  0  0.230098  0.517647  0  4.218774  0
C  C38  1  0.61978228  0.78694722  0.73500691  1  0  0.583025  0  3.912333  0  0  0.538439  0  4.212406  0  0  0.568808  0  4.201786  0  0  0.230081  0.5176  0  4.218958  0
C  C39  1  0.38023440  0.28694150  0.76499848  1  0  0.58326  0  3.911972  0  0  0.538632  0  4.212111  0  0  0.568975  0  4.201545  0  0  0.230201  0.517797  0  4.218667  0
C  C40  1  0.93634071  0.99081007  0.04045772  1  0  0.605753  0  3.858754  0  0  0.562849  0  4.151498  0  0  0.593994  0  4.1403  0  0  0.245514  0.541232  0  4.159785  0
C  C41  1  0.06366715  0.49080683  0.45954358  1  0  0.605783  0  3.858689  0  0  0.56282  0  4.151521  0  0  0.593958  0  4.140334  0  0  0.245469  0.541204  0  4.159815  0
C  C42  1  0.06367817  0.00919709  0.95954463  1  0  0.605381  0  3.859451  0  0  0.562586  0  4.152106  0  0  0.593683  0  4.140957  0  0  0.245516  0.540988  0  4.160383  0
C  C43  1  0.93632918  0.50919193  0.54045448  1  0  0.605262  0  3.859467  0  0  0.56246  0  4.152135  0  0  0.59357  0  4.140977  0  0  0.245395  0.540858  0  4.160412  0
C  C44  1  0.50278783  0.29620488  0.01958006  1  0  0.785654  0  3.721843  0  0  0.740809  0  4.020889  0  0  0.776321  0  4.009941  0  0  0.246047  0.716477  0  4.027533  0
C  C45  1  0.49720668  0.79620256  0.48042136  1  0  0.785602  0  3.721862  0  0  0.740806  0  4.020868  0  0  0.776322  0  4.009922  0  0  0.246054  0.716481  0  4.027495  0
C  C46  1  0.49722138  0.70379809  0.98042081  1  0  0.785322  0  3.721864  0  0  0.740573  0  4.020893  0  0  0.776091  0  4.009953  0  0  0.245989  0.716215  0  4.027566  0
C  C47  1  0.50277346  0.20379306  0.51958275  1  0  0.785491  0  3.721804  0  0  0.740749  0  4.020733  0  0  0.776264  0  4.009792  0  0  0.246084  0.716426  0  4.027355  0
C  C48  1  0.50865258  0.45228818  0.03913945  1  0  -0.242725  0  3.637303  0  0  -0.28262  0  3.882521  0  0  -0.288038  0  3.890045  0  0  -0.155938  -0.278854  0  3.877063  0
C  C49  1  0.49133876  0.95228261  0.46085891  1  0  -0.242725  0  3.637283  0  0  -0.282757  0  3.882623  0  0  -0.288164  0  3.890121  0  0  -0.155951  -0.278999  0  3.87717  0
C  C50  1  0.49133575  0.54770954  0.96085079  1  0  -0.242517  0  3.637177  0  0  -0.282785  0  3.882741  0  0  -0.288229  0  3.890287  0  0  -0.15602  -0.279017  0  3.877293  0
C  C51  1  0.50864463  0.04771405  0.53914272  1  0  -0.242508  0  3.637224  0  0  -0.282565  0  3.882538  0  0  -0.288009  0  3.890086  0  0  -0.155948  -0.278808  0  3.877082  0
O  O52  1  0.69778446  0.11494659  0.20678056  1  0  -0.697237  0  2.115142  0  0  -0.656932  0  2.365066  0  0  -0.680569  0  2.354448  0  0  -0.393615  -0.640191  0  2.372231  0
O  O53  1  0.30220809  0.61493119  0.29322697  1  0  -0.697397  0  2.114226  0  0  -0.657047  0  2.364193  0  0  -0.680704  0  2.353553  0  0  -0.393692  -0.640292  0  2.371367  0
O  O54  1  0.30221989  0.88506267  0.79322277  1  0  -0.697283  0  2.114916  0  0  -0.656981  0  2.364934  0  0  -0.680606  0  2.354261  0  0  -0.393619  -0.64023  0  2.3721  0
O  O55  1  0.69779635  0.38506128  0.70676678  1  0  -0.697354  0  2.114253  0  0  -0.657041  0  2.364265  0  0  -0.680695  0  2.353652  0  0  -0.393698  -0.640281  0  2.371432  0
O  O56  1  0.72534098  0.32309451  0.27517834  1  0  -0.671421  0  2.141541  0  0  -0.631336  0  2.394748  0  0  -0.654514  0  2.384891  0  0  -0.394415  -0.614841  0  2.401331  0
O  O57  1  0.27467150  0.82308084  0.22483049  1  0  -0.671364  0  2.142578  0  0  -0.63127  0  2.395791  0  0  -0.654461  0  2.38597  0  0  -0.394284  -0.614772  0  2.402384  0
O  O58  1  0.27465695  0.67691475  0.72482102  1  0  -0.671438  0  2.141801  0  0  -0.63131  0  2.394966  0  0  -0.654538  0  2.385219  0  0  -0.394358  -0.614811  0  2.401549  0
O  O59  1  0.72533613  0.17691582  0.77516780  1  0  -0.671336  0  2.142462  0  0  -0.631268  0  2.395707  0  0  -0.654459  0  2.385899  0  0  -0.394308  -0.61477  0  2.402297  0
O  O60  1  0.27601090  0.10880055  0.23560103  1  0  -0.68226  0  2.135031  0  0  -0.641775  0  2.387867  0  0  -0.665107  0  2.377902  0  0  -0.405979  -0.625259  0  2.394777  0
O  O61  1  0.72399938  0.60878584  0.26440111  1  0  -0.682669  0  2.134118  0  0  -0.642186  0  2.386968  0  0  -0.665528  0  2.37701  0  0  -0.406331  -0.625663  0  2.393879  0
O  O62  1  0.72399669  0.89119717  0.76440045  1  0  -0.682394  0  2.135034  0  0  -0.641924  0  2.387853  0  0  -0.665256  0  2.377886  0  0  -0.406072  -0.625405  0  2.394762  0
O  O63  1  0.27601304  0.39121398  0.73560175  1  0  -0.682635  0  2.134441  0  0  -0.64217  0  2.387308  0  0  -0.665494  0  2.377353  0  0  -0.406295  -0.625642  0  2.394215  0
O  O64  1  0.30517089  0.31474440  0.30677039  1  0  -0.679664  0  2.091386  0  0  -0.639709  0  2.340142  0  0  -0.663035  0  2.32929  0  0  -0.371901  -0.623161  0  2.347471  0
O  O65  1  0.69482378  0.81473245  0.19323616  1  0  -0.679478  0  2.092329  0  0  -0.639528  0  2.341089  0  0  -0.662832  0  2.330258  0  0  -0.371749  -0.622982  0  2.348411  0
O  O66  1  0.69482539  0.68525541  0.69323341  1  0  -0.679697  0  2.091715  0  0  -0.639774  0  2.340454  0  0  -0.663085  0  2.329605  0  0  -0.37194  -0.62322  0  2.347778  0
O  O67  1  0.30518543  0.18526736  0.80676599  1  0  -0.679628  0  2.091955  0  0  -0.639682  0  2.340711  0  0  -0.662986  0  2.329878  0  0  -0.371845  -0.623134  0  2.348039  0
O  O68  1  0.73159153  0.99550324  0.02995004  1  0  -0.72734  0  2.213026  0  0  -0.688583  0  2.471298  0  0  -0.714448  0  2.462242  0  0  -0.394541  -0.670304  0  2.477887  0
O  O69  1  0.26840671  0.49549883  0.47004980  1  0  -0.727334  0  2.213161  0  0  -0.68853  0  2.471452  0  0  -0.714407  0  2.462401  0  0  -0.394525  -0.67025  0  2.478041  0
O  O70  1  0.26843057  0.00450182  0.97005301  1  0  -0.727263  0  2.2132  0  0  -0.688524  0  2.471443  0  0  -0.714383  0  2.462412  0  0  -0.394604  -0.670247  0  2.478021  0
O  O71  1  0.73156867  0.50450098  0.52994529  1  0  -0.727298  0  2.213198  0  0  -0.688536  0  2.47143  0  0  -0.714411  0  2.462398  0  0  -0.394603  -0.670258  0  2.47801  0
O  O72  1  0.04319997  0.97282194  0.10959778  1  0  -0.64165  0  2.135391  0  0  -0.603463  0  2.388397  0  0  -0.624585  0  2.377257  0  0  -0.360481  -0.589061  0  2.397057  0
O  O73  1  0.95680127  0.47282024  0.39040081  1  0  -0.641649  0  2.135154  0  0  -0.603399  0  2.388175  0  0  -0.624532  0  2.377036  0  0  -0.360445  -0.588997  0  2.396837  0
O  O74  1  0.95682212  0.02718208  0.89040654  1  0  -0.64151  0  2.136071  0  0  -0.603217  0  2.388783  0  0  -0.624408  0  2.377845  0  0  -0.360415  -0.588753  0  2.397291  0
O  O75  1  0.04318058  0.52717537  0.60959249  1  0  -0.641354  0  2.135884  0  0  -0.603147  0  2.388812  0  0  -0.624272  0  2.377727  0  0  -0.360313  -0.588682  0  2.397321  0
O  O76  1  0.41559879  0.21724322  0.07454063  1  0  -0.754484  0  2.075219  0  0  -0.698959  0  2.314323  0  0  -0.7279  0  2.30613  0  0  -0.37591  -0.67818  0  2.319156  0
O  O77  1  0.58439973  0.71723793  0.42546077  1  0  -0.754504  0  2.075187  0  0  -0.698976  0  2.314277  0  0  -0.727915  0  2.306051  0  0  -0.375952  -0.678201  0  2.319103  0
O  O78  1  0.58441850  0.78276079  0.92545849  1  0  -0.754447  0  2.075279  0  0  -0.698879  0  2.314298  0  0  -0.727819  0  2.306088  0  0  -0.375895  -0.678086  0  2.319142  0
O  O79  1  0.41557722  0.28275768  0.57453945  1  0  -0.754463  0  2.075375  0  0  -0.698916  0  2.31438  0  0  -0.727848  0  2.306166  0  0  -0.37595  -0.678139  0  2.319212  0
O  O80  1  0.58753656  0.25021713  0.95246780  1  0  -0.727101  0  2.015943  0  0  -0.677149  0  2.258312  0  0  -0.705095  0  2.249619  0  0  -0.36783  -0.657411  0  2.263746  0
O  O81  1  0.41246202  0.75021287  0.54753399  1  0  -0.727082  0  2.016101  0  0  -0.677113  0  2.258365  0  0  -0.705056  0  2.249675  0  0  -0.367829  -0.65738  0  2.263792  0
O  O82  1  0.41246781  0.74978583  0.04753361  1  0  -0.72695  0  2.016064  0  0  -0.676999  0  2.258338  0  0  -0.704941  0  2.249648  0  0  -0.367797  -0.657267  0  2.263777  0
O  O83  1  0.58752621  0.24978380  0.45246901  1  0  -0.727045  0  2.015736  0  0  -0.677184  0  2.258154  0  0  -0.705137  0  2.249465  0  0  -0.367849  -0.657458  0  2.263571  0
O  O84  1  0.00353670  0.79973517  0.38280619  1  0  -0.849112  0  1.762324  0  0  -0.807712  0  1.92794  0  0  -0.823986  0  1.89924  0  0  -0.651635  -0.79588  0  1.948671  0
O  O85  1  0.99646109  0.29973790  0.11719403  1  0  -0.849062  0  1.7623  0  0  -0.807664  0  1.927971  0  0  -0.823935  0  1.899278  0  0  -0.651612  -0.795829  0  1.948703  0
O  O86  1  0.99645800  0.20026149  0.61719375  1  0  -0.849146  0  1.762211  0  0  -0.807729  0  1.927899  0  0  -0.823998  0  1.899204  0  0  -0.651643  -0.795901  0  1.948637  0
O  O87  1  0.00354812  0.70026191  0.88280749  1  0  -0.849114  0  1.762175  0  0  -0.80773  0  1.927896  0  0  -0.823993  0  1.899198  0  0  -0.651655  -0.7959  0  1.948632  0
O  O88  1  0.99792526  0.13191163  0.39256409  1  0  -0.842076  0  1.745268  0  0  -0.799708  0  1.902293  0  0  -0.815515  0  1.873977  0  0  -0.636751  -0.788316  0  1.922841  0
O  O89  1  0.00207076  0.63191313  0.10743587  1  0  -0.841978  0  1.745308  0  0  -0.799617  0  1.902363  0  0  -0.815415  0  1.874045  0  0  -0.636713  -0.788233  0  1.922926  0
O  O90  1  0.00206784  0.86808504  0.60743454  1  0  -0.841966  0  1.745307  0  0  -0.799612  0  1.902354  0  0  -0.815413  0  1.874031  0  0  -0.636697  -0.788227  0  1.922914  0
O  O91  1  0.99792075  0.36809193  0.89256018  1  0  -0.842024  0  1.745407  0  0  -0.799634  0  1.902375  0  0  -0.815428  0  1.874048  0  0  -0.636666  -0.788256  0  1.922944  0
