# generated using pymatgen
data_LiH7C8Cl2O5
_symmetry_space_group_name_H-M   'P 1'
_cell_length_a   4.91835079
_cell_length_b   13.64360587
_cell_length_c   14.76586810
_cell_angle_alpha   89.99970646
_cell_angle_beta   89.99998606
_cell_angle_gamma   90.00001730
_symmetry_Int_Tables_number   1
_chemical_formula_structural   LiH7C8Cl2O5
_chemical_formula_sum   'Li4 H28 C32 Cl8 O20'
_cell_volume   990.84939803
_cell_formula_units_Z   4
loop_
 _symmetry_equiv_pos_site_id
 _symmetry_equiv_pos_as_xyz
  1  'x, y, z'
loop_
 _atom_site_type_symbol
 _atom_site_label
 _atom_site_symmetry_multiplicity
 _atom_site_fract_x
 _atom_site_fract_y
 _atom_site_fract_z
 _atom_site_occupancy
 _atom_site_hle17_bader_spin_density
 _atom_site_hle17_ddec_charge
 _atom_site_hle17_ddec_spin_density
 _atom_site_hle17_ddec_sum_bond_order
 _atom_site_hle17_magmom
 _atom_site_hse06_10hf_bader_spin_density
 _atom_site_hse06_10hf_ddec_charge
 _atom_site_hse06_10hf_ddec_spin_density
 _atom_site_hse06_10hf_ddec_sum_bond_order
 _atom_site_hse06_10hf_magmom
 _atom_site_hse06_bader_spin_density
 _atom_site_hse06_ddec_charge
 _atom_site_hse06_ddec_spin_density
 _atom_site_hse06_ddec_sum_bond_order
 _atom_site_hse06_magmom
 _atom_site_pbe_bader_spin_density
 _atom_site_pbe_cm5_charge
 _atom_site_pbe_ddec_charge
 _atom_site_pbe_ddec_spin_density
 _atom_site_pbe_ddec_sum_bond_order
 _atom_site_pbe_magmom
Li  Li0  1  0.25495944  0.56435413  0.65942009  1  0  0.837506  0  0.396702  0  0  0.783536  0  0.519067  0  0  0.796034  0  0.499397  0  0  0.477113  0.774642  0  0.533004  0
Li  Li1  1  0.74504051  0.43564470  0.15942133  1  0  0.837525  0  0.396684  0  0  0.783556  0  0.519048  0  0  0.796048  0  0.499385  0  0  0.47712  0.774662  0  0.532993  0
Li  Li2  1  0.75495868  0.93564448  0.15942149  1  0  0.837525  0  0.39668  0  0  0.783559  0  0.51904  0  0  0.796051  0  0.499378  0  0  0.477132  0.774666  0  0.532985  0
Li  Li3  1  0.24503923  0.06435435  0.65942060  1  0  0.837522  0  0.396676  0  0  0.783547  0  0.519049  0  0  0.796043  0  0.49938  0  0  0.477121  0.774649  0  0.532988  0
H  H4  1  0.18893941  0.77812886  0.71012503  1  0  0.048121  0  0.927264  0  0  0.061323  0  0.994554  0  0  0.061369  0  0.9947  0  0  0.100472  0.061232  0  0.994503  0
H  H5  1  0.81106050  0.22187043  0.21012525  1  0  0.048117  0  0.927257  0  0  0.061314  0  0.99455  0  0  0.061362  0  0.994695  0  0  0.100468  0.061226  0  0.994501  0
H  H6  1  0.68894051  0.72187021  0.21012474  1  0  0.04811  0  0.927269  0  0  0.061307  0  0.994567  0  0  0.061354  0  0.994713  0  0  0.100472  0.06122  0  0.994518  0
H  H7  1  0.31106144  0.27812834  0.71012622  1  0  0.048116  0  0.927247  0  0  0.061313  0  0.994551  0  0  0.06136  0  0.994697  0  0  0.10047  0.061221  0  0.994503  0
H  H8  1  0.15702022  0.77714484  0.59014631  1  0  0.048819  0  0.93348  0  0  0.061102  0  1.003461  0  0  0.061206  0  1.00339  0  0  0.098908  0.060892  0  1.003673  0
H  H9  1  0.84297979  0.22285731  0.09014720  1  0  0.048798  0  0.933543  0  0  0.06109  0  1.003509  0  0  0.061194  0  1.003438  0  0  0.098918  0.060883  0  1.003719  0
H  H10  1  0.65701929  0.72285708  0.09014737  1  0  0.048827  0  0.933505  0  0  0.061109  0  1.003485  0  0  0.061213  0  1.003411  0  0  0.098919  0.060901  0  1.003694  0
H  H11  1  0.34297868  0.27714507  0.59014885  1  0  0.0488  0  0.933534  0  0  0.061098  0  1.00349  0  0  0.061202  0  1.003417  0  0  0.098915  0.060887  0  1.0037  0
H  H12  1  0.69566009  0.82899003  0.72414438  1  0  0.105141  0  0.969281  0  0  0.119167  0  1.043176  0  0  0.121021  0  1.042506  0  0  0.083466  0.117787  0  1.043691  0
H  H13  1  0.30434184  0.17100918  0.22414421  1  0  0.105134  0  0.96929  0  0  0.119159  0  1.043193  0  0  0.121015  0  1.04252  0  0  0.083462  0.117781  0  1.043709  0
H  H14  1  0.19565521  0.67100969  0.22414438  1  0  0.105115  0  0.969307  0  0  0.119139  0  1.043211  0  0  0.120994  0  1.042541  0  0  0.083449  0.117762  0  1.043727  0
H  H15  1  0.80434266  0.32899025  0.72414489  1  0  0.105122  0  0.969273  0  0  0.119163  0  1.043166  0  0  0.121018  0  1.042493  0  0  0.083461  0.117783  0  1.043683  0
H  H16  1  0.88199294  0.91403519  0.65859368  1  0  0.111135  0  0.956231  0  0  0.133315  0  1.014131  0  0  0.134221  0  1.015211  0  0  0.100383  0.132592  0  1.013471  0
H  H17  1  0.11800701  0.08596511  0.15859392  1  0  0.111146  0  0.956216  0  0  0.133315  0  1.014135  0  0  0.134222  0  1.015215  0  0  0.100388  0.132595  0  1.013474  0
H  H18  1  0.38199002  0.58596565  0.15859407  1  0  0.11114  0  0.956165  0  0  0.133307  0  1.014086  0  0  0.134213  0  1.015167  0  0  0.100376  0.132587  0  1.013425  0
H  H19  1  0.61800587  0.41403466  0.65859420  1  0  0.11112  0  0.956174  0  0  0.133283  0  1.014106  0  0  0.134188  0  1.015188  0  0  0.100364  0.13256  0  1.013447  0
H  H20  1  0.66568261  0.82974383  0.60355276  1  0  0.107423  0  0.963949  0  0  0.123544  0  1.034089  0  0  0.125587  0  1.033411  0  0  0.085485  0.122024  0  1.034614  0
H  H21  1  0.33431535  0.17025824  0.10355326  1  0  0.107353  0  0.963919  0  0  0.123529  0  1.034008  0  0  0.125571  0  1.03333  0  0  0.085478  0.12201  0  1.034532  0
H  H22  1  0.16568179  0.67025802  0.10355276  1  0  0.107401  0  0.963966  0  0  0.123574  0  1.034045  0  0  0.125616  0  1.033369  0  0  0.085491  0.122055  0  1.034569  0
H  H23  1  0.83431820  0.32974259  0.60355327  1  0  0.107324  0  0.963959  0  0  0.123521  0  1.034028  0  0  0.125563  0  1.033349  0  0  0.085465  0.121999  0  1.034553  0
H  H24  1  0.26244785  0.36200086  0.08367724  1  0  0.399498  0  0.875922  0  0  0.368667  0  0.951329  0  0  0.381663  0  0.938057  0  0  0.315126  0.35955  0  0.960511  0
H  H25  1  0.73754809  0.63799912  0.58367426  1  0  0.399479  0  0.875989  0  0  0.368651  0  0.951384  0  0  0.381645  0  0.938121  0  0  0.315131  0.359535  0  0.96056  0
H  H26  1  0.76245054  0.13799934  0.58367477  1  0  0.399455  0  0.876011  0  0  0.368624  0  0.951417  0  0  0.381618  0  0.93815  0  0  0.31512  0.359507  0  0.960592  0
H  H27  1  0.23754947  0.86200064  0.08367741  1  0  0.399468  0  0.875968  0  0  0.368639  0  0.951374  0  0  0.381634  0  0.938106  0  0  0.315111  0.359523  0  0.960554  0
H  H28  1  0.82695607  0.65478028  0.70693416  1  0  0.387146  0  0.89052  0  0  0.361587  0  0.96106  0  0  0.372457  0  0.949264  0  0  0.308281  0.353889  0  0.969379  0
H  H29  1  0.17304384  0.34521829  0.20693723  1  0  0.387259  0  0.890345  0  0  0.361677  0  0.960932  0  0  0.372547  0  0.94913  0  0  0.30828  0.353975  0  0.969268  0
H  H30  1  0.32695743  0.84521809  0.20693671  1  0  0.387202  0  0.890441  0  0  0.361597  0  0.961041  0  0  0.372464  0  0.949251  0  0  0.308261  0.3539  0  0.969364  0
H  H31  1  0.67304655  0.15478122  0.70693468  1  0  0.387235  0  0.890398  0  0  0.36163  0  0.960999  0  0  0.372499  0  0.949204  0  0  0.308274  0.353933  0  0.96932  0
C  C32  1  0.28435938  0.42475178  0.91307364  1  0  -0.135182  0  3.79175  0  0  -0.139389  0  4.083074  0  0  -0.149871  0  4.103445  0  0  -0.027325  -0.132433  0  4.069434  0
C  C33  1  0.71565054  0.57524565  0.41307083  1  0  -0.135131  0  3.791664  0  0  -0.139322  0  4.082968  0  0  -0.149829  0  4.103378  0  0  -0.027283  -0.132398  0  4.069307  0
C  C34  1  0.78434613  0.07524587  0.41307134  1  0  -0.135112  0  3.791556  0  0  -0.139264  0  4.082847  0  0  -0.149773  0  4.103262  0  0  -0.027267  -0.13234  0  4.069184  0
C  C35  1  0.21563737  0.92475156  0.91307381  1  0  -0.135171  0  3.791765  0  0  -0.139357  0  4.08307  0  0  -0.149844  0  4.103448  0  0  -0.027307  -0.132416  0  4.069417  0
C  C36  1  0.53414035  0.56397548  0.82955975  1  0  0.270189  0  3.886975  0  0  0.242463  0  4.170985  0  0  0.262211  0  4.179275  0  0  0.105117  0.229518  0  4.164955  0
C  C37  1  0.46585540  0.43602315  0.32956169  1  0  0.270265  0  3.886921  0  0  0.242482  0  4.170963  0  0  0.262248  0  4.179243  0  0  0.105143  0.229513  0  4.16492  0
C  C38  1  0.03414179  0.93602364  0.32956187  1  0  0.270168  0  3.88702  0  0  0.242414  0  4.171064  0  0  0.262181  0  4.179341  0  0  0.105111  0.229447  0  4.165022  0
C  C39  1  0.96586006  0.06397792  0.82956025  1  0  0.270301  0  3.886868  0  0  0.242503  0  4.170953  0  0  0.262272  0  4.179211  0  0  0.10512  0.229541  0  4.164919  0
C  C40  1  0.04505176  0.76822326  0.65389064  1  0  0.198841  0  3.587874  0  0  0.141499  0  3.865904  0  0  0.149835  0  3.872477  0  0  -0.071345  0.135852  0  3.861355  0
C  C41  1  0.95494819  0.23177633  0.15389148  1  0  0.198853  0  3.587918  0  0  0.14151  0  3.86596  0  0  0.149845  0  3.872532  0  0  -0.071337  0.135865  0  3.8614  0
C  C42  1  0.54505287  0.73177683  0.15389098  1  0  0.198859  0  3.587775  0  0  0.141521  0  3.865805  0  0  0.149856  0  3.872377  0  0  -0.071346  0.13587  0  3.861261  0
C  C43  1  0.45494912  0.26822423  0.65389114  1  0  0.198873  0  3.587848  0  0  0.141519  0  3.865915  0  0  0.149854  0  3.872486  0  0  -0.071344  0.135878  0  3.861349  0
C  C44  1  0.45045772  0.44135130  0.98566059  1  0  0.261535  0  3.772818  0  0  0.232053  0  4.053769  0  0  0.247299  0  4.063605  0  0  0.111681  0.221539  0  4.047099  0
C  C45  1  0.54955622  0.55864719  0.48566058  1  0  0.261447  0  3.772867  0  0  0.231969  0  4.053815  0  0  0.247224  0  4.063656  0  0  0.111624  0.221454  0  4.047149  0
C  C46  1  0.95044445  0.05864890  0.48566108  1  0  0.261462  0  3.772778  0  0  0.231989  0  4.053743  0  0  0.24725  0  4.063585  0  0  0.111618  0.221475  0  4.047072  0
C  C47  1  0.04954915  0.94135327  0.98566077  1  0  0.261528  0  3.772816  0  0  0.232052  0  4.053775  0  0  0.24731  0  4.063613  0  0  0.111674  0.221535  0  4.047112  0
C  C48  1  0.80764888  0.83828101  0.66039734  1  0  -0.333835  0  3.683704  0  0  -0.405409  0  3.923568  0  0  -0.409382  0  3.933486  0  0  -0.250298  -0.402382  0  3.916714  0
C  C49  1  0.19235107  0.16171928  0.16039790  1  0  -0.333761  0  3.683642  0  0  -0.405372  0  3.923502  0  0  -0.409342  0  3.933413  0  0  -0.250278  -0.40234  0  3.916648  0
C  C50  1  0.30764399  0.66171980  0.16039806  1  0  -0.333802  0  3.683622  0  0  -0.4054  0  3.92348  0  0  -0.409372  0  3.933396  0  0  -0.250277  -0.402368  0  3.916625  0
C  C51  1  0.69235393  0.33828049  0.66039854  1  0  -0.333726  0  3.683583  0  0  -0.405372  0  3.923467  0  0  -0.409342  0  3.933381  0  0  -0.25027  -0.402345  0  3.916617  0
C  C52  1  0.67175144  0.51881325  0.98413932  1  0  0.303178  0  3.88912  0  0  0.282794  0  4.162996  0  0  0.304055  0  4.170248  0  0  0.120556  0.268657  0  4.157578  0
C  C53  1  0.32825233  0.48118746  0.48413902  1  0  0.303254  0  3.889165  0  0  0.282819  0  4.163068  0  0  0.304072  0  4.170327  0  0  0.120539  0.268674  0  4.157651  0
C  C54  1  0.17174682  0.98118797  0.48413919  1  0  0.30321  0  3.889119  0  0  0.282718  0  4.163109  0  0  0.303959  0  4.170386  0  0  0.120541  0.268577  0  4.157688  0
C  C55  1  0.82825492  0.01881420  0.98413983  1  0  0.303212  0  3.889141  0  0  0.28277  0  4.163062  0  0  0.304012  0  4.170345  0  0  0.120559  0.268633  0  4.157651  0
C  C56  1  0.31380020  0.48376280  0.83263529  1  0  0.333609  0  3.790679  0  0  0.312645  0  4.061879  0  0  0.333452  0  4.063722  0  0  0.145476  0.298146  0  4.060811  0
C  C57  1  0.68620165  0.51623435  0.33263547  1  0  0.333511  0  3.79076  0  0  0.312547  0  4.062  0  0  0.333352  0  4.063869  0  0  0.145472  0.298153  0  4.060778  0
C  C58  1  0.81379503  0.01623384  0.33263598  1  0  0.333641  0  3.79059  0  0  0.312612  0  4.061923  0  0  0.333412  0  4.063797  0  0  0.145495  0.298214  0  4.06071  0
C  C59  1  0.18619869  0.98376331  0.83263546  1  0  0.333578  0  3.790615  0  0  0.312609  0  4.061852  0  0  0.333409  0  4.063706  0  0  0.145477  0.298163  0  4.060703  0
C  C60  1  0.69870972  0.57764102  0.90547736  1  0  -0.164532  0  3.808862  0  0  -0.170121  0  4.10457  0  0  -0.187623  0  4.130959  0  0  -0.045893  -0.158692  0  4.086551  0
C  C61  1  0.30129614  0.42236012  0.40548005  1  0  -0.164641  0  3.808977  0  0  -0.170136  0  4.104592  0  0  -0.187641  0  4.13098  0  0  -0.045937  -0.15871  0  4.086579  0
C  C62  1  0.19869895  0.92235990  0.40548022  1  0  -0.164576  0  3.80897  0  0  -0.170058  0  4.104603  0  0  -0.187557  0  4.130991  0  0  -0.045913  -0.158633  0  4.086593  0
C  C63  1  0.80129675  0.07764271  0.90547855  1  0  -0.164708  0  3.808867  0  0  -0.170222  0  4.104554  0  0  -0.187726  0  4.130941  0  0  -0.045945  -0.158795  0  4.086539  0
Cl  Cl64  1  0.94773429  0.66692316  0.90418971  1  0  -0.042007  0  1.499406  0  0  -0.027237  0  1.770987  0  0  -0.029337  0  1.769795  0  0  0.017339  -0.025388  0  1.771829  0
Cl  Cl65  1  0.05225734  0.33307433  0.40419285  1  0  -0.041985  0  1.499297  0  0  -0.027224  0  1.770817  0  0  -0.029323  0  1.76962  0  0  0.017371  -0.02538  0  1.771663  0
Cl  Cl66  1  0.44774378  0.83307487  0.40419367  1  0  -0.042002  0  1.499312  0  0  -0.027251  0  1.770846  0  0  -0.029349  0  1.769647  0  0  0.01737  -0.0254  0  1.771694  0
Cl  Cl67  1  0.55226209  0.16692555  0.90419092  1  0  -0.041977  0  1.499339  0  0  -0.027213  0  1.770879  0  0  -0.029313  0  1.769684  0  0  0.017357  -0.025367  0  1.771721  0
Cl  Cl68  1  0.04219280  0.33357718  0.91418995  1  0  -0.018312  0  1.504348  0  0  -0.004771  0  1.773725  0  0  -0.0059  0  1.770815  0  0  0.037956  -0.003836  0  1.775784  0
Cl  Cl69  1  0.95781916  0.66642464  0.41418601  1  0  -0.018322  0  1.504237  0  0  -0.00478  0  1.773594  0  0  -0.005899  0  1.770696  0  0  0.037958  -0.003843  0  1.775663  0
Cl  Cl70  1  0.54217962  0.16642483  0.41418654  1  0  -0.018335  0  1.504247  0  0  -0.004804  0  1.7736  0  0  -0.005919  0  1.770703  0  0  0.03795  -0.003871  0  1.775666  0
Cl  Cl71  1  0.45781200  0.83357626  0.91418942  1  0  -0.018333  0  1.504319  0  0  -0.004792  0  1.77367  0  0  -0.005919  0  1.770761  0  0  0.037949  -0.003859  0  1.775733  0
O  O72  1  0.17167738  0.47271531  0.76382663  1  0  -0.477067  0  1.993197  0  0  -0.43761  0  2.216084  0  0  -0.451576  0  2.210426  0  0  -0.290006  -0.428234  0  2.220167  0
O  O73  1  0.82832453  0.52728368  0.26382675  1  0  -0.477061  0  1.993217  0  0  -0.437625  0  2.216152  0  0  -0.451573  0  2.210486  0  0  -0.290038  -0.428276  0  2.220191  0
O  O74  1  0.67166815  0.02728095  0.26382795  1  0  -0.477128  0  1.993045  0  0  -0.437677  0  2.216025  0  0  -0.451639  0  2.210407  0  0  -0.290065  -0.428327  0  2.220068  0
O  O75  1  0.32832359  0.97271730  0.76382747  1  0  -0.477043  0  1.993185  0  0  -0.437599  0  2.216105  0  0  -0.451553  0  2.210435  0  0  -0.290005  -0.428238  0  2.22016  0
O  O76  1  0.44484641  0.39394629  0.06368714  1  0  -0.516493  0  2.264058  0  0  -0.462168  0  2.498701  0  0  -0.48248  0  2.487911  0  0  -0.339456  -0.447949  0  2.505858  0
O  O77  1  0.55516174  0.60605453  0.56368297  1  0  -0.516412  0  2.264177  0  0  -0.462091  0  2.498823  0  0  -0.482411  0  2.488024  0  0  -0.339433  -0.447876  0  2.505974  0
O  O78  1  0.94483687  0.10605550  0.56368414  1  0  -0.516429  0  2.264229  0  0  -0.462103  0  2.498875  0  0  -0.482421  0  2.488076  0  0  -0.339431  -0.447888  0  2.506023  0
O  O79  1  0.05515502  0.89394459  0.06368664  1  0  -0.516497  0  2.264059  0  0  -0.462179  0  2.498711  0  0  -0.4825  0  2.487922  0  0  -0.339461  -0.44796  0  2.505871  0
O  O80  1  0.81594444  0.52589753  0.05403008  1  0  -0.52104  0  1.981298  0  0  -0.4825  0  2.209241  0  0  -0.500027  0  2.20471  0  0  -0.321813  -0.470529  0  2.212141  0
O  O81  1  0.18405152  0.47410702  0.55402792  1  0  -0.520981  0  1.981234  0  0  -0.482448  0  2.209217  0  0  -0.499993  0  2.204684  0  0  -0.321758  -0.470489  0  2.212102  0
O  O82  1  0.31594960  0.97410608  0.55402673  1  0  -0.520974  0  1.981229  0  0  -0.482413  0  2.209214  0  0  -0.499953  0  2.204686  0  0  -0.321771  -0.470454  0  2.2121  0
O  O83  1  0.68405856  0.02589700  0.05402992  1  0  -0.520991  0  1.981287  0  0  -0.482427  0  2.209233  0  0  -0.499945  0  2.204713  0  0  -0.321802  -0.470459  0  2.212136  0
O  O84  1  0.54647380  0.61097279  0.75534050  1  0  -0.565249  0  2.075249  0  0  -0.522231  0  2.313144  0  0  -0.542424  0  2.307428  0  0  -0.322105  -0.508349  0  2.316763  0
O  O85  1  0.45352404  0.38902478  0.25534198  1  0  -0.565312  0  2.075116  0  0  -0.522255  0  2.313032  0  0  -0.54244  0  2.307315  0  0  -0.322126  -0.508364  0  2.316677  0
O  O86  1  0.04647317  0.88902601  0.25534149  1  0  -0.565261  0  2.075158  0  0  -0.522195  0  2.31306  0  0  -0.542374  0  2.307344  0  0  -0.322096  -0.508304  0  2.316702  0
O  O87  1  0.95352671  0.11097450  0.75534032  1  0  -0.565273  0  2.075234  0  0  -0.522201  0  2.313161  0  0  -0.542403  0  2.307437  0  0  -0.322087  -0.50832  0  2.316787  0
O  O88  1  0.95576960  0.66579218  0.65455319  1  0  -0.638427  0  2.141323  0  0  -0.572262  0  2.37103  0  0  -0.591792  0  2.3579  0  0  -0.439129  -0.558543  0  2.379956  0
O  O89  1  0.04423035  0.33420815  0.15455564  1  0  -0.638523  0  2.141248  0  0  -0.572357  0  2.370955  0  0  -0.591887  0  2.357831  0  0  -0.439146  -0.55863  0  2.379884  0
O  O90  1  0.45576892  0.83420869  0.15455511  1  0  -0.63848  0  2.141248  0  0  -0.572287  0  2.371003  0  0  -0.591813  0  2.357878  0  0  -0.439114  -0.55856  0  2.37993  0
O  O91  1  0.54423103  0.16579237  0.65455372  1  0  -0.638504  0  2.141275  0  0  -0.572308  0  2.371035  0  0  -0.591837  0  2.357908  0  0  -0.439127  -0.558588  0  2.37996  0
