# generated using pymatgen
data_ZnH14C14S(NO)4
_symmetry_space_group_name_H-M   'P 1'
_cell_length_a   8.58982097
_cell_length_b   10.37794507
_cell_length_c   10.37795167
_cell_angle_alpha   105.61620771
_cell_angle_beta   90.00005819
_cell_angle_gamma   90.00002242
_symmetry_Int_Tables_number   1
_chemical_formula_structural   ZnH14C14S(NO)4
_chemical_formula_sum   'Zn2 H28 C28 S2 N8 O8'
_cell_volume   890.98911680
_cell_formula_units_Z   2
loop_
 _symmetry_equiv_pos_site_id
 _symmetry_equiv_pos_as_xyz
  1  'x, y, z'
loop_
 _atom_site_type_symbol
 _atom_site_label
 _atom_site_symmetry_multiplicity
 _atom_site_fract_x
 _atom_site_fract_y
 _atom_site_fract_z
 _atom_site_occupancy
 _atom_site_hle17_bader_spin_density
 _atom_site_hle17_ddec_charge
 _atom_site_hle17_ddec_spin_density
 _atom_site_hle17_ddec_sum_bond_order
 _atom_site_hle17_magmom
 _atom_site_hse06_10hf_bader_spin_density
 _atom_site_hse06_10hf_ddec_charge
 _atom_site_hse06_10hf_ddec_spin_density
 _atom_site_hse06_10hf_ddec_sum_bond_order
 _atom_site_hse06_10hf_magmom
 _atom_site_hse06_bader_spin_density
 _atom_site_hse06_ddec_charge
 _atom_site_hse06_ddec_spin_density
 _atom_site_hse06_ddec_sum_bond_order
 _atom_site_hse06_magmom
 _atom_site_pbe_bader_spin_density
 _atom_site_pbe_cm5_charge
 _atom_site_pbe_ddec_charge
 _atom_site_pbe_ddec_spin_density
 _atom_site_pbe_ddec_sum_bond_order
 _atom_site_pbe_magmom
Zn  Zn0  1  0.36057855  0.04477001  0.95523002  1  0  1.04944  0  1.885603  0  0  0.8617  0  2.365701  0  0  0.902481  0  2.3146  0  0  0.722026  0.833009  0  2.401555  0
Zn  Zn1  1  0.86057814  0.95523018  0.04477069  1  0  1.049466  0  1.885526  0  0  0.861734  0  2.365629  0  0  0.902504  0  2.314521  0  0  0.72203  0.833038  0  2.40147  0
H  H2  1  0.22657345  0.89901698  0.66268350  1  0  0.119757  0  0.953462  0  0  0.129438  0  1.00942  0  0  0.132541  0  1.007384  0  0  0.122018  0.12717  0  1.011031  0
H  H3  1  0.72657417  0.10098315  0.33731612  1  0  0.119769  0  0.953463  0  0  0.129437  0  1.009436  0  0  0.13254  0  1.007403  0  0  0.12203  0.127174  0  1.011054  0
H  H4  1  0.72657348  0.66268707  0.89901664  1  0  0.11975  0  0.953443  0  0  0.12943  0  1.009398  0  0  0.132534  0  1.007361  0  0  0.122036  0.127164  0  1.011018  0
H  H5  1  0.22657413  0.33731606  0.10098384  1  0  0.119755  0  0.95347  0  0  0.129433  0  1.009433  0  0  0.132536  0  1.007395  0  0  0.122017  0.127163  0  1.011045  0
H  H6  1  0.43370334  0.81943090  0.44634789  1  0  0.129786  0  0.940333  0  0  0.142217  0  0.994037  0  0  0.145304  0  0.992234  0  0  0.129906  0.139841  0  0.995472  0
H  H7  1  0.93370553  0.18056832  0.55365357  1  0  0.129795  0  0.940318  0  0  0.142267  0  0.99397  0  0  0.145354  0  0.992167  0  0  0.129929  0.139891  0  0.99542  0
H  H8  1  0.93370226  0.44634873  0.81943043  1  0  0.129765  0  0.940363  0  0  0.142216  0  0.994045  0  0  0.145303  0  0.992242  0  0  0.129913  0.13984  0  0.99549  0
H  H9  1  0.43370544  0.55365254  0.18056872  1  0  0.12981  0  0.940317  0  0  0.142248  0  0.994009  0  0  0.145335  0  0.992206  0  0  0.129924  0.139871  0  0.995448  0
H  H10  1  0.68856572  0.98530038  0.80096937  1  0  0.114347  0  0.996958  0  0  0.119395  0  1.064838  0  0  0.122907  0  1.060593  0  0  0.133717  0.116782  0  1.067961  0
H  H11  1  0.18856634  0.01469770  0.19903157  1  0  0.114326  0  0.996937  0  0  0.119367  0  1.064826  0  0  0.122879  0  1.060581  0  0  0.133695  0.116752  0  1.067941  0
H  H12  1  0.18856585  0.80096883  0.98530321  1  0  0.114358  0  0.996949  0  0  0.119401  0  1.064832  0  0  0.122914  0  1.060587  0  0  0.133709  0.116786  0  1.067954  0
H  H13  1  0.68856388  0.19903028  0.01469609  1  0  0.114377  0  0.996905  0  0  0.119395  0  1.064821  0  0  0.122907  0  1.060577  0  0  0.133721  0.116782  0  1.067948  0
H  H14  1  0.73670037  0.92206522  0.44842203  1  0  0.0927  0  0.949588  0  0  0.105487  0  1.013533  0  0  0.106142  0  1.01372  0  0  0.112278  0.105003  0  1.013341  0
H  H15  1  0.23670262  0.07793389  0.55157828  1  0  0.092689  0  0.949566  0  0  0.10547  0  1.013512  0  0  0.106146  0  1.013677  0  0  0.112273  0.104988  0  1.013313  0
H  H16  1  0.23669828  0.44842153  0.92206715  1  0  0.092698  0  0.949555  0  0  0.105485  0  1.013503  0  0  0.106129  0  1.013701  0  0  0.112282  0.105005  0  1.013309  0
H  H17  1  0.73670121  0.55157659  0.07793288  1  0  0.092686  0  0.949577  0  0  0.105487  0  1.013514  0  0  0.106142  0  1.013701  0  0  0.112281  0.105001  0  1.013325  0
H  H18  1  0.83918339  0.92187350  0.59766873  1  0  0.104554  0  0.929096  0  0  0.118454  0  0.99021  0  0  0.120007  0  0.988735  0  0  0.117164  0.117263  0  0.991301  0
H  H19  1  0.33918429  0.07812669  0.40233101  1  0  0.104581  0  0.929035  0  0  0.118428  0  0.990208  0  0  0.11998  0  0.988736  0  0  0.117174  0.117239  0  0.991294  0
H  H20  1  0.33918357  0.59766843  0.92187524  1  0  0.104597  0  0.929019  0  0  0.118435  0  0.990205  0  0  0.119988  0  0.988728  0  0  0.117171  0.117248  0  0.991296  0
H  H21  1  0.83918527  0.40232973  0.07812585  1  0  0.104565  0  0.929014  0  0  0.118427  0  0.99018  0  0  0.11998  0  0.988705  0  0  0.117164  0.117238  0  0.99127  0
H  H22  1  0.87655900  0.69269055  0.65062130  1  0  0.08914  0  0.96903  0  0  0.097616  0  1.034899  0  0  0.099802  0  1.034972  0  0  0.095607  0.0959  0  1.035182  0
H  H23  1  0.37656111  0.30730865  0.34937915  1  0  0.089142  0  0.969031  0  0  0.097643  0  1.034864  0  0  0.099833  0  1.034932  0  0  0.095625  0.095925  0  1.035148  0
H  H24  1  0.37655791  0.65062175  0.69269330  1  0  0.089166  0  0.969063  0  0  0.097653  0  1.03491  0  0  0.09984  0  1.034984  0  0  0.095626  0.095936  0  1.035199  0
H  H25  1  0.87655871  0.34937745  0.30730715  1  0  0.089112  0  0.969049  0  0  0.09763  0  1.034868  0  0  0.099818  0  1.034941  0  0  0.095617  0.095913  0  1.035154  0
H  H26  1  0.93551354  0.45271664  0.54728196  1  0  0.078629  0  0.969758  0  0  0.085592  0  1.038031  0  0  0.087767  0  1.038155  0  0  0.094469  0.084612  0  1.036928  0
H  H27  1  0.43551007  0.54728459  0.45271912  1  0  0.078615  0  0.969762  0  0  0.085569  0  1.038053  0  0  0.087742  0  1.038179  0  0  0.094463  0.084585  0  1.03695  0
H  H28  1  0.69921748  0.72713313  0.27286505  1  0  0.105057  0  0.982202  0  0  0.11062  0  1.054147  0  0  0.11363  0  1.052652  0  0  0.099188  0.108341  0  1.055755  0
H  H29  1  0.19921654  0.27286600  0.72713330  1  0  0.105061  0  0.982193  0  0  0.11065  0  1.0541  0  0  0.113661  0  1.052607  0  0  0.09919  0.108369  0  1.05571  0
C  C30  1  0.35275070  0.90106298  0.65918766  1  0  -0.004195  0  3.747458  0  0  -0.034325  0  4.009524  0  0  -0.032231  0  4.02819  0  0  -0.000527  -0.036091  0  3.997179  0
C  C31  1  0.85275142  0.09893621  0.34081277  1  0  -0.004244  0  3.747525  0  0  -0.034373  0  4.009626  0  0  -0.03228  0  4.028291  0  0  -0.000562  -0.036155  0  3.997306  0
C  C32  1  0.85274957  0.65918791  0.90106288  1  0  -0.004242  0  3.747403  0  0  -0.034372  0  4.009483  0  0  -0.032278  0  4.028147  0  0  -0.000589  -0.03615  0  3.997158  0
C  C33  1  0.35275022  0.34081431  0.09893648  1  0  -0.004167  0  3.747356  0  0  -0.034302  0  4.009435  0  0  -0.032206  0  4.028096  0  0  -0.000533  -0.036066  0  3.997091  0
C  C34  1  0.45284933  0.86102934  0.55262675  1  0  -0.055061  0  3.644519  0  0  -0.096411  0  3.900102  0  0  -0.094891  0  3.91828  0  0  0.009035  -0.096753  0  3.886921  0
C  C35  1  0.95284904  0.13897091  0.44737405  1  0  -0.055038  0  3.644515  0  0  -0.096423  0  3.900062  0  0  -0.094903  0  3.918241  0  0  0.009028  -0.096759  0  3.886892  0
C  C36  1  0.95284707  0.55262804  0.86102878  1  0  -0.055038  0  3.644558  0  0  -0.09641  0  3.900145  0  0  -0.094889  0  3.918325  0  0  0.009026  -0.096744  0  3.886973  0
C  C37  1  0.45284898  0.44737324  0.13897039  1  0  -0.055124  0  3.644575  0  0  -0.09648  0  3.90014  0  0  -0.09496  0  3.918318  0  0  0.008999  -0.096823  0  3.886963  0
C  C38  1  0.58904323  0.94899194  0.73663754  1  0  0.161207  0  3.634252  0  0  0.100739  0  3.890554  0  0  0.114268  0  3.90349  0  0  0.14249  0.091757  0  3.881919  0
C  C39  1  0.08904394  0.05100707  0.26336358  1  0  0.161173  0  3.634315  0  0  0.100722  0  3.890597  0  0  0.114251  0  3.903532  0  0  0.142498  0.091749  0  3.881936  0
C  C40  1  0.08904453  0.73663687  0.94899216  1  0  0.161188  0  3.634282  0  0  0.100728  0  3.890576  0  0  0.114257  0  3.90351  0  0  0.142524  0.091747  0  3.881925  0
C  C41  1  0.58904380  0.26336318  0.05100733  1  0  0.161177  0  3.634303  0  0  0.10074  0  3.890588  0  0  0.11427  0  3.903521  0  0  0.142491  0.091761  0  3.881949  0
C  C42  1  0.74762496  0.87159626  0.52813020  1  0  -0.056113  0  3.63457  0  0  -0.120922  0  3.87743  0  0  -0.116707  0  3.888012  0  0  -0.048374  -0.123621  0  3.87004  0
C  C43  1  0.24762597  0.12840388  0.47186944  1  0  -0.056075  0  3.634432  0  0  -0.120856  0  3.877324  0  0  -0.116655  0  3.887896  0  0  -0.048356  -0.123562  0  3.869935  0
C  C44  1  0.24762399  0.52813116  0.87159738  1  0  -0.056147  0  3.634463  0  0  -0.120911  0  3.877319  0  0  -0.116689  0  3.887905  0  0  -0.048387  -0.123621  0  3.869941  0
C  C45  1  0.74762578  0.47186796  0.12840294  1  0  -0.05604  0  3.634376  0  0  -0.120838  0  3.87726  0  0  -0.116623  0  3.887843  0  0  -0.048346  -0.123538  0  3.869875  0
C  C46  1  0.78393880  0.72555691  0.46825783  1  0  0.073019  0  3.772744  0  0  0.093367  0  4.012734  0  0  0.092116  0  4.038094  0  0  -0.016972  0.094236  0  3.995299  0
C  C47  1  0.28393996  0.27444223  0.53174252  1  0  0.072986  0  3.772698  0  0  0.093354  0  4.012671  0  0  0.092102  0  4.038036  0  0  -0.016984  0.094217  0  3.995242  0
C  C48  1  0.28393896  0.46825838  0.72555721  1  0  0.073035  0  3.77268  0  0  0.093388  0  4.012656  0  0  0.092139  0  4.038009  0  0  -0.016972  0.094254  0  3.995228  0
C  C49  1  0.78393980  0.53174076  0.27444314  1  0  0.072979  0  3.772764  0  0  0.09333  0  4.012772  0  0  0.092078  0  4.03813  0  0  -0.016977  0.094194  0  3.99534  0
C  C50  1  0.85005546  0.64770215  0.54521122  1  0  -0.117538  0  3.746954  0  0  -0.138293  0  3.990591  0  0  -0.140997  0  4.012798  0  0  -0.092966  -0.13631  0  3.975645  0
C  C51  1  0.35005539  0.35229705  0.45478824  1  0  -0.117562  0  3.746864  0  0  -0.138339  0  3.990492  0  0  -0.141043  0  4.012694  0  0  -0.092971  -0.136348  0  3.97554  0
C  C52  1  0.35005556  0.54521257  0.64770565  1  0  -0.117642  0  3.747016  0  0  -0.138398  0  3.990637  0  0  -0.141102  0  4.012841  0  0  -0.092985  -0.136413  0  3.975695  0
C  C53  1  0.85005646  0.45478762  0.35229506  1  0  -0.117545  0  3.746919  0  0  -0.138335  0  3.990563  0  0  -0.141038  0  4.012767  0  0  -0.092996  -0.136344  0  3.975613  0
C  C54  1  0.88265561  0.51268957  0.48731023  1  0  -0.064619  0  3.808475  0  0  -0.074267  0  4.056111  0  0  -0.07627  0  4.079016  0  0  -0.09412  -0.073019  0  4.039922  0
C  C55  1  0.38265567  0.48731060  0.51269243  1  0  -0.064528  0  3.808459  0  0  -0.074175  0  4.05607  0  0  -0.076177  0  4.078975  0  0  -0.09411  -0.072926  0  4.039878  0
C  C56  1  0.75123022  0.66685551  0.33314323  1  0  -0.172342  0  3.716738  0  0  -0.197956  0  3.959331  0  0  -0.201827  0  3.98179  0  0  -0.094727  -0.195296  0  3.944246  0
C  C57  1  0.25122692  0.33314363  0.66685614  1  0  -0.172375  0  3.71666  0  0  -0.198014  0  3.959216  0  0  -0.20189  0  3.981677  0  0  -0.094756  -0.19535  0  3.94413  0
S  S58  1  0.01529076  0.11961700  0.88038358  1  0  1.54727  0  5.87264  0  0  1.433124  0  6.406399  0  0  1.489071  0  6.370092  0  0  0.548814  1.394294  0  6.430515  0
S  S59  1  0.51529158  0.88038400  0.11961612  1  0  1.547196  0  5.872723  0  0  1.433042  0  6.4065  0  0  1.488991  0  6.370187  0  0  0.548771  1.394184  0  6.430651  0
N  N60  1  0.43938937  0.95608887  0.77340156  1  0  -0.403803  0  3.338252  0  0  -0.322142  0  3.64567  0  0  -0.342973  0  3.657837  0  0  -0.368803  -0.308163  0  3.637848  0
N  N61  1  0.93938993  0.04391136  0.22660019  1  0  -0.403792  0  3.338253  0  0  -0.322138  0  3.645665  0  0  -0.342964  0  3.657825  0  0  -0.36881  -0.308155  0  3.637833  0
N  N62  1  0.93939055  0.77340259  0.95608987  1  0  -0.403804  0  3.3381  0  0  -0.322144  0  3.645516  0  0  -0.342971  0  3.657677  0  0  -0.368801  -0.308153  0  3.637676  0
N  N63  1  0.43938991  0.22659768  0.04390901  1  0  -0.403853  0  3.3381  0  0  -0.322199  0  3.64552  0  0  -0.34303  0  3.657683  0  0  -0.368823  -0.308219  0  3.637695  0
N  N64  1  0.60089320  0.89246236  0.60375839  1  0  -0.038335  0  3.554684  0  0  0.056681  0  3.771569  0  0  0.042338  0  3.797709  0  0  -0.233662  0.066247  0  3.753492  0
N  N65  1  0.10089411  0.10753568  0.39624150  1  0  -0.038311  0  3.554647  0  0  0.056707  0  3.771524  0  0  0.042364  0  3.797671  0  0  -0.23365  0.066271  0  3.753443  0
N  N66  1  0.10089337  0.60375933  0.89246323  1  0  -0.038287  0  3.554697  0  0  0.056726  0  3.771573  0  0  0.042385  0  3.797712  0  0  -0.233648  0.066293  0  3.753493  0
N  N67  1  0.60089394  0.39624073  0.10753627  1  0  -0.038309  0  3.554671  0  0  0.056715  0  3.77152  0  0  0.042372  0  3.797661  0  0  -0.233652  0.066279  0  3.753446  0
O  O68  1  0.13036770  0.04950132  0.95050176  1  0  -0.777184  0  2.055819  0  0  -0.698439  0  2.36172  0  0  -0.721782  0  2.33609  0  0  -0.379377  -0.681665  0  2.378481  0
O  O69  1  0.63036846  0.95049972  0.04949997  1  0  -0.777184  0  2.05587  0  0  -0.698427  0  2.361772  0  0  -0.721768  0  2.336137  0  0  -0.379367  -0.681657  0  2.378563  0
O  O70  1  0.85796026  0.07630040  0.92369967  1  0  -0.75532  0  2.077035  0  0  -0.673243  0  2.357275  0  0  -0.698485  0  2.335053  0  0  -0.370133  -0.655346  0  2.372418  0
O  O71  1  0.35796116  0.92369981  0.07630009  1  0  -0.755298  0  2.077074  0  0  -0.673214  0  2.357306  0  0  -0.698462  0  2.335088  0  0  -0.370107  -0.655305  0  2.372448  0
O  O72  1  0.03033405  0.07008160  0.73456983  1  0  -0.714921  0  1.904129  0  0  -0.674864  0  2.150382  0  0  -0.694919  0  2.133142  0  0  -0.363991  -0.660728  0  2.162141  0
O  O73  1  0.53033507  0.92991839  0.26543055  1  0  -0.714882  0  1.90414  0  0  -0.674813  0  2.150381  0  0  -0.694866  0  2.133134  0  0  -0.363955  -0.660658  0  2.162133  0
O  O74  1  0.53033374  0.73456900  0.07008168  1  0  -0.714886  0  1.904123  0  0  -0.674816  0  2.150366  0  0  -0.69487  0  2.13312  0  0  -0.363959  -0.660664  0  2.162124  0
O  O75  1  0.03033305  0.26543101  0.92991775  1  0  -0.714919  0  1.904139  0  0  -0.674847  0  2.150383  0  0  -0.694899  0  2.133136  0  0  -0.363974  -0.660709  0  2.162133  0
