# generated using pymatgen
data_ZnH9C27S5N2O21F5
_symmetry_space_group_name_H-M   'P 1'
_cell_length_a   9.61485585
_cell_length_b   10.73923197
_cell_length_c   27.71702352
_cell_angle_alpha   92.45111164
_cell_angle_beta   84.41669154
_cell_angle_gamma   83.72534191
_symmetry_Int_Tables_number   1
_chemical_formula_structural   ZnH9C27S5N2O21F5
_chemical_formula_sum   'Zn2 H18 C54 S10 N4 O42 F10'
_cell_volume   2827.18463427
_cell_formula_units_Z   2
loop_
 _symmetry_equiv_pos_site_id
 _symmetry_equiv_pos_as_xyz
  1  'x, y, z'
loop_
 _atom_site_type_symbol
 _atom_site_label
 _atom_site_symmetry_multiplicity
 _atom_site_fract_x
 _atom_site_fract_y
 _atom_site_fract_z
 _atom_site_occupancy
 _atom_site_pbe_bader_charge
 _atom_site_pbe_bader_spin_density
 _atom_site_pbe_cm5_charge
 _atom_site_pbe_ddec_charge
 _atom_site_pbe_ddec_spin_density
 _atom_site_pbe_ddec_sum_bond_order
 _atom_site_pbe_magmom
Zn  Zn0  1  0.65086634  0.48271320  0.48925151  1  1.302667  0  0.69558  0.861479  0  2.335199  0
Zn  Zn1  1  0.34660853  0.51069919  0.50731747  1  1.300182  0  0.685866  0.84186  0  2.377381  0
H  H2  1  0.67352452  0.92250112  0.55426619  1  0.12484  0  0.125804  0.148027  0  0.941783  0
H  H3  1  0.34652358  0.06951117  0.43669032  1  0.143387  0  0.132282  0.158134  0  0.930548  0
H  H4  1  0.15501958  0.30226531  0.47509926  1  0.187034  0  0.140272  0.158615  0  0.943818  0
H  H5  1  0.83969784  0.67779078  0.53187773  1  0.185524  0  0.138876  0.15697  0  0.949021  0
H  H6  1  0.57585878  0.40094635  0.75600879  1  0.103103  0  0.127359  0.149304  0  0.963094  0
H  H7  1  0.38009740  0.66161194  0.25268051  1  0.111979  0  0.12447  0.142462  0  0.971995  0
H  H8  1  0.62965803  0.30319827  0.25917350  1  0.145307  0  0.138796  0.173721  0  0.938375  0
H  H9  1  0.36563189  0.76488988  0.72993918  1  0.120423  0  0.136124  0.17102  0  0.940446  0
H  H10  1  0.66100811  0.32457772  0.59137267  1  0.654211  0  0.309251  0.37359  0  0.965072  0
H  H11  1  0.29461252  0.69830457  0.42281729  1  0.654745  0  0.318684  0.378381  0  0.934358  0
H  H12  1  0.97507404  0.90744006  0.47248269  1  0.690165  0  0.314431  0.391458  0  0.9395  0
H  H13  1  0.17343013  0.14224197  0.57735795  1  0.639459  0  0.35331  0.412335  0  0.829843  0
H  H14  1  0.00622748  0.61942695  0.36610085  1  0.687204  0  0.324317  0.411146  0  0.90695  0
H  H15  1  0.86519035  0.45157476  0.65019034  1  0.686931  0  0.309504  0.387488  0  0.953686  0
H  H16  1  0.00180783  0.61519215  0.88356968  1  0.656104  0  0.314272  0.373183  0  0.948053  0
H  H17  1  0.65410607  0.77513830  0.20612989  1  0.66229  0  0.321409  0.384434  0  0.949524  0
H  H18  1  0.65354948  0.05828526  0.99241417  1  0.685312  0  0.332645  0.412544  0  0.882496  0
H  H19  1  0.91397622  0.82680926  0.89233366  1  0.658106  0  0.359732  0.419679  0  0.817707  0
C  C20  1  0.51276305  0.25908847  0.48857922  1  1.64033  0  0.224549  0.612615  0  4.171964  0
C  C21  1  0.49704397  0.73422002  0.50583120  1  1.605652  0  0.226059  0.62056  0  4.160183  0
C  C22  1  0.46682471  0.59594953  0.90037173  1  0.017878  0  0.012398  0.05793  0  3.982305  0
C  C23  1  0.54222594  0.51118321  0.09819060  1  0.013693  0  0.012922  0.05423  0  3.971955  0
C  C24  1  0.35995534  0.53646887  0.87953728  1  0.034656  0  0.005217  -0.045622  0  3.940985  0
C  C25  1  0.59165304  0.60555403  0.12805053  1  -0.012104  0  0.009777  -0.046245  0  3.909463  0
C  C26  1  0.26967434  0.47147684  0.90930452  1  -0.070363  0  0.005854  -0.168293  0  3.850243  0
C  C27  1  0.62083018  0.71984204  0.10825884  1  -0.031327  0  0.00276  -0.171451  0  3.803357  0
C  C28  1  0.54174685  0.68097671  0.87312063  1  0.055184  0  -0.008313  -0.163626  0  3.963374  0
C  C29  1  0.49832439  0.40023340  0.11832041  1  0.0702  0  -0.011879  -0.178623  0  3.966221  0
C  C30  1  0.50780815  0.52513635  0.64785664  1  0.081225  0  -0.010987  -0.143884  0  3.912972  0
C  C31  1  0.46544658  0.50391148  0.35222189  1  0.075934  0  -0.005712  -0.125838  0  3.911385  0
C  C32  1  0.47728996  0.43640028  0.01874725  1  0.037695  0  0.019066  0.083264  0  3.952184  0
C  C33  1  0.58637575  0.64709746  0.97352020  1  0.058513  0  0.031367  0.106113  0  3.890835  0
C  C34  1  0.58120033  0.63597296  0.02620768  1  0.090107  0  0.003152  -0.058673  0  3.948562  0
C  C35  1  0.43011559  0.47839816  0.97333610  1  0.079702  0  0.002811  -0.05154  0  3.966845  0
C  C36  1  0.53540556  0.52716572  0.04760099  1  0.045552  0  0.012155  0.022411  0  3.921516  0
C  C37  1  0.49492534  0.57463604  0.94912086  1  0.040502  0  0.014773  0.022832  0  3.903918  0
C  C38  1  0.46218229  0.31827440  0.03702431  1  -0.071458  0  -0.008433  -0.225842  0  3.867745  0
C  C39  1  0.66487552  0.72632126  0.94497832  1  -0.092335  0  -0.016531  -0.257963  0  3.893059  0
C  C40  1  0.46844763  0.30375022  0.08703585  1  0.574516  0  0.142339  0.31046  0  3.9985  0
C  C41  1  0.63609708  0.74450888  0.89662068  1  0.485601  0  0.123354  0.283897  0  4.021987  0
C  C42  1  0.51220204  0.49897727  0.59395803  1  1.625668  0  0.229302  0.62195  0  4.149476  0
C  C43  1  0.46141953  0.51183345  0.40667295  1  1.627421  0  0.223036  0.611046  0  4.190264  0
C  C44  1  0.31172654  0.43805865  0.95455462  1  0.547828  0  0.130803  0.264305  0  4.000405  0
C  C45  1  0.60816876  0.73205867  0.05839212  1  0.548468  0  0.127453  0.262333  0  3.998156  0
C  C46  1  0.64462175  0.01555308  0.47873023  1  -0.121872  0  -0.007085  -0.16094  0  3.623439  0
C  C47  1  0.37617774  0.97682848  0.51188813  1  -0.127558  0  -0.011304  -0.175101  0  3.706845  0
C  C48  1  0.54560941  0.93279066  0.45282049  1  0.67512  0  0.128478  0.294856  0  3.691384  0
C  C49  1  0.47481054  0.05844601  0.53787998  1  0.632911  0  0.119078  0.281632  0  3.716381  0
C  C50  1  0.50335848  0.87127555  0.50237463  1  -0.00359  0  0.002374  -0.074459  0  3.634652  0
C  C51  1  0.51621506  0.12048623  0.48899135  1  -0.006923  0  0.001261  -0.073547  0  3.647009  0
C  C52  1  0.60191568  0.95500058  0.52800119  1  -0.028187  0  -0.06383  -0.121818  0  3.593983  0
C  C53  1  0.41850644  0.03704835  0.46284153  1  -0.022618  0  -0.059478  -0.119065  0  3.584028  0
C  C54  1  0.07951301  0.38360033  0.48685006  1  0.196043  0  0.035466  -0.011587  0  3.502542  0
C  C55  1  0.91560309  0.59656841  0.52033760  1  0.190839  0  0.029735  -0.022203  0  3.526283  0
C  C56  1  0.98917224  0.46933489  0.45569744  1  0.112198  0  0.083251  -0.077226  0  3.599943  0
C  C57  1  0.00723189  0.51072062  0.55124457  1  0.107797  0  0.080254  -0.084458  0  3.617076  0
C  C58  1  0.95390232  0.39520516  0.52649936  1  0.93309  0  0.213063  0.360378  0  3.726073  0
C  C59  1  0.04066325  0.58484980  0.48096300  1  0.908465  0  0.211139  0.356002  0  3.747545  0
C  C60  1  0.35692169  0.53231915  0.82612755  1  1.346384  0  0.243013  0.429612  0  4.10982  0
C  C61  1  0.60794750  0.57680489  0.17929763  1  1.340651  0  0.262027  0.455603  0  4.041572  0
C  C62  1  0.52883198  0.69334588  0.82059832  1  1.392219  0  0.250607  0.464999  0  4.086678  0
C  C63  1  0.47766845  0.38903782  0.17121705  1  1.355528  0  0.253466  0.46524  0  4.094106  0
C  C64  1  0.41832880  0.67300209  0.71705462  1  0.106811  0  -0.070144  -0.247743  0  3.904351  0
C  C65  1  0.56735470  0.38653756  0.27668869  1  0.132349  0  -0.068532  -0.244049  0  3.900353  0
C  C66  1  0.44009357  0.64136871  0.66755215  1  0.485352  0  0.124505  0.309824  0  4.004338  0
C  C67  1  0.54270088  0.39871580  0.32698539  1  0.459175  0  0.12699  0.310631  0  3.99875  0
C  C68  1  0.56062628  0.44087445  0.68109345  1  -0.139332  0  -0.004729  -0.075672  0  3.936118  0
C  C69  1  0.40325084  0.59627808  0.32421758  1  -0.128763  0  -0.003052  -0.069371  0  3.943152  0
C  C70  1  0.53809352  0.46920163  0.73095291  1  0.05174  0  -0.073991  -0.17276  0  3.94257  0
C  C71  1  0.42603921  0.58718089  0.27370547  1  -0.008442  0  -0.077343  -0.178309  0  3.948962  0
C  C72  1  0.46594900  0.58429104  0.74845939  1  0.313586  0  0.105879  0.240571  0  4.017181  0
C  C73  1  0.51034784  0.48391978  0.25060791  1  0.397754  0  0.102744  0.231433  0  4.021291  0
S  S74  1  0.67283112  0.29651693  0.66639764  1  3.135303  0  0.555659  1.176237  0  5.993294  0
S  S75  1  0.28392702  0.72984676  0.34734616  1  3.108668  0  0.561756  1.189322  0  5.978144  0
S  S76  1  0.81410251  0.03933306  0.45111056  1  3.116603  0  0.536126  1.177285  0  6.00864  0
S  S77  1  0.20401295  0.96368821  0.53763894  1  3.104804  0  0.551498  1.182295  0  5.988945  0
S  S78  1  0.97166895  0.43881958  0.39237620  1  3.207335  0  0.544766  1.134746  0  6.083093  0
S  S79  1  0.04476786  0.52811668  0.61304603  1  3.211617  0  0.541431  1.152683  0  6.10663  0
S  S80  1  0.09688147  0.43431907  0.89555855  1  3.150344  0  0.545807  1.165247  0  6.009714  0
S  S81  1  0.69232851  0.85153341  0.13898701  1  3.192129  0  0.539143  1.148391  0  6.084376  0
S  S82  1  0.45398704  0.17825693  0.99899290  1  3.155056  0  0.539025  1.166608  0  6.047161  0
S  S83  1  0.81486186  0.79736182  0.96309634  1  3.020836  0  0.559508  1.172756  0  5.932621  0
N  N84  1  0.44541448  0.60844986  0.80030188  1  -1.147947  0  -0.234035  -0.23204  0  3.577991  0
N  N85  1  0.53498511  0.48222369  0.19843785  1  -1.214313  0  -0.224945  -0.21506  0  3.58287  0
N  N86  1  0.86254118  0.48075255  0.49551748  1  -0.814263  0  -0.288787  -0.220843  0  3.014544  0
N  N87  1  0.13260300  0.50048926  0.51120313  1  -0.815887  0  -0.293545  -0.225146  0  3.033963  0
O  O88  1  0.62967050  0.30252895  0.48186336  1  -1.134146  0  -0.291957  -0.495863  0  2.398173  0
O  O89  1  0.37837382  0.69551491  0.50244703  1  -1.14437  0  -0.301863  -0.525808  0  2.360206  0
O  O90  1  0.39151642  0.32035375  0.49797403  1  -1.174759  0  -0.312419  -0.547334  0  2.345541  0
O  O91  1  0.61301304  0.66787780  0.50997384  1  -1.16361  0  -0.310205  -0.545532  0  2.344538  0
O  O92  1  0.62954765  0.45507397  0.56979336  1  -1.182631  0  -0.318717  -0.586417  0  2.341789  0
O  O93  1  0.34194350  0.51504694  0.43146759  1  -1.167435  0  -0.317592  -0.566802  0  2.349547  0
O  O94  1  0.39718546  0.52272942  0.57639304  1  -1.136542  0  -0.284938  -0.502357  0  2.406759  0
O  O95  1  0.57885110  0.51540219  0.42314873  1  -1.141265  0  -0.294924  -0.51729  0  2.357511  0
O  O96  1  0.29084674  0.46079542  0.80443314  1  -1.061911  0  -0.240079  -0.373292  0  2.122345  0
O  O97  1  0.67826768  0.63328362  0.20650610  1  -1.095686  0  -0.252024  -0.424084  0  2.197049  0
O  O98  1  0.41493329  0.31036260  0.19189907  1  -1.047801  0  -0.246054  -0.389136  0  2.068436  0
O  O99  1  0.59183639  0.76319245  0.79489356  1  -1.077173  0  -0.260243  -0.40676  0  2.071583  0
O  O100  1  0.81657413  0.33002019  0.66627843  1  -1.297985  0  -0.313386  -0.556411  0  2.224827  0
O  O101  1  0.63317325  0.20345177  0.69871083  1  -1.273366  0  -0.29478  -0.488678  0  2.083959  0
O  O102  1  0.64778430  0.25235174  0.61402201  1  -1.249195  0  -0.346558  -0.514995  0  2.280211  0
O  O103  1  0.31279292  0.83438947  0.31936762  1  -1.272159  0  -0.293108  -0.488324  0  2.087191  0
O  O104  1  0.14361983  0.69141598  0.35067274  1  -1.306691  0  -0.30844  -0.565018  0  2.25143  0
O  O105  1  0.32392110  0.76181701  0.40017235  1  -1.225981  0  -0.349694  -0.521253  0  2.282642  0
O  O106  1  0.79558521  0.06284881  0.40156116  1  -1.259077  0  -0.296553  -0.491284  0  2.108361  0
O  O107  1  0.88247777  0.12206726  0.48088571  1  -1.288772  0  -0.322735  -0.548041  0  2.210833  0
O  O108  1  0.89163939  0.90050591  0.45400424  1  -1.25387  0  -0.373407  -0.55726  0  2.186272  0
O  O109  1  0.12440056  0.91729619  0.50074025  1  -1.311839  0  -0.299209  -0.535113  0  2.287789  0
O  O110  1  0.20941142  0.90712043  0.58335824  1  -1.261494  0  -0.289741  -0.495  0  2.144713  0
O  O111  1  0.14590593  0.11007857  0.54632531  1  -1.181316  0  -0.348158  -0.529633  0  2.197876  0
O  O112  1  0.11159360  0.39607904  0.37089772  1  -1.277814  0  -0.29965  -0.501086  0  2.127316  0
O  O113  1  0.85684353  0.36556835  0.39053745  1  -1.249647  0  -0.275255  -0.470381  0  2.205421  0
O  O114  1  0.92242216  0.57424027  0.37662002  1  -1.248271  0  -0.343657  -0.506339  0  2.178831  0
O  O115  1  0.12620274  0.41205584  0.62176594  1  -1.28379  0  -0.311658  -0.514555  0  2.100182  0
O  O116  1  0.09645352  0.64725050  0.61864118  1  -1.263611  0  -0.293244  -0.483776  0  2.144199  0
O  O117  1  0.89318061  0.53774795  0.63971598  1  -1.275384  0  -0.349721  -0.524778  0  2.228448  0
O  O118  1  0.10866900  0.31746964  0.86826657  1  -1.253554  0  -0.284313  -0.468874  0  2.104208  0
O  O119  1  0.00784393  0.45767450  0.94065364  1  -1.278872  0  -0.316374  -0.534975  0  2.134852  0
O  O120  1  0.05102948  0.54495521  0.86167384  1  -1.222606  0  -0.35854  -0.518622  0  2.206742  0
O  O121  1  0.83987171  0.80845455  0.13669485  1  -1.252914  0  -0.307472  -0.507414  0  2.086906  0
O  O122  1  0.64291740  0.96618685  0.11874259  1  -1.263092  0  -0.298523  -0.494392  0  2.189747  0
O  O123  1  0.61983723  0.85838029  0.19216915  1  -1.247109  0  -0.346704  -0.502199  0  2.192659  0
O  O124  1  0.32789798  0.12404624  0.01321636  1  -1.262393  0  -0.300728  -0.499813  0  2.112356  0
O  O125  1  0.49151441  0.20493820  0.94918614  1  -1.291416  0  -0.318379  -0.538239  0  2.124913  0
O  O126  1  0.58261262  0.09731639  0.01861740  1  -1.234593  0  -0.347555  -0.523548  0  2.265212  0
O  O127  1  0.78665998  0.93217881  0.96446440  1  -1.230722  0  -0.288582  -0.521371  0  2.187091  0
O  O128  1  0.87289191  0.72975911  0.00088845  1  -1.245376  0  -0.265405  -0.451987  0  2.152015  0
O  O129  1  0.92932988  0.76149499  0.91562176  1  -1.186844  0  -0.345931  -0.539668  0  2.200921  0
F  F130  1  0.89862420  0.30403047  0.54984366  1  -0.619558  0  -0.049777  -0.081152  0  1.448723  0
F  F131  1  0.09431854  0.68053772  0.45956457  1  -0.626936  0  -0.048897  -0.09441  0  1.471698  0
F  F132  1  0.59448845  0.30375862  0.35282061  1  -0.61722  0  -0.076722  -0.105825  0  1.350308  0
F  F133  1  0.39710910  0.72931892  0.63721924  1  -0.618842  0  -0.078716  -0.107233  0  1.369285  0
F  F134  1  0.44197384  0.19419295  0.10443990  1  -0.588119  0  -0.042228  -0.05648  0  1.430264  0
F  F135  1  0.70559053  0.82944495  0.87239763  1  -0.617923  0  -0.061839  -0.109199  0  1.423507  0
F  F136  1  0.23375899  0.36529061  0.98153485  1  -0.612671  0  -0.05302  -0.081365  0  1.454609  0
F  F137  1  0.62043107  0.84426996  0.03968911  1  -0.616583  0  -0.054836  -0.092177  0  1.541974  0
F  F138  1  0.58344641  0.86640720  0.41031547  1  -0.617365  0  -0.088065  -0.122383  0  1.34763  0
F  F139  1  0.43361922  0.12391481  0.58092167  1  -0.626429  0  -0.094952  -0.143203  0  1.349164  0
