# generated using pymatgen
data_H4PbC8(N2O)2
_symmetry_space_group_name_H-M   'P 1'
_cell_length_a   7.10896028
_cell_length_b   7.38977257
_cell_length_c   9.34321683
_cell_angle_alpha   89.99967122
_cell_angle_beta   112.31102941
_cell_angle_gamma   90.00161732
_symmetry_Int_Tables_number   1
_chemical_formula_structural   H4PbC8(N2O)2
_chemical_formula_sum   'H8 Pb2 C16 N8 O4'
_cell_volume   454.08742704
_cell_formula_units_Z   2
loop_
 _symmetry_equiv_pos_site_id
 _symmetry_equiv_pos_as_xyz
  1  'x, y, z'
loop_
 _atom_site_type_symbol
 _atom_site_label
 _atom_site_symmetry_multiplicity
 _atom_site_fract_x
 _atom_site_fract_y
 _atom_site_fract_z
 _atom_site_occupancy
 _atom_site_hle17_bader_spin_density
 _atom_site_hle17_ddec_charge
 _atom_site_hle17_ddec_spin_density
 _atom_site_hle17_ddec_sum_bond_order
 _atom_site_hle17_magmom
 _atom_site_hse06_10hf_bader_spin_density
 _atom_site_hse06_10hf_ddec_charge
 _atom_site_hse06_10hf_ddec_spin_density
 _atom_site_hse06_10hf_ddec_sum_bond_order
 _atom_site_hse06_10hf_magmom
 _atom_site_hse06_bader_spin_density
 _atom_site_hse06_ddec_charge
 _atom_site_hse06_ddec_spin_density
 _atom_site_hse06_ddec_sum_bond_order
 _atom_site_hse06_magmom
 _atom_site_pbe_bader_spin_density
 _atom_site_pbe_cm5_charge
 _atom_site_pbe_ddec_charge
 _atom_site_pbe_ddec_spin_density
 _atom_site_pbe_ddec_sum_bond_order
 _atom_site_pbe_magmom
H  H0  1  0.01217945  0.77156371  0.40088228  1  0  0.093545  0  0.960057  0  0  0.102484  0  1.02507  0  0  0.104884  0  1.024929  0  0  0.10347  0.100624  0  1.025359  0
H  H1  1  0.98780714  0.27157578  0.59911893  1  0  0.09355  0  0.960041  0  0  0.102489  0  1.025064  0  0  0.104888  0  1.024926  0  0  0.103458  0.100623  0  1.02536  0
H  H2  1  0.38858714  0.22828555  0.40052210  1  0  0.093534  0  0.961112  0  0  0.101873  0  1.027035  0  0  0.104378  0  1.026732  0  0  0.103615  0.100741  0  1.025842  0
H  H3  1  0.61142394  0.72828971  0.59947568  1  0  0.093521  0  0.961152  0  0  0.101868  0  1.027092  0  0  0.104371  0  1.026792  0  0  0.10361  0.100746  0  1.025875  0
H  H4  1  0.16448722  0.76496777  0.68954592  1  0  0.101365  0  0.982452  0  0  0.101834  0  1.060065  0  0  0.105442  0  1.058165  0  0  0.102566  0.099519  0  1.059862  0
H  H5  1  0.83550677  0.26496969  0.31045532  1  0  0.101394  0  0.98239  0  0  0.101881  0  1.059976  0  0  0.10549  0  1.058073  0  0  0.102595  0.099562  0  1.059783  0
H  H6  1  0.52504485  0.23495638  0.68923448  1  0  0.101989  0  0.980991  0  0  0.103038  0  1.057121  0  0  0.106573  0  1.055482  0  0  0.102656  0.09986  0  1.059683  0
H  H7  1  0.47496948  0.73496300  0.31076314  1  0  0.101842  0  0.98093  0  0  0.102929  0  1.057049  0  0  0.10644  0  1.055429  0  0  0.102598  0.099751  0  1.059609  0
Pb  Pb8  1  0.93922077  0.00009889  0.87790790  1  0  1.232272  0  1.534874  0  0  1.031999  0  1.944638  0  0  1.08539  0  1.911031  0  0  0.637955  0.994459  0  1.966815  0
Pb  Pb9  1  0.06078007  0.50009020  0.12209116  1  0  1.232352  0  1.534863  0  0  1.032096  0  1.944639  0  0  1.085483  0  1.911033  0  0  0.637983  0.994566  0  1.966802  0
C  C10  1  0.10599876  0.00004262  0.21179795  1  0  0.671412  0  3.879012  0  0  0.604547  0  4.184986  0  0  0.642589  0  4.173298  0  0  0.231028  0.578251  0  4.193189  0
C  C11  1  0.89399143  0.50004633  0.78820766  1  0  0.671158  0  3.879607  0  0  0.604273  0  4.185556  0  0  0.642325  0  4.173827  0  0  0.230933  0.57798  0  4.19376  0
C  C12  1  0.19175330  0.99994808  0.38341632  1  0  -0.070425  0  3.763674  0  0  -0.04635  0  3.995632  0  0  -0.054034  0  4.016785  0  0  -0.012869  -0.041056  0  3.981708  0
C  C13  1  0.80824049  0.49993618  0.61658059  1  0  -0.070195  0  3.763744  0  0  -0.046127  0  3.995686  0  0  -0.053809  0  4.016851  0  0  -0.012797  -0.040834  0  3.981765  0
C  C14  1  0.12742892  0.87032587  0.46472567  1  0  -0.057473  0  3.72501  0  0  -0.076519  0  3.961484  0  0  -0.076397  0  3.982431  0  0  -0.077094  -0.07625  0  3.946563  0
C  C15  1  0.87255927  0.37032985  0.53527663  1  0  -0.057631  0  3.725327  0  0  -0.07669  0  3.961806  0  0  -0.076575  0  3.982765  0  0  -0.07716  -0.076414  0  3.946881  0
C  C16  1  0.33727350  0.12958063  0.46454184  1  0  -0.058532  0  3.726639  0  0  -0.077066  0  3.963119  0  0  -0.076996  0  3.984044  0  0  -0.077818  -0.077566  0  3.948467  0
C  C17  1  0.66273143  0.62958395  0.53545675  1  0  -0.058538  0  3.726709  0  0  -0.077087  0  3.963161  0  0  -0.077021  0  3.984087  0  0  -0.077799  -0.077574  0  3.948487  0
C  C18  1  0.20769486  0.87000836  0.62577333  1  0  -0.123933  0  3.748518  0  0  -0.138115  0  3.993517  0  0  -0.14209  0  4.01461  0  0  -0.086353  -0.134324  0  3.976297  0
C  C19  1  0.79230092  0.37001811  0.37422046  1  0  -0.123916  0  3.748449  0  0  -0.138095  0  3.993445  0  0  -0.142067  0  4.014538  0  0  -0.086354  -0.134301  0  3.976216  0
C  C20  1  0.41810966  0.12993704  0.62558405  1  0  -0.121564  0  3.745349  0  0  -0.135341  0  3.98846  0  0  -0.139421  0  4.009602  0  0  -0.085716  -0.133304  0  3.976064  0
C  C21  1  0.58190136  0.62992987  0.37441950  1  0  -0.121483  0  3.745448  0  0  -0.13529  0  3.98855  0  0  -0.139344  0  4.009709  0  0  -0.085674  -0.133251  0  3.976152  0
C  C22  1  0.35375385  0.99997481  0.70733160  1  0  0.014038  0  3.804914  0  0  0.027352  0  4.040806  0  0  0.027505  0  4.061933  0  0  0.000961  0.027079  0  4.02638  0
C  C23  1  0.64624146  0.49997441  0.29266896  1  0  0.014027  0  3.805013  0  0  0.027321  0  4.040952  0  0  0.027478  0  4.062082  0  0  0.000942  0.027045  0  4.026527  0
C  C24  1  0.43838744  0.99999429  0.87662906  1  0  0.275204  0  3.826813  0  0  0.249826  0  4.087939  0  0  0.261558  0  4.105431  0  0  0.217422  0.241846  0  4.076011  0
C  C25  1  0.56160636  0.49999688  0.12337000  1  0  0.275317  0  3.826571  0  0  0.249926  0  4.08775  0  0  0.261641  0  4.105264  0  0  0.217481  0.241947  0  4.075823  0
N  N26  1  0.46564834  0.98910403  0.11424238  1  0  -0.076088  0  2.964387  0  0  -0.069873  0  3.266965  0  0  -0.069386  0  3.279783  0  0  -0.092689  -0.068777  0  3.256621  0
N  N27  1  0.53434967  0.48909080  0.88575794  1  0  -0.075974  0  2.964344  0  0  -0.069748  0  3.26692  0  0  -0.06926  0  3.279743  0  0  -0.09258  -0.068655  0  3.25658  0
N  N28  1  0.64866051  0.01098440  0.11412446  1  0  -0.076156  0  2.96496  0  0  -0.069473  0  3.267255  0  0  -0.068889  0  3.280017  0  0  -0.093498  -0.070167  0  3.257925  0
N  N29  1  0.35134675  0.51097937  0.88588068  1  0  -0.076276  0  2.965094  0  0  -0.069585  0  3.267373  0  0  -0.069008  0  3.280136  0  0  -0.093588  -0.070278  0  3.258041  0
N  N30  1  0.33005598  0.98059811  0.96645032  1  0  -0.353487  0  3.095627  0  0  -0.293156  0  3.371578  0  0  -0.312027  0  3.390079  0  0  -0.211862  -0.280264  0  3.357101  0
N  N31  1  0.66995545  0.48058537  0.03354963  1  0  -0.353562  0  3.09516  0  0  -0.293255  0  3.371152  0  0  -0.312126  0  3.389668  0  0  -0.211903  -0.280363  0  3.356679  0
N  N32  1  0.63648420  0.01943875  0.96625198  1  0  -0.353329  0  3.093341  0  0  -0.293214  0  3.368713  0  0  -0.312015  0  3.387084  0  0  -0.211059  -0.279573  0  3.355691  0
N  N33  1  0.36352485  0.51944030  0.03375150  1  0  -0.353383  0  3.09368  0  0  -0.293265  0  3.369066  0  0  -0.312058  0  3.387441  0  0  -0.211112  -0.279626  0  3.356043  0
O  O34  1  0.08497246  0.14850049  0.13735788  1  0  -0.64586  0  2.082678  0  0  -0.561497  0  2.337959  0  0  -0.593026  0  2.329616  0  0  -0.275318  -0.540316  0  2.34208  0
O  O35  1  0.91503306  0.64848935  0.86263972  1  0  -0.64571  0  2.083248  0  0  -0.561313  0  2.338476  0  0  -0.592844  0  2.330133  0  0  -0.275223  -0.540145  0  2.342604  0
O  O36  1  0.05254102  0.85169760  0.13719975  1  0  -0.646507  0  2.083752  0  0  -0.562359  0  2.338602  0  0  -0.594064  0  2.330515  0  0  -0.275384  -0.540802  0  2.344425  0
O  O37  1  0.94745722  0.35170393  0.86279912  1  0  -0.646497  0  2.083743  0  0  -0.562316  0  2.338606  0  0  -0.593982  0  2.33043  0  0  -0.275424  -0.540756  0  2.344428  0
