# generated using pymatgen
data_ZnH11(C5O2)3
_symmetry_space_group_name_H-M   'P 1'
_cell_length_a   9.17260220
_cell_length_b   14.36943405
_cell_length_c   27.15864138
_cell_angle_alpha   89.99969056
_cell_angle_beta   90.00016606
_cell_angle_gamma   90.94662686
_symmetry_Int_Tables_number   1
_chemical_formula_structural   ZnH11(C5O2)3
_chemical_formula_sum   'Zn8 H88 C120 O48'
_cell_volume   3579.15895585
_cell_formula_units_Z   8
loop_
 _symmetry_equiv_pos_site_id
 _symmetry_equiv_pos_as_xyz
  1  'x, y, z'
loop_
 _atom_site_type_symbol
 _atom_site_label
 _atom_site_symmetry_multiplicity
 _atom_site_fract_x
 _atom_site_fract_y
 _atom_site_fract_z
 _atom_site_occupancy
 _atom_site_pbe_bader_charge
 _atom_site_pbe_bader_spin_density
 _atom_site_pbe_cm5_charge
 _atom_site_pbe_ddec_charge
 _atom_site_pbe_ddec_spin_density
 _atom_site_pbe_ddec_sum_bond_order
 _atom_site_pbe_magmom
Zn  Zn0  1  0.63257350  0.11918202  0.32279759  1  1.360781  0  0.68714  0.999769  0  2.199044  0
Zn  Zn1  1  0.36741820  0.38081923  0.82280294  1  1.360711  0  0.687213  0.999859  0  2.198985  0
Zn  Zn2  1  0.36742186  0.88082446  0.67719810  1  1.361142  0  0.687157  0.999793  0  2.199073  0
Zn  Zn3  1  0.63257599  0.61918587  0.17719717  1  1.360784  0  0.687201  0.999821  0  2.199093  0
Zn  Zn4  1  0.95677896  0.11227945  0.38423641  1  1.349109  0  0.709947  0.968318  0  2.346102  0
Zn  Zn5  1  0.04321011  0.38772401  0.88423920  1  1.349179  0  0.709911  0.968238  0  2.346191  0
Zn  Zn6  1  0.04322128  0.88771653  0.61576665  1  1.349005  0  0.709923  0.968268  0  2.345985  0
Zn  Zn7  1  0.95677837  0.61227628  0.11576790  1  1.349054  0  0.70992  0.968217  0  2.346207  0
H  H8  1  0.11315597  0.32657282  0.36187299  1  0.151859  0  0.108313  0.127533  0  1.058004  0
H  H9  1  0.88682894  0.17341768  0.86187210  1  0.152177  0  0.108319  0.127557  0  1.0579  0
H  H10  1  0.88684785  0.67342868  0.63812675  1  0.151924  0  0.108296  0.127555  0  1.058005  0
H  H11  1  0.11316540  0.82657002  0.13813132  1  0.152192  0  0.108343  0.127634  0  1.057948  0
H  H12  1  0.17709953  0.54670175  0.25448846  1  0.084119  0  0.108271  0.12091  0  1.007671  0
H  H13  1  0.82290063  0.95329874  0.75448375  1  0.08399  0  0.108274  0.120987  0  1.007623  0
H  H14  1  0.82290233  0.45330396  0.74551312  1  0.084246  0  0.108239  0.120832  0  1.007563  0
H  H15  1  0.17710431  0.04670345  0.24551120  1  0.08421  0  0.108255  0.12086  0  1.007662  0
H  H16  1  0.77890422  0.38435585  0.25568715  1  0.132092  0  0.108029  0.121536  0  1.00111  0
H  H17  1  0.22109056  0.11565230  0.75568833  1  0.131973  0  0.108047  0.121565  0  1.001072  0
H  H18  1  0.22109693  0.61565683  0.74431517  1  0.132207  0  0.10803  0.121505  0  1.001108  0
H  H19  1  0.77891337  0.88435130  0.24431619  1  0.132422  0  0.108009  0.121494  0  1.001135  0
H  H20  1  0.33617140  0.35570580  0.37726963  1  0.067574  0  0.100641  0.073533  0  1.037734  0
H  H21  1  0.66384339  0.14429047  0.87727229  1  0.067676  0  0.100675  0.073659  0  1.037678  0
H  H22  1  0.66384541  0.64429416  0.62272532  1  0.067594  0  0.100657  0.073589  0  1.03781  0
H  H23  1  0.33615512  0.85571389  0.12272377  1  0.067711  0  0.100671  0.073546  0  1.037821  0
H  H24  1  0.24166590  0.45159302  0.40235722  1  0.067933  0  0.10437  0.077002  0  1.00146  0
H  H25  1  0.75833767  0.04839338  0.90235547  1  0.067865  0  0.104316  0.076973  0  1.00141  0
H  H26  1  0.75834509  0.54840005  0.59764141  1  0.067742  0  0.104335  0.077035  0  1.00139  0
H  H27  1  0.24165198  0.95160829  0.09764390  1  0.068028  0  0.104339  0.077049  0  1.001314  0
H  H28  1  0.61124185  0.39901994  0.34506338  1  0.033543  0  0.092462  0.086762  0  1.037566  0
H  H29  1  0.38876273  0.10097398  0.84505705  1  0.033864  0  0.092514  0.086779  0  1.037477  0
H  H30  1  0.38877294  0.60098284  0.65493562  1  0.033978  0  0.092462  0.086759  0  1.03754  0
H  H31  1  0.61122992  0.89902278  0.15493496  1  0.033556  0  0.092484  0.086811  0  1.037658  0
H  H32  1  0.83980744  0.46660624  0.37746966  1  0.080318  0  0.095191  0.092341  0  1.052462  0
H  H33  1  0.16019642  0.03338946  0.87746219  1  0.080249  0  0.095286  0.092438  0  1.0524  0
H  H34  1  0.16020287  0.53339450  0.62253045  1  0.080428  0  0.095245  0.092399  0  1.052343  0
H  H35  1  0.83979285  0.96660526  0.12252982  1  0.080431  0  0.09526  0.092456  0  1.052334  0
H  H36  1  0.59672944  0.62931776  0.48130181  1  0.04223  0  0.09698  0.093272  0  1.036859  0
H  H37  1  0.40326439  0.87069102  0.98130171  1  0.042222  0  0.096977  0.093241  0  1.036883  0
H  H38  1  0.40328223  0.37068784  0.51869792  1  0.042294  0  0.096982  0.093274  0  1.036803  0
H  H39  1  0.59673040  0.12930502  0.01869582  1  0.041971  0  0.097  0.093228  0  1.036866  0
H  H40  1  0.36732030  0.55839955  0.45001047  1  0.067927  0  0.097759  0.092143  0  1.054902  0
H  H41  1  0.63267212  0.94160816  0.95001518  1  0.067862  0  0.097771  0.092099  0  1.055001  0
H  H42  1  0.63269550  0.44160182  0.54998890  1  0.067941  0  0.097778  0.092129  0  1.054933  0
H  H43  1  0.36730867  0.05841102  0.04998898  1  0.067933  0  0.097732  0.092096  0  1.054737  0
H  H44  1  0.98845027  0.59246939  0.38234424  1  0.056514  0  0.098259  0.098536  0  1.012507  0
H  H45  1  0.01154791  0.90753474  0.88234695  1  0.056605  0  0.098218  0.098505  0  1.012579  0
H  H46  1  0.01155809  0.40753555  0.61765844  1  0.056438  0  0.098335  0.098699  0  1.012289  0
H  H47  1  0.98843755  0.09245027  0.11765316  1  0.056741  0  0.098276  0.098632  0  1.012387  0
H  H48  1  0.21334174  0.66460658  0.41600338  1  0.086029  0  0.102807  0.105285  0  1.002328  0
H  H49  1  0.78666272  0.83538740  0.91600671  1  0.085977  0  0.102814  0.105344  0  1.002321  0
H  H50  1  0.78667305  0.33539619  0.58399488  1  0.08616  0  0.102886  0.105487  0  1.002193  0
H  H51  1  0.21332286  0.16459970  0.08399892  1  0.085797  0  0.102884  0.105453  0  1.002192  0
H  H52  1  0.01538415  0.67966744  0.55921698  1  0.107596  0  0.098109  0.107886  0  1.04545  0
H  H53  1  0.98464232  0.82032632  0.05921840  1  0.107629  0  0.098031  0.107822  0  1.04536  0
H  H54  1  0.98464311  0.32034424  0.44078129  1  0.107311  0  0.098105  0.107868  0  1.045504  0
H  H55  1  0.01538504  0.17964706  0.94078097  1  0.107724  0  0.098089  0.107899  0  1.045598  0
H  H56  1  0.78945051  0.60751456  0.52573200  1  0.071892  0  0.095058  0.088212  0  1.044687  0
H  H57  1  0.21056322  0.89249081  0.02573242  1  0.071541  0  0.095063  0.088212  0  1.044639  0
H  H58  1  0.21056943  0.39250277  0.47427142  1  0.071559  0  0.095071  0.088268  0  1.044679  0
H  H59  1  0.78945865  0.10748194  0.97426290  1  0.071611  0  0.095069  0.088321  0  1.044611  0
H  H60  1  0.24899343  0.74820892  0.54733238  1  0.088517  0  0.102579  0.084429  0  0.999408  0
H  H61  1  0.75102712  0.75177805  0.04733376  1  0.088601  0  0.10263  0.084549  0  0.999248  0
H  H62  1  0.75101298  0.25180022  0.45266478  1  0.088284  0  0.102586  0.084527  0  0.99925  0
H  H63  1  0.24899724  0.24820024  0.95267076  1  0.088401  0  0.102546  0.084523  0  0.99944  0
H  H64  1  0.35543236  0.66772405  0.51341259  1  0.052994  0  0.098848  0.066587  0  1.001701  0
H  H65  1  0.64459393  0.83227364  0.01341915  1  0.052761  0  0.098861  0.066658  0  1.001566  0
H  H66  1  0.64459205  0.33229532  0.48658972  1  0.052962  0  0.098836  0.066597  0  1.001635  0
H  H67  1  0.35541574  0.16771527  0.98659531  1  0.053026  0  0.098868  0.06666  0  1.001708  0
H  H68  1  0.40763405  0.91495597  0.41771602  1  0.115866  0  0.11544  0.135351  0  0.97631  0
H  H69  1  0.59234837  0.58505357  0.91771914  1  0.115803  0  0.115476  0.135424  0  0.976443  0
H  H70  1  0.59235158  0.08505202  0.58228078  1  0.115793  0  0.115455  0.135405  0  0.976412  0
H  H71  1  0.40762399  0.41495109  0.08228354  1  0.115719  0  0.115413  0.135325  0  0.976282  0
H  H72  1  0.81686902  0.96530442  0.49197281  1  0.150054  0  0.113515  0.133144  0  0.997904  0
H  H73  1  0.18312377  0.53470356  0.99197604  1  0.150025  0  0.113525  0.133204  0  0.998012  0
H  H74  1  0.18313006  0.03469018  0.50802325  1  0.15002  0  0.113449  0.133118  0  0.997929  0
H  H75  1  0.81686452  0.46529325  0.00802959  1  0.150308  0  0.113491  0.133197  0  0.997964  0
H  H76  1  0.50761394  0.76855741  0.55243215  1  0.091823  0  0.102066  0.107051  0  1.043859  0
H  H77  1  0.49238919  0.73144921  0.05243885  1  0.09156  0  0.102093  0.107137  0  1.043639  0
H  H78  1  0.49238950  0.23143713  0.44756022  1  0.091476  0  0.102066  0.107153  0  1.043688  0
H  H79  1  0.50759738  0.26855598  0.94756604  1  0.089472  0  0.1021  0.107145  0  1.043774  0
H  H80  1  0.47577375  0.26985133  0.32409596  1  0.61255  0  0.316401  0.394615  0  0.899164  0
H  H81  1  0.52421217  0.23014371  0.82410191  1  0.612506  0  0.316391  0.394575  0  0.899243  0
H  H82  1  0.52422338  0.73014747  0.67590047  1  0.612616  0  0.316377  0.39449  0  0.89913  0
H  H83  1  0.47576973  0.76985596  0.17589820  1  0.612607  0  0.31641  0.394544  0  0.899181  0
H  H84  1  0.37505517  0.20256728  0.35736092  1  0.663707  0  0.29196  0.403748  0  0.936425  0
H  H85  1  0.62493764  0.29742875  0.85736346  1  0.663666  0  0.292001  0.403723  0  0.936435  0
H  H86  1  0.62493775  0.79743436  0.64263550  1  0.663642  0  0.292009  0.403727  0  0.93643  0
H  H87  1  0.37505505  0.70256871  0.14263333  1  0.6636  0  0.291966  0.403655  0  0.936509  0
H  H88  1  0.41689740  0.11892656  0.25974204  1  0.646094  0  0.326463  0.412073  0  0.881488  0
H  H89  1  0.58309225  0.38106698  0.75974725  1  0.646072  0  0.326433  0.412009  0  0.881552  0
H  H90  1  0.58311408  0.88107555  0.74025180  1  0.64599  0  0.326546  0.412075  0  0.881646  0
H  H91  1  0.41687139  0.61891759  0.24024734  1  0.645833  0  0.326494  0.41192  0  0.881759  0
H  H92  1  0.50496470  0.03802604  0.23454433  1  0.641091  0  0.332642  0.418801  0  0.867667  0
H  H93  1  0.49501483  0.46196577  0.73455289  1  0.641392  0  0.332609  0.418702  0  0.8678  0
H  H94  1  0.49506756  0.96197722  0.76545798  1  0.640542  0  0.33269  0.418737  0  0.867721  0
H  H95  1  0.50493028  0.53801901  0.26545200  1  0.641179  0  0.332691  0.418693  0  0.867774  0
C  C96  1  0.93828481  0.34853886  0.31077361  1  0.042214  0  -0.019027  -0.016698  0  4.004105  0
C  C97  1  0.06170551  0.15145904  0.81077675  1  0.042305  0  -0.01896  -0.016556  0  4.003844  0
C  C98  1  0.06171498  0.65146896  0.68922723  1  0.041409  0  -0.018957  -0.016588  0  4.003946  0
C  C99  1  0.93829585  0.84853762  0.18922594  1  0.042288  0  -0.019021  -0.016557  0  4.003786  0
C  C100  1  0.07560319  0.36910905  0.33139973  1  -0.041157  0  -0.095287  -0.221241  0  3.917981  0
C  C101  1  0.92438276  0.13088522  0.83139938  1  -0.041571  0  -0.095298  -0.221266  0  3.918075  0
C  C102  1  0.92440269  0.63089035  0.66859853  1  -0.041321  0  -0.095383  -0.221356  0  3.918116  0
C  C103  1  0.07561737  0.86910867  0.16860220  1  -0.041678  0  -0.095362  -0.221423  0  3.918149  0
C  C104  1  0.16198280  0.44066407  0.31111699  1  0.38682  0  0.078303  0.250999  0  4.078524  0
C  C105  1  0.83800838  0.05932964  0.81111565  1  0.386022  0  0.078272  0.250982  0  4.078641  0
C  C106  1  0.83802556  0.55934087  0.68888311  1  0.387139  0  0.078327  0.250894  0  4.078613  0
C  C107  1  0.16198622  0.94066292  0.18888703  1  0.386877  0  0.078328  0.251009  0  4.07855  0
C  C108  1  0.11080990  0.49105751  0.27066347  1  -0.000828  0  -0.086774  -0.191637  0  3.927167  0
C  C109  1  0.88918220  0.00893938  0.77066270  1  -0.000688  0  -0.086809  -0.191716  0  3.927066  0
C  C110  1  0.88919737  0.50894744  0.72933664  1  -0.000799  0  -0.086712  -0.191251  0  3.92683  0
C  C111  1  0.11080943  0.99105879  0.22933814  1  -0.000841  0  -0.086851  -0.191576  0  3.927058  0
C  C112  1  0.97261153  0.47144601  0.25147520  1  -0.018787  0  -0.015088  -0.010266  0  3.998306  0
C  C113  1  0.02738516  0.02855797  0.75147276  1  -0.01833  0  -0.015141  -0.010483  0  3.998336  0
C  C114  1  0.02739363  0.52856036  0.74852822  1  -0.018875  0  -0.015204  -0.010722  0  3.998667  0
C  C115  1  0.97261430  0.97144358  0.24852955  1  -0.018777  0  -0.015076  -0.010466  0  3.998446  0
C  C116  1  0.88578124  0.39990461  0.27129437  1  -0.025744  0  -0.08396  -0.124975  0  3.942178  0
C  C117  1  0.11420908  0.10009925  0.77129586  1  -0.025787  0  -0.083986  -0.125024  0  3.942056  0
C  C118  1  0.11421856  0.60010321  0.72870721  1  -0.025888  0  -0.083911  -0.124824  0  3.942173  0
C  C119  1  0.88579132  0.89989951  0.22870719  1  -0.026054  0  -0.083951  -0.124932  0  3.941974  0
C  C120  1  0.84922998  0.27027587  0.33164549  1  1.536996  0  0.22199  0.597768  0  4.174157  0
C  C121  1  0.15075094  0.22972612  0.83165033  1  1.53736  0  0.22195  0.597716  0  4.174034  0
C  C122  1  0.15078252  0.72972484  0.66835535  1  1.537639  0  0.221823  0.597525  0  4.174288  0
C  C123  1  0.84923736  0.77027070  0.16835751  1  1.536896  0  0.222079  0.59786  0  4.173918  0
C  C124  1  0.91398477  0.52707876  0.20974767  1  1.552182  0  0.225436  0.613532  0  4.1615  0
C  C125  1  0.08601027  0.97293476  0.70974437  1  1.552566  0  0.225528  0.613713  0  4.161415  0
C  C126  1  0.08603638  0.47294065  0.79025538  1  1.552537  0  0.225557  0.613722  0  4.162082  0
C  C127  1  0.91398198  0.02707454  0.29025316  1  1.552651  0  0.225528  0.61365  0  4.161912  0
C  C128  1  0.33152736  0.43216981  0.37769774  1  0.339721  0  -0.068261  -0.025646  0  3.905819  0
C  C129  1  0.66847417  0.06782312  0.87769694  1  0.339432  0  -0.068239  -0.025777  0  3.906088  0
C  C130  1  0.66848521  0.56783229  0.62229832  1  0.339968  0  -0.068203  -0.025704  0  3.905772  0
C  C131  1  0.33151961  0.93217432  0.12229911  1  0.33905  0  -0.068217  -0.025661  0  3.905777  0
C  C132  1  0.47211385  0.47473709  0.39512867  1  0.019078  0  -0.0265  0.064695  0  4.015307  0
C  C133  1  0.52788295  0.02526618  0.89513006  1  0.019237  0  -0.026556  0.064568  0  4.015306  0
C  C134  1  0.52789853  0.52526154  0.60487181  1  0.018463  0  -0.026544  0.064597  0  4.015327  0
C  C135  1  0.47211636  0.97473260  0.10487115  1  0.01884  0  -0.026613  0.064559  0  4.015193  0
C  C136  1  0.60670047  0.44984950  0.37492968  1  -0.079483  0  -0.098869  -0.134874  0  4.003988  0
C  C137  1  0.39329894  0.05014488  0.87492534  1  -0.080185  0  -0.09887  -0.134775  0  4.003808  0
C  C138  1  0.39331327  0.55015398  0.62507080  1  -0.079117  0  -0.098839  -0.134882  0  4.003861  0
C  C139  1  0.60670111  0.94984762  0.12507440  1  -0.079352  0  -0.098862  -0.134849  0  4.003979  0
C  C140  1  0.73627741  0.48835895  0.39298655  1  -0.027234  0  -0.090934  -0.11889  0  3.967199  0
C  C141  1  0.26372154  0.01164431  0.89298698  1  -0.026961  0  -0.091006  -0.11904  0  3.967405  0
C  C142  1  0.26373546  0.51164872  0.60701392  1  -0.028088  0  -0.090963  -0.118793  0  3.967335  0
C  C143  1  0.73627122  0.98835454  0.10701055  1  -0.027935  0  -0.090929  -0.118946  0  3.96724  0
C  C144  1  0.73563299  0.55294379  0.43194754  1  -0.000341  0  -0.003318  0.074046  0  3.986912  0
C  C145  1  0.26437201  0.94705768  0.93194596  1  -0.000804  0  -0.003371  0.073958  0  3.987023  0
C  C146  1  0.26438638  0.44706311  0.56805551  1  -0.000897  0  -0.003244  0.073996  0  3.987127  0
C  C147  1  0.73562217  0.05292722  0.06804567  1  -0.000146  0  -0.003347  0.073927  0  3.987011  0
C  C148  1  0.60048108  0.57776277  0.45187332  1  -0.053468  0  -0.089461  -0.119278  0  3.972111  0
C  C149  1  0.39952127  0.92224689  0.95187711  1  -0.053272  0  -0.089403  -0.119112  0  3.971823  0
C  C150  1  0.39952818  0.42223867  0.54812752  1  -0.05376  0  -0.089441  -0.11914  0  3.972017  0
C  C151  1  0.60047526  0.07776097  0.04812594  1  -0.052731  0  -0.089452  -0.119087  0  3.972026  0
C  C152  1  0.47126504  0.53895316  0.43384222  1  -0.039935  0  -0.093014  -0.128678  0  3.998695  0
C  C153  1  0.52873596  0.96105461  0.93384492  1  -0.039721  0  -0.093106  -0.128716  0  3.998821  0
C  C154  1  0.52874644  0.46104896  0.56615494  1  -0.039591  0  -0.093117  -0.128768  0  3.998785  0
C  C155  1  0.47126267  0.03895183  0.06615776  1  -0.039886  0  -0.092986  -0.128699  0  3.998387  0
C  C156  1  0.87234469  0.59343942  0.45178212  1  -0.021352  0  -0.008984  0.063198  0  4.009416  0
C  C157  1  0.12765878  0.90657092  0.95178384  1  -0.021157  0  -0.008938  0.063196  0  4.009316  0
C  C158  1  0.12767896  0.40656603  0.54821909  1  -0.020741  0  -0.008806  0.06333  0  4.008924  0
C  C159  1  0.87234465  0.09342363  0.04821479  1  -0.021127  0  -0.008992  0.063244  0  4.009057  0
C  C160  1  0.99447266  0.60936666  0.42147210  1  -0.139324  0  -0.091548  -0.124807  0  3.987722  0
C  C161  1  0.00552903  0.89063565  0.92147448  1  -0.139412  0  -0.091576  -0.124787  0  3.987727  0
C  C162  1  0.00554761  0.39063675  0.57852801  1  -0.139385  0  -0.091882  -0.125196  0  3.987606  0
C  C163  1  0.99447196  0.10935405  0.07852710  1  -0.14007  0  -0.091627  -0.125008  0  3.987548  0
C  C164  1  0.12135645  0.64994073  0.44039928  1  0.002741  0  -0.093086  -0.132631  0  4.00076  0
C  C165  1  0.87864941  0.85005508  0.94040303  1  0.002687  0  -0.093135  -0.132816  0  4.000834  0
C  C166  1  0.87866371  0.35006059  0.55960120  1  0.00254  0  -0.093159  -0.1329  0  4.000761  0
C  C167  1  0.12134508  0.14993540  0.05959855  1  0.003045  0  -0.09309  -0.132754  0  4.000653  0
C  C168  1  0.13069942  0.67514205  0.49020218  1  0.003547  0  -0.013081  0.086256  0  3.968511  0
C  C169  1  0.86931973  0.82484963  0.99020746  1  0.003792  0  -0.012935  0.086514  0  3.968347  0
C  C170  1  0.86932074  0.32485927  0.50979756  1  0.004188  0  -0.012927  0.086471  0  3.968351  0
C  C171  1  0.13067784  0.17513733  0.00979522  1  0.003994  0  -0.012955  0.086571  0  3.968353  0
C  C172  1  0.00980277  0.65933970  0.52058510  1  -0.073998  0  -0.092128  -0.125004  0  3.967586  0
C  C173  1  0.99021923  0.84065796  0.02058647  1  -0.074072  0  -0.091983  -0.124926  0  3.967504  0
C  C174  1  0.99021424  0.34066374  0.47941721  1  -0.073712  0  -0.092136  -0.125031  0  3.967821  0
C  C175  1  0.00978927  0.15932956  0.97941254  1  -0.074636  0  -0.092175  -0.125181  0  3.968071  0
C  C176  1  0.88272772  0.61913762  0.50154047  1  -0.032882  0  -0.090514  -0.117722  0  3.979246  0
C  C177  1  0.11728244  0.88086594  0.00154230  1  -0.032917  0  -0.090576  -0.117718  0  3.979183  0
C  C178  1  0.11728714  0.38086654  0.49845706  1  -0.032876  0  -0.090619  -0.11781  0  3.979124  0
C  C179  1  0.88272911  0.11911737  0.99845596  1  -0.032628  0  -0.090563  -0.117855  0  3.979341  0
C  C180  1  0.26772551  0.71936363  0.51035893  1  0.377311  0  -0.05962  -0.014176  0  3.897668  0
C  C181  1  0.73228986  0.78063422  0.01036426  1  0.377675  0  -0.059739  -0.014415  0  3.897511  0
C  C182  1  0.73228514  0.28064337  0.48964007  1  0.377496  0  -0.059714  -0.014405  0  3.897266  0
C  C183  1  0.26771440  0.21935545  0.98964247  1  0.377512  0  -0.059655  -0.014407  0  3.897712  0
C  C184  1  0.44372970  0.83499698  0.48385679  1  0.508383  0  0.083269  0.250695  0  4.075173  0
C  C185  1  0.55626674  0.66499920  0.98385781  1  0.508922  0  0.083487  0.251031  0  4.074903  0
C  C186  1  0.55627077  0.16500317  0.51614258  1  0.50808  0  0.083304  0.250812  0  4.074923  0
C  C187  1  0.44372069  0.33500180  0.01614377  1  0.508541  0  0.083292  0.250841  0  4.07488  0
C  C188  1  0.48260310  0.90110867  0.44784902  1  0.002348  0  -0.079773  -0.178043  0  3.909107  0
C  C189  1  0.51738366  0.59889565  0.94784982  1  0.000558  0  -0.079885  -0.178336  0  3.90946  0
C  C190  1  0.51739094  0.09889365  0.55214961  1  0.002622  0  -0.079808  -0.178216  0  3.90926  0
C  C191  1  0.48259847  0.40110820  0.05215323  1  0.002354  0  -0.079715  -0.177961  0  3.909048  0
C  C192  1  0.61695360  0.94733502  0.45077590  1  -0.055485  0  -0.017991  -0.025023  0  4.001958  0
C  C193  1  0.38303338  0.55267274  0.95077670  1  -0.054115  0  -0.018026  -0.02486  0  4.001686  0
C  C194  1  0.38303905  0.05266174  0.54922163  1  -0.055906  0  -0.018019  -0.025006  0  4.001542  0
C  C195  1  0.61695331  0.44733454  0.04922451  1  -0.05599  0  -0.018045  -0.025147  0  4.001987  0
C  C196  1  0.71205494  0.92927710  0.48986740  1  -0.012583  0  -0.080992  -0.115159  0  3.922183  0
C  C197  1  0.28793434  0.57072677  0.98986989  1  -0.012072  0  -0.081083  -0.115358  0  3.922147  0
C  C198  1  0.28794331  0.07072238  0.51012571  1  -0.012207  0  -0.080999  -0.115322  0  3.922005  0
C  C199  1  0.71204948  0.42926801  0.01013242  1  -0.012017  0  -0.081154  -0.115504  0  3.922511  0
C  C200  1  0.67184095  0.86549572  0.52619993  1  0.008332  0  -0.020669  -0.021784  0  4.00885  0
C  C201  1  0.32815719  0.63450356  0.02620306  1  0.008737  0  -0.02052  -0.021637  0  4.008778  0
C  C202  1  0.32816132  0.13449745  0.47379134  1  0.008305  0  -0.020565  -0.021604  0  4.008745  0
C  C203  1  0.67183336  0.36549462  0.97379742  1  0.008262  0  -0.020396  -0.0213  0  4.008844  0
C  C204  1  0.53720352  0.81764676  0.52343469  1  -0.068226  0  -0.100706  -0.228993  0  3.970469  0
C  C205  1  0.46279299  0.68236302  0.02343672  1  -0.068626  0  -0.100832  -0.229187  0  3.970168  0
C  C206  1  0.46279800  0.18235269  0.47656100  1  -0.067915  0  -0.100751  -0.2291  0  3.970146  0
C  C207  1  0.53719572  0.31764145  0.97656412  1  -0.066041  0  -0.10081  -0.22922  0  3.9704  0
C  C208  1  0.66566249  0.01561718  0.41242816  1  1.572682  0  0.229547  0.617684  0  4.156712  0
C  C209  1  0.33432989  0.48438249  0.91243060  1  1.573028  0  0.229418  0.617298  0  4.157053  0
C  C210  1  0.33433234  0.98437956  0.58757231  1  1.572838  0  0.229589  0.617795  0  4.156411  0
C  C211  1  0.66566190  0.51561847  0.08757392  1  1.572872  0  0.229598  0.617663  0  4.156568  0
C  C212  1  0.77475909  0.84927397  0.56791711  1  1.544497  0  0.222352  0.602017  0  4.165296  0
C  C213  1  0.22522955  0.65072432  0.06791899  1  1.544704  0  0.222353  0.602076  0  4.164972  0
C  C214  1  0.22523244  0.15072211  0.43208116  1  1.544557  0  0.222416  0.602028  0  4.164967  0
C  C215  1  0.77475477  0.34927951  0.93208370  1  1.545024  0  0.222384  0.602022  0  4.165072  0
O  O216  1  0.74276652  0.23797666  0.30616630  1  -1.166958  0  -0.313822  -0.563683  0  2.316447  0
O  O217  1  0.25721122  0.26203119  0.80617410  1  -1.167009  0  -0.313849  -0.563707  0  2.316313  0
O  O218  1  0.25722993  0.76202981  0.69383969  1  -1.167439  0  -0.313802  -0.563682  0  2.316263  0
O  O219  1  0.74276787  0.73797687  0.19383927  1  -1.166952  0  -0.313862  -0.563845  0  2.316429  0
O  O220  1  0.88486348  0.24001278  0.37412117  1  -1.198169  0  -0.322521  -0.589245  0  2.432972  0
O  O221  1  0.11510334  0.25998408  0.87412699  1  -1.198464  0  -0.322427  -0.589151  0  2.432905  0
O  O222  1  0.11516010  0.75999129  0.62587857  1  -1.197916  0  -0.322398  -0.589036  0  2.433102  0
O  O223  1  0.88486417  0.74001158  0.12587938  1  -1.198134  0  -0.322524  -0.589176  0  2.432751  0
O  O224  1  0.29758636  0.46595686  0.32852290  1  -1.057641  0  -0.196758  -0.235917  0  2.499356  0
O  O225  1  0.70240310  0.03404227  0.82852371  1  -1.056675  0  -0.1967  -0.235774  0  2.499638  0
O  O226  1  0.70242851  0.53404730  0.67147573  1  -1.057669  0  -0.196723  -0.235812  0  2.499304  0
O  O227  1  0.29758843  0.96595381  0.17147861  1  -1.057219  0  -0.196753  -0.2359  0  2.499355  0
O  O228  1  0.31204828  0.79160702  0.47663110  1  -1.071055  0  -0.179512  -0.197593  0  2.540149  0
O  O229  1  0.68794175  0.70839280  0.97663175  1  -1.071229  0  -0.179573  -0.197728  0  2.540022  0
O  O230  1  0.68795370  0.20840078  0.52336864  1  -1.070492  0  -0.179466  -0.197593  0  2.539958  0
O  O231  1  0.31203564  0.29160415  0.02337314  1  -1.071088  0  -0.179572  -0.197799  0  2.539933  0
O  O232  1  0.74327954  0.79301971  0.60237324  1  -1.20446  0  -0.324925  -0.581862  0  2.238914  0
O  O233  1  0.25669952  0.70697765  0.10237609  1  -1.204575  0  -0.324848  -0.581804  0  2.238695  0
O  O234  1  0.25671393  0.20697217  0.39762392  1  -1.204514  0  -0.324929  -0.581847  0  2.238626  0
O  O235  1  0.74328818  0.29302822  0.89762843  1  -1.204827  0  -0.324938  -0.581913  0  2.23871  0
O  O236  1  0.89625376  0.89523758  0.56549136  1  -1.152895  0  -0.315643  -0.536401  0  2.326105  0
O  O237  1  0.10373256  0.60475867  0.06549509  1  -1.153089  0  -0.315752  -0.536523  0  2.326224  0
O  O238  1  0.10374302  0.10475496  0.43450323  1  -1.153078  0  -0.315742  -0.536463  0  2.326244  0
O  O239  1  0.89624327  0.39524943  0.93450686  1  -1.153022  0  -0.315721  -0.536426  0  2.326178  0
O  O240  1  0.79892799  0.04072636  0.41485541  1  -1.19724  0  -0.317925  -0.568337  0  2.419228  0
O  O241  1  0.20105325  0.45928873  0.91485521  1  -1.197578  0  -0.317893  -0.568147  0  2.419376  0
O  O242  1  0.20106917  0.95927314  0.58514064  1  -1.197318  0  -0.317956  -0.568349  0  2.419132  0
O  O243  1  0.79893260  0.54072343  0.08514232  1  -1.197206  0  -0.317915  -0.568233  0  2.419111  0
O  O244  1  0.77654926  0.52699823  0.20484051  1  -1.169703  0  -0.314458  -0.565601  0  2.348178  0
O  O245  1  0.22344637  0.97300698  0.70484103  1  -1.169676  0  -0.314521  -0.565712  0  2.348212  0
O  O246  1  0.22346298  0.47301780  0.79515555  1  -1.169909  0  -0.314469  -0.565555  0  2.348638  0
O  O247  1  0.77654846  0.02698976  0.29515429  1  -1.169764  0  -0.314496  -0.565547  0  2.348191  0
O  O248  1  0.00704674  0.56957171  0.18227044  1  -1.161514  0  -0.320264  -0.558759  0  2.315305  0
O  O249  1  0.99294406  0.93044840  0.68226561  1  -1.162103  0  -0.320196  -0.558711  0  2.315232  0
O  O250  1  0.99297222  0.43044772  0.81773335  1  -1.161633  0  -0.320347  -0.558917  0  2.315458  0
O  O251  1  0.00704037  0.06955751  0.31773303  1  -1.162002  0  -0.320239  -0.558782  0  2.315532  0
O  O252  1  0.57322899  0.04402638  0.38069195  1  -1.169015  0  -0.317385  -0.563065  0  2.315902  0
O  O253  1  0.42677572  0.45596440  0.88070119  1  -1.1692  0  -0.317276  -0.562868  0  2.315994  0
O  O254  1  0.42677106  0.95596612  0.61930521  1  -1.169028  0  -0.317371  -0.563072  0  2.315835  0
O  O255  1  0.57321603  0.54403585  0.11930260  1  -1.16925  0  -0.317446  -0.563072  0  2.315898  0
O  O256  1  0.44372185  0.20544276  0.32780093  1  -1.246897  0  -0.566409  -0.759831  0  2.077713  0
O  O257  1  0.55626737  0.29455220  0.82780562  1  -1.246816  0  -0.566457  -0.759796  0  2.077935  0
O  O258  1  0.55627212  0.79455816  0.67219586  1  -1.246973  0  -0.566467  -0.759701  0  2.077672  0
O  O259  1  0.44372641  0.70544525  0.17219264  1  -1.246893  0  -0.566447  -0.759671  0  2.077839  0
O  O260  1  0.51315045  0.09233843  0.25584061  1  -1.232575  0  -0.554924  -0.733936  0  2.079722  0
O  O261  1  0.48683326  0.40764686  0.75584453  1  -1.232808  0  -0.554844  -0.733783  0  2.07986  0
O  O262  1  0.48687197  0.90768445  0.74414882  1  -1.231967  0  -0.555074  -0.733861  0  2.079984  0
O  O263  1  0.51311691  0.59231071  0.24414121  1  -1.232445  0  -0.555019  -0.733655  0  2.08024  0
