# generated using pymatgen
data_Sr2CuH26(C9O11)2
_symmetry_space_group_name_H-M   'P 1'
_cell_length_a   7.09001738
_cell_length_b   10.00868251
_cell_length_c   10.39190771
_cell_angle_alpha   66.03950689
_cell_angle_beta   72.73072952
_cell_angle_gamma   80.42158128
_symmetry_Int_Tables_number   1
_chemical_formula_structural   Sr2CuH26(C9O11)2
_chemical_formula_sum   'Sr2 Cu1 H26 C18 O22'
_cell_volume   642.61356827
_cell_formula_units_Z   1
loop_
 _symmetry_equiv_pos_site_id
 _symmetry_equiv_pos_as_xyz
  1  'x, y, z'
loop_
 _atom_site_type_symbol
 _atom_site_label
 _atom_site_symmetry_multiplicity
 _atom_site_fract_x
 _atom_site_fract_y
 _atom_site_fract_z
 _atom_site_occupancy
 _atom_site_hle17_ddec_charge
 _atom_site_hle17_ddec_spin_density
 _atom_site_hle17_ddec_sum_bond_order
 _atom_site_hle17_magmom
 _atom_site_hse06_10hf_ddec_charge
 _atom_site_hse06_10hf_ddec_spin_density
 _atom_site_hse06_10hf_ddec_sum_bond_order
 _atom_site_hse06_10hf_magmom
 _atom_site_hse06_ddec_charge
 _atom_site_hse06_ddec_spin_density
 _atom_site_hse06_ddec_sum_bond_order
 _atom_site_hse06_magmom
 _atom_site_pbe_cm5_charge
 _atom_site_pbe_ddec_charge
 _atom_site_pbe_ddec_spin_density
 _atom_site_pbe_ddec_sum_bond_order
 _atom_site_pbe_magmom
Sr  Sr0  1  0.97457594  0.46471689  0.26226950  1  1.658697  1.7e-05  1.036222  0.0  1.521034  8.7e-05  1.403152  0.0  1.555587  -2.9e-05  1.359069  0.0  0.921232  1.494567  7.2e-05  1.436009  0.0
Sr  Sr1  1  0.02542256  0.53528137  0.73773361  1  1.658669  8.4e-05  1.036248  0.0  1.520952  0.000116  1.403238  0.0  1.555507  -7.3e-05  1.359153  0.0  0.921216  1.494497  7.2e-05  1.436099  0.0
Cu  Cu2  1  0.49998985  0.99999921  0.50000018  1  1.009909  0.697366  1.620656  0.526  1.00912  0.792546  1.994981  0.65  1.099287  0.851045  1.925784  0.73  0.710302  0.940596  0.749591  2.058866  0.595
H  H3  1  0.38354478  0.70616262  0.06665963  1  0.108756  -1.1e-05  0.960497  0.0  0.114842  -1.3e-05  1.030806  0.0  0.119165  -1.1e-05  1.026141  0.0  0.118174  0.111507  -1.1e-05  1.034474  0.0
H  H4  1  0.61645822  0.29383452  0.93334012  1  0.108788  -1.2e-05  0.96047  0.0  0.114871  -1.3e-05  1.030784  0.0  0.119207  -1.1e-05  1.026091  0.0  0.118192  0.111538  -1.1e-05  1.03446  0.0
H  H5  1  0.08569664  0.96775375  0.31688632  1  0.096718  0.000135  0.968506  0.0  0.106987  0.000162  1.033901  0.0  0.110672  0.000125  1.030195  0.0  0.107672  0.103938  0.00018  1.037417  0.0
H  H6  1  0.91430922  0.03224449  0.68311144  1  0.096774  0.000134  0.968412  0.0  0.10697  0.000162  1.033901  0.0  0.110652  0.000125  1.030205  0.0  0.107692  0.103924  0.00018  1.037413  0.0
H  H7  1  0.22731670  0.16325813  0.85160762  1  0.110244  0.000327  0.964178  0.0  0.119102  0.000261  1.029627  0.0  0.122999  0.000182  1.025842  0.0  0.117279  0.116096  0.000345  1.03267  0.0
H  H8  1  0.77269913  0.83674565  0.14839262  1  0.110267  0.000327  0.964163  0.0  0.119113  0.000261  1.029623  0.0  0.123009  0.000182  1.025839  0.0  0.117271  0.116105  0.000345  1.032663  0.0
H  H9  1  0.16670262  0.87744390  0.63685700  1  0.428344  -0.000617  0.883377  -0.001  0.397389  0.000206  0.948859  0.0  0.410711  9.1e-05  0.930001  0.0  0.294577  0.387825  0.000278  0.962366  0.0
H  H10  1  0.83328387  0.12255647  0.36314197  1  0.42825  -0.000617  0.883451  -0.001  0.397301  0.000206  0.948936  0.0  0.410626  9.1e-05  0.930074  0.0  0.294521  0.387736  0.000278  0.962444  0.0
H  H11  1  0.24934442  0.84975743  0.48717100  1  0.428344  -0.000493  0.878902  -0.001  0.398462  0.000184  0.942272  0.0  0.411705  3.4e-05  0.923536  0.0  0.296122  0.389018  0.000233  0.955622  0.0
H  H12  1  0.75064060  0.15024296  0.51283019  1  0.428283  -0.000494  0.878992  -0.001  0.398385  0.000185  0.942388  0.0  0.411627  3.4e-05  0.923656  0.0  0.296098  0.388939  0.000233  0.955741  0.0
H  H13  1  0.72885780  0.73390538  0.38117839  1  0.431409  1.2e-05  0.845911  0.0  0.404109  2e-05  0.91028  0.0  0.413311  -1.6e-05  0.896468  0.0  0.30268  0.397546  7.5e-05  0.920187  0.0
H  H14  1  0.27113322  0.26609392  0.61882296  1  0.431464  1.2e-05  0.845845  0.0  0.404086  2e-05  0.910314  0.0  0.413288  -1.7e-05  0.896503  0.0  0.302646  0.397522  7.5e-05  0.920221  0.0
H  H15  1  0.74134389  0.57196537  0.49167316  1  0.418097  1.1e-05  0.889837  0.0  0.384059  8e-06  0.959371  0.0  0.39584  7e-06  0.941968  0.0  0.294313  0.375697  6e-06  0.971718  0.0
H  H16  1  0.25865600  0.42803397  0.50832828  1  0.418107  1e-05  0.889828  0.0  0.384076  8e-06  0.959352  0.0  0.395856  7e-06  0.941949  0.0  0.294324  0.375711  6e-06  0.971703  0.0
H  H17  1  0.31103258  0.22229285  0.33435526  1  0.399931  -0.000356  0.922541  0.0  0.36488  -0.000361  0.996198  0.0  0.37511  -0.000368  0.980769  0.0  0.288585  0.35782  -0.000339  1.00685  0.0
H  H18  1  0.68896994  0.77771086  0.66564293  1  0.399893  -0.000355  0.922594  0.0  0.364842  -0.000362  0.996255  0.0  0.375072  -0.000368  0.980826  0.0  0.288566  0.357784  -0.000339  1.006905  0.0
H  H19  1  0.13151171  0.15299258  0.46000527  1  0.414976  -5.3e-05  0.86103  0.0  0.391131  6.2e-05  0.930591  0.0  0.400034  1.8e-05  0.918278  0.0  0.30302  0.384795  9.2e-05  0.938271  0.0
H  H20  1  0.86848649  0.84700889  0.53998797  1  0.414909  -5.3e-05  0.861088  0.0  0.391053  6.2e-05  0.930684  0.0  0.399954  1.8e-05  0.918394  0.0  0.302981  0.384716  9.2e-05  0.938361  0.0
H  H21  1  0.30949198  0.48099257  0.97178526  1  0.423177  -3e-06  0.878644  0.0  0.395114  0.0  0.938892  0.0  0.405584  -0.0  0.923331  0.0  0.300974  0.387582  -1e-06  0.9501  0.0
H  H22  1  0.69050766  0.51901005  0.02821396  1  0.42313  -2e-06  0.8787  0.0  0.395064  -0.0  0.938956  0.0  0.405536  -0.0  0.923392  0.0  0.300963  0.387531  -1e-06  0.950165  0.0
H  H23  1  0.38877675  0.36090806  0.09974766  1  0.415123  1.4e-05  0.892976  0.0  0.387482  1.3e-05  0.952253  0.0  0.397336  1.3e-05  0.937645  0.0  0.296845  0.380487  1.8e-05  0.962628  0.0
H  H24  1  0.61122438  0.63909457  0.90025222  1  0.415143  1.3e-05  0.892938  0.0  0.387515  1.4e-05  0.952189  0.0  0.397367  1.3e-05  0.937586  0.0  0.296866  0.380521  1.8e-05  0.962562  0.0
H  H25  1  0.60550788  0.35148519  0.23400929  1  0.428029  -5.1e-05  0.863209  0.0  0.397115  -6.2e-05  0.931433  0.0  0.406214  -5.6e-05  0.917978  0.0  0.310221  0.390685  -6.2e-05  0.94096  0.0
H  H26  1  0.39449185  0.64851634  0.76599131  1  0.428015  -5.3e-05  0.863228  0.0  0.397094  -6.2e-05  0.931466  0.0  0.406194  -5.6e-05  0.91801  0.0  0.310199  0.390664  -6.2e-05  0.940994  0.0
H  H27  1  0.49950989  0.49117345  0.26519877  1  0.437564  -0.0  0.852008  0.0  0.408442  1e-06  0.910897  0.0  0.417758  2e-06  0.89745  0.0  0.310188  0.401785  0.0  0.920537  0.0
H  H28  1  0.50049140  0.50882699  0.73480194  1  0.437567  0.0  0.852004  0.0  0.408437  1e-06  0.910905  0.0  0.417755  1e-06  0.897456  0.0  0.310181  0.401783  0.0  0.920542  0.0
C  C29  1  0.32229974  0.93459958  0.94240666  1  -0.086692  0.007895  3.762087  0.009  -0.059341  0.004578  3.999474  0.005  -0.072344  0.003352  4.02414  0.004  -0.016901  -0.051076  0.005544  3.982866  0.006
C  C30  1  0.67771018  0.06540418  0.05759385  1  -0.086622  0.007885  3.762198  0.009  -0.059314  0.004576  3.999589  0.005  -0.072318  0.003353  4.024253  0.004  -0.0169  -0.051049  0.005542  3.982983  0.006
C  C31  1  0.32253456  0.81188352  0.07114301  1  -0.029879  -0.001173  3.651474  0.0  -0.070502  -3.6e-05  3.901627  0.0  -0.064545  -0.000311  3.918421  0.0  -0.055672  -0.073989  0.00025  3.89048  0.001
C  C32  1  0.67747125  0.18811585  0.92885912  1  -0.030028  -0.001147  3.651611  0.0  -0.070696  -3.5e-05  3.901726  0.0  -0.064741  -0.000311  3.918527  0.0  -0.055733  -0.074184  0.00025  3.890587  0.001
C  C33  1  0.24040551  0.82338953  0.20661934  1  -0.08631  0.001086  3.742553  0.001  -0.059715  0.000367  3.984726  0.0  -0.070696  0.000323  4.007434  0.0  -0.012517  -0.052705  0.000556  3.969696  0.001
C  C34  1  0.75959565  0.17661314  0.79338532  1  -0.086197  0.001069  3.742574  0.001  -0.059445  0.000367  3.98451  0.0  -0.070423  0.000323  4.007219  0.0  -0.012468  -0.052434  0.000556  3.969486  0.001
C  C35  1  0.15197109  0.95757251  0.21228689  1  -0.035205  -0.002241  3.658575  -0.001  -0.07511  -0.000656  3.907642  0.0  -0.069719  -0.000734  3.924953  0.0  -0.068237  -0.078763  -0.000691  3.896996  0.0
C  C36  1  0.84803454  0.04242902  0.78771153  1  -0.035376  -0.002205  3.658536  -0.001  -0.075288  -0.000658  3.907582  0.0  -0.069893  -0.000734  3.924884  0.0  -0.068259  -0.07894  -0.000691  3.896938  0.0
C  C37  1  0.14313909  0.07879082  0.08464398  1  -0.085709  0.00068  3.74505  0.001  -0.060765  7.9e-05  3.986866  0.0  -0.072228  0.000137  4.010598  0.0  -0.018227  -0.053667  4.8e-05  3.971202  0.0
C  C38  1  0.85687390  0.92121188  0.91536017  1  -0.085522  0.000664  3.74498  0.001  -0.060607  8e-05  3.986809  0.0  -0.072068  0.000137  4.010542  0.0  -0.01821  -0.053508  4.8e-05  3.971139  0.0
C  C39  1  0.23252278  0.06743157  0.94998094  1  -0.03686  -0.002142  3.674355  -0.001  -0.07503  -0.000404  3.919415  0.0  -0.069173  -0.000594  3.937105  0.0  -0.062013  -0.07816  -0.000285  3.907295  0.0
C  C40  1  0.76748426  0.93257108  0.05001867  1  -0.036954  -0.002122  3.674495  -0.001  -0.075087  -0.000404  3.919533  0.0  -0.06923  -0.000594  3.937223  0.0  -0.062012  -0.078214  -0.000285  3.907403  0.0
C  C41  1  0.40939994  0.92092287  0.79865931  1  0.665821  -0.008112  3.847437  -0.008  0.613157  -0.002429  4.150249  -0.003  0.650825  -0.002855  4.14476  -0.003  0.221576  0.587784  -0.001896  4.152484  -0.003
C  C42  1  0.59059850  0.07907530  0.20133423  1  0.665837  -0.008122  3.847734  -0.008  0.613228  -0.002425  4.150458  -0.003  0.650897  -0.002854  4.144968  -0.003  0.221592  0.587851  -0.001894  4.152693  -0.003
C  C43  1  0.23811623  0.69089092  0.34444834  1  0.683363  -2.5e-05  3.869533  0.0  0.627256  6.2e-05  4.165193  0.0  0.662218  3.6e-05  4.156721  0.0  0.237701  0.603513  0.000103  4.169823  0.0
C  C44  1  0.76189571  0.30910515  0.65555000  1  0.683429  -2.3e-05  3.869697  0.0  0.627271  6.2e-05  4.165359  0.0  0.66223  3.6e-05  4.156891  0.0  0.237699  0.603528  0.000103  4.169989  0.0
C  C45  1  0.03516404  0.22070636  0.08818817  1  0.685426  -0.000473  3.90047  0.0  0.632098  -5.4e-05  4.197375  0.0  0.666677  -2.2e-05  4.188887  0.0  0.224755  0.608499  -6.3e-05  4.202028  0.0
C  C46  1  0.96483812  0.77928200  0.91181331  1  0.685295  -0.000474  3.900265  0.0  0.631952  -5.3e-05  4.197204  0.0  0.666532  -2.4e-05  4.18872  0.0  0.224778  0.608351  -6.3e-05  4.201857  0.0
O  O47  1  0.39723167  0.03452290  0.68316145  1  -0.595565  0.088739  2.03549  0.123  -0.561957  0.055664  2.315016  0.085  -0.605412  0.041751  2.307306  0.069  -0.31455  -0.531915  0.064303  2.320611  0.092
O  O48  1  0.60275599  0.96548187  0.31683841  1  -0.595545  0.08875  2.035612  0.123  -0.561964  0.055667  2.31513  0.085  -0.60542  0.041752  2.307417  0.069  -0.314545  -0.531919  0.064307  2.320726  0.092
O  O49  1  0.48924928  0.79894131  0.79413100  1  -0.662888  -0.000938  2.099097  0.001  -0.596587  -0.001299  2.327759  0.0  -0.624216  -0.002022  2.316926  0.0  -0.300154  -0.577138  -0.000611  2.334634  0.001
O  O50  1  0.51075101  0.20105254  0.20587061  1  -0.66288  -0.000936  2.099147  0.001  -0.596585  -0.0013  2.327767  0.0  -0.624218  -0.002021  2.316934  0.0  -0.300124  -0.57713  -0.000611  2.334635  0.001
O  O51  1  0.25400077  0.56470810  0.33672879  1  -0.70127  0.000563  2.013043  0.001  -0.627649  0.000172  2.23438  0.0  -0.654848  7e-05  2.223935  0.0  -0.319338  -0.60811  0.000462  2.241274  0.001
O  O52  1  0.74599936  0.43528793  0.66327103  1  -0.701279  0.000562  2.013195  0.001  -0.627627  0.000172  2.23453  0.0  -0.654827  7.1e-05  2.224086  0.0  -0.319333  -0.608105  0.000462  2.241451  0.001
O  O53  1  0.21542456  0.70848514  0.46277758  1  -0.664526  0.001455  2.005386  0.002  -0.596436  0.00084  2.233248  0.001  -0.623714  0.000463  2.222517  0.001  -0.325886  -0.576524  0.002257  2.240004  0.003
O  O54  1  0.78457121  0.29150978  0.53722261  1  -0.664599  0.001454  2.005419  0.002  -0.596505  0.000841  2.233296  0.001  -0.623786  0.000463  2.222567  0.001  -0.325903  -0.576587  0.002258  2.240049  0.003
O  O55  1  0.94926899  0.22838336  0.21299600  1  -0.718701  0.003453  2.039076  0.005  -0.65036  0.001263  2.275465  0.002  -0.678113  0.000596  2.264226  0.001  -0.358867  -0.629618  0.002283  2.28235  0.003
O  O56  1  0.05073967  0.77161708  0.78700223  1  -0.71868  0.003448  2.039132  0.005  -0.650245  0.001263  2.275399  0.002  -0.677994  0.000596  2.264164  0.001  -0.358869  -0.629508  0.002281  2.282285  0.003
O  O57  1  0.03420684  0.32475635  0.96876629  1  -0.681915  0.001735  1.987679  0.002  -0.623512  0.000314  2.23672  0.001  -0.649589  7.3e-05  2.227542  0.0  -0.367633  -0.604736  0.000823  2.242737  0.001
O  O58  1  0.96579353  0.67523759  0.03124682  1  -0.681956  0.001731  1.987587  0.002  -0.623559  0.000311  2.236635  0.0  -0.649634  7.3e-05  2.227451  0.0  -0.36773  -0.604781  0.000822  2.24265  0.001
O  O59  1  0.24331999  0.92579983  0.53040156  1  -0.852656  0.062396  1.987606  0.087  -0.816355  0.045552  2.220855  0.068  -0.851165  0.035251  2.180106  0.057  -0.578988  -0.791606  0.051842  2.251038  0.073
O  O60  1  0.75665911  0.07420052  0.46959797  1  -0.852543  0.062405  1.987626  0.087  -0.816243  0.045556  2.220875  0.068  -0.851042  0.035253  2.180111  0.057  -0.578951  -0.791492  0.051848  2.251056  0.073
O  O61  1  0.75677232  0.63336939  0.38626694  1  -0.887897  8.9e-05  1.792193  0.0  -0.837205  4.7e-05  1.972651  0.0  -0.854618  1e-05  1.940062  0.0  -0.63436  -0.824197  0.000114  1.995882  0.0
O  O62  1  0.24322602  0.36663104  0.61373439  1  -0.88795  9e-05  1.792103  0.0  -0.837171  4.7e-05  1.972663  0.0  -0.854584  1.1e-05  1.940071  0.0  -0.634328  -0.824161  0.000114  1.995895  0.0
O  O63  1  0.19597820  0.24574243  0.40563337  1  -0.862361  -0.000705  1.85397  0.0  -0.816376  -0.00088  2.051423  0.0  -0.8335  -0.00097  2.022294  0.0  -0.620976  -0.803603  -0.000734  2.070967  0.0
O  O64  1  0.80402309  0.75425801  0.59436735  1  -0.86227  -0.000705  1.854044  0.0  -0.816289  -0.000881  2.051523  0.0  -0.833414  -0.000968  2.022411  0.0  -0.620919  -0.803513  -0.000734  2.071061  0.0
O  O65  1  0.29502032  0.44618953  0.07761594  1  -0.891406  7.5e-05  1.866557  0.0  -0.842235  2.7e-05  2.055445  0.0  -0.860315  2e-05  2.024087  0.0  -0.647649  -0.829294  5.5e-05  2.078053  0.0
O  O66  1  0.70497940  0.55381199  0.92238370  1  -0.891376  7.6e-05  1.866556  0.0  -0.842208  2.6e-05  2.055446  0.0  -0.860289  2.1e-05  2.02409  0.0  -0.647661  -0.829263  5.6e-05  2.078053  0.0
O  O67  1  0.62947411  0.44834195  0.22715274  1  -0.859077  -2.6e-05  1.849785  0.0  -0.798023  -6.5e-05  2.027643  0.0  -0.817148  -7e-05  1.997845  0.0  -0.599065  -0.784289  -4.8e-05  2.048811  0.0
O  O68  1  0.37052718  0.55165849  0.77284797  1  -0.859055  -2.4e-05  1.849784  0.0  -0.797998  -6.6e-05  2.027664  0.0  -0.817124  -6.8e-05  1.997867  0.0  -0.599017  -0.784261  -4.8e-05  2.048828  0.0
