# generated using pymatgen
data_AlH15(C8O3)3
_symmetry_space_group_name_H-M   'P 1'
_cell_length_a   3.97927184
_cell_length_b   28.51349538
_cell_length_c   28.51342442
_cell_angle_alpha   119.99996534
_cell_angle_beta   90.00015702
_cell_angle_gamma   90.00110014
_symmetry_Int_Tables_number   1
_chemical_formula_structural   AlH15(C8O3)3
_chemical_formula_sum   'Al2 H30 C48 O18'
_cell_volume   2801.78128252
_cell_formula_units_Z   2
loop_
 _symmetry_equiv_pos_site_id
 _symmetry_equiv_pos_as_xyz
  1  'x, y, z'
loop_
 _atom_site_type_symbol
 _atom_site_label
 _atom_site_symmetry_multiplicity
 _atom_site_fract_x
 _atom_site_fract_y
 _atom_site_fract_z
 _atom_site_occupancy
 _atom_site_pbe_bader_charge
 _atom_site_pbe_bader_spin_density
 _atom_site_pbe_cm5_charge
 _atom_site_pbe_ddec_charge
 _atom_site_pbe_ddec_spin_density
 _atom_site_pbe_ddec_sum_bond_order
 _atom_site_pbe_magmom
Al  Al0  1  0.97703451  0.50000060  0.49999907  1  2.505455  0  0.427762  1.594261  0  2.561324  0
Al  Al1  1  0.97707237  0.16666601  0.83333111  1  2.50524  0  0.427756  1.594249  0  2.561178  0
H  H2  1  0.18700343  0.18789885  0.70044580  1  0.069107  0  0.108287  0.112844  0  0.985069  0
H  H3  1  0.18637351  0.24267814  0.65480019  1  0.027232  0  0.099263  0.103429  0  1.008886  0
H  H4  1  0.74980555  0.36744929  0.78899957  1  0.082305  0  0.109349  0.129034  0  0.979865  0
H  H5  1  0.74972569  0.29921909  0.54433516  1  0.082715  0  0.109305  0.128933  0  0.979956  0
H  H6  1  0.18635862  0.42399075  0.67853549  1  0.027109  0  0.099307  0.103517  0  1.008912  0
H  H7  1  0.18695756  0.47876703  0.63288728  1  0.069371  0  0.108269  0.112725  0  0.985073  0
H  H8  1  0.48836142  0.38644961  0.72133633  1  0.071961  0  0.102711  0.100987  0  0.99466  0
H  H9  1  0.48831789  0.28022023  0.61200026  1  0.072086  0  0.102746  0.10096  0  0.994604  0
H  H10  1  0.18699235  0.01254743  0.81209963  1  0.113075  0  0.108265  0.112773  0  0.98499  0
H  H11  1  0.18637297  0.91212208  0.75732108  1  0.027291  0  0.099281  0.103439  0  1.008992  0
H  H12  1  0.74978208  0.92154906  0.63255002  1  0.08037  0  0.109377  0.129096  0  0.979837  0
H  H13  1  0.74974287  0.74511945  0.70078228  1  0.080055  0  0.109305  0.128972  0  0.980013  0
H  H14  1  0.18634281  0.75454398  0.57600881  1  0.026679  0  0.099316  0.103536  0  1.008862  0
H  H15  1  0.18697367  0.65411922  0.52123058  1  0.112427  0  0.108233  0.11271  0  0.985138  0
H  H16  1  0.48835371  0.83488564  0.61354979  1  0.006023  0  0.102686  0.100892  0  0.994458  0
H  H17  1  0.48831679  0.83178092  0.71978216  1  0.005991  0  0.102723  0.100902  0  0.994491  0
H  H18  1  0.18702134  0.29955370  0.98744922  1  0.067121  0  0.108236  0.112757  0  0.985071  0
H  H19  1  0.18640047  0.34520032  0.08787485  1  0.07131  0  0.099289  0.1035  0  1.008935  0
H  H20  1  0.74978816  0.21100333  0.07845126  1  0.076369  0  0.109327  0.128953  0  0.979874  0
H  H21  1  0.74972880  0.45566869  0.25488208  1  0.076447  0  0.109377  0.129064  0  0.979952  0
H  H22  1  0.18633495  0.32146635  0.24545196  1  0.071384  0  0.099335  0.103535  0  1.008934  0
H  H23  1  0.18695724  0.36711212  0.34587691  1  0.067858  0  0.108283  0.112746  0  0.984955  0
H  H24  1  0.48833625  0.27866805  0.16511493  1  0.045449  0  0.102747  0.10098  0  0.994375  0
H  H25  1  0.48834133  0.38800338  0.16821740  1  0.045643  0  0.102691  0.100956  0  0.994431  0
H  H26  1  0.82402010  0.28615237  0.84901942  1  0.628572  0  0.315918  0.361207  0  0.940544  0
H  H27  1  0.82394785  0.38051285  0.48431123  1  0.622202  0  0.315884  0.361109  0  0.940647  0
H  H28  1  0.82400091  0.06286709  0.71384492  1  0.622919  0  0.315932  0.3612  0  0.940685  0
H  H29  1  0.82397207  0.60380280  0.61948877  1  0.623022  0  0.315842  0.361188  0  0.940765  0
H  H30  1  0.82401158  0.15098110  0.93713349  1  0.620018  0  0.315886  0.361123  0  0.94062  0
H  H31  1  0.82395386  0.51569146  0.39619963  1  0.620218  0  0.315793  0.361034  0  0.940812  0
C  C32  1  0.47306450  0.46163190  0.41598117  1  1.513417  0  0.265255  0.651628  0  4.059108  0
C  C33  1  0.47306262  0.45435178  0.53836789  1  1.514144  0  0.265323  0.651772  0  4.058847  0
C  C34  1  0.47308673  0.58401910  0.54564745  1  1.451741  0  0.265217  0.651593  0  4.059012  0
C  C35  1  0.47311613  0.21231601  0.79496504  1  1.514039  0  0.26525  0.651602  0  4.059208  0
C  C36  1  0.47309956  0.08265021  0.78768256  1  1.451936  0  0.265384  0.651659  0  4.059228  0
C  C37  1  0.47311676  0.20503273  0.91734861  1  1.513445  0  0.265289  0.651658  0  4.059082  0
C  C38  1  0.48329838  0.24473561  0.76829349  1  -0.04621  0  -0.036833  -0.207159  0  3.993422  0
C  C39  1  0.31735424  0.22665330  0.71845293  1  0.02975  0  -0.080196  -0.056231  0  4.017505  0
C  C40  1  0.31896696  0.25705965  0.69301111  1  0.001085  0  -0.103737  -0.17117  0  4.000012  0
C  C41  1  0.47205908  0.30882356  0.71851003  1  -0.027498  0  -0.002682  0.141662  0  4.060208  0
C  C42  1  0.62753152  0.32794181  0.76879812  1  0.024555  0  -0.097783  -0.251128  0  3.907475  0
C  C43  1  0.64812123  0.29580208  0.79302530  1  0.53158  0  0.099147  0.33173  0  4.049533  0
C  C44  1  0.47131231  0.34273046  0.69361696  1  -0.02323  0  -0.084319  -0.124289  0  3.978147  0
C  C45  1  0.47129795  0.32393981  0.63972049  1  -0.121239  0  -0.084279  -0.124194  0  3.978098  0
C  C46  1  0.62747257  0.33872620  0.56453764  1  0.024611  0  -0.097635  -0.251108  0  3.907101  0
C  C47  1  0.47202130  0.35784416  0.61482648  1  -0.027793  0  -0.002696  0.141714  0  4.059845  0
C  C48  1  0.31892926  0.40960945  0.64032377  1  0.001308  0  -0.103727  -0.171276  0  3.999875  0
C  C49  1  0.31731023  0.44001404  0.61488019  1  0.030086  0  -0.080286  -0.056108  0  4.017313  0
C  C50  1  0.48323837  0.42193292  0.56504017  1  -0.046183  0  -0.036942  -0.207409  0  3.992995  0
C  C51  1  0.64806376  0.37086542  0.54030829  1  0.530996  0  0.099173  0.332069  0  4.048777  0
C  C52  1  0.48328046  0.02355651  0.75526313  1  -0.028025  0  -0.036835  -0.207155  0  3.993206  0
C  C53  1  0.31734480  0.99179972  0.77334439  1  -0.017989  0  -0.080282  -0.056254  0  4.017691  0
C  C54  1  0.31895402  0.93595163  0.74294070  1  -0.00925  0  -0.103678  -0.171085  0  3.999905  0
C  C55  1  0.47205008  0.90968546  0.69117399  1  -0.005503  0  -0.002731  0.141446  0  4.060089  0
C  C56  1  0.62751769  0.94085495  0.67205741  1  0.020641  0  -0.097831  -0.251313  0  3.907419  0
C  C57  1  0.64811359  0.99722256  0.70419672  1  0.584184  0  0.099162  0.332069  0  4.048907  0
C  C58  1  0.47130185  0.85088300  0.65727368  1  0.042397  0  -0.08427  -0.124076  0  3.978603  0
C  C59  1  0.47128452  0.81578378  0.67605934  1  -0.060932  0  -0.084324  -0.124194  0  3.978522  0
C  C60  1  0.62748514  0.72581511  0.66127540  1  0.02148  0  -0.097657  -0.251219  0  3.9071  0
C  C61  1  0.47202651  0.75698093  0.64215661  1  -0.006369  0  -0.002674  0.141794  0  4.059596  0
C  C62  1  0.31893088  0.73071398  0.59038975  1  -0.008657  0  -0.103779  -0.171391  0  3.999843  0
C  C63  1  0.31732343  0.67486599  0.55998455  1  -0.01737  0  -0.080236  -0.056099  0  4.017517  0
C  C64  1  0.48325880  0.64310932  0.57806621  1  -0.027653  0  -0.036886  -0.207309  0  3.993132  0
C  C65  1  0.64808773  0.66944390  0.62913490  1  0.584169  0  0.099175  0.332123  0  4.048664  0
C  C66  1  0.48329689  0.23170648  0.97644003  1  -0.062324  0  -0.036873  -0.207357  0  3.993116  0
C  C67  1  0.31735900  0.28154771  0.00819910  1  -0.057098  0  -0.080213  -0.056168  0  4.017509  0
C  C68  1  0.31896961  0.30699056  0.06404491  1  0.040252  0  -0.103678  -0.171166  0  3.999885  0
C  C69  1  0.47206645  0.28149068  0.09031345  1  0.050372  0  -0.002739  0.141503  0  4.059827  0
C  C70  1  0.62751826  0.23120630  0.05914494  1  -0.091771  0  -0.097796  -0.251228  0  3.907407  0
C  C71  1  0.64812034  0.20697582  0.00277702  1  0.606328  0  0.099229  0.332287  0  4.048897  0
C  C72  1  0.47129973  0.30639484  0.14911787  1  -0.095802  0  -0.084285  -0.124164  0  3.978568  0
C  C73  1  0.47129121  0.36027632  0.18421462  1  -0.007696  0  -0.084349  -0.12428  0  3.978729  0
C  C74  1  0.62746903  0.43546572  0.27418695  1  -0.092366  0  -0.097782  -0.251481  0  3.907411  0
C  C75  1  0.47201723  0.38517888  0.24301784  1  0.050256  0  -0.002736  0.141741  0  4.059799  0
C  C76  1  0.31891986  0.35967772  0.26928250  1  0.040335  0  -0.103661  -0.171273  0  3.999772  0
C  C77  1  0.31730626  0.38512201  0.32513178  1  -0.057226  0  -0.080314  -0.0561  0  4.017402  0
C  C78  1  0.48323483  0.43495985  0.35689021  1  -0.062985  0  -0.036788  -0.207187  0  3.993014  0
C  C79  1  0.64805791  0.45969546  0.33055573  1  0.606811  0  0.09922  0.332258  0  4.048542  0
O  O80  1  0.70436596  0.55710993  0.55454769  1  -1.266055  0  -0.24427  -0.62129  0  2.392594  0
O  O81  1  0.70435075  0.49744039  0.44289038  1  -1.263777  0  -0.244285  -0.621291  0  2.392809  0
O  O82  1  0.70434017  0.44545228  0.50255935  1  -1.26457  0  -0.24434  -0.621295  0  2.39275  0
O  O83  1  0.23864242  0.56092400  0.51091089  1  -1.268899  0  -0.241688  -0.594393  0  2.362324  0
O  O84  1  0.23862274  0.48908699  0.55000927  1  -1.26576  0  -0.241717  -0.594492  0  2.362288  0
O  O85  1  0.23861901  0.44999070  0.43907457  1  -1.266183  0  -0.241739  -0.594482  0  2.362479  0
O  O86  1  0.70437494  0.16922607  0.89044249  1  -1.264625  0  -0.244361  -0.621307  0  2.392808  0
O  O87  1  0.70438300  0.22121574  0.83077266  1  -1.264771  0  -0.244296  -0.621255  0  2.39277  0
O  O88  1  0.70436224  0.10955735  0.77878156  1  -1.266258  0  -0.244368  -0.621345  0  2.39286  0
O  O89  1  0.23866239  0.21667515  0.89425395  1  -1.265344  0  -0.241735  -0.594463  0  2.362329  0
O  O90  1  0.23864904  0.10574085  0.82241581  1  -1.268665  0  -0.241685  -0.594336  0  2.362505  0
O  O91  1  0.23865364  0.17757975  0.78332256  1  -1.265425  0  -0.241687  -0.59443  0  2.362453  0
O  O92  1  0.81776715  0.31574518  0.84017037  1  -1.139466  0  -0.350998  -0.438301  0  2.2515  0
O  O93  1  0.81768092  0.35092029  0.49316419  1  -1.133379  0  -0.35094  -0.438292  0  2.2515  0
O  O94  1  0.81774809  0.02442278  0.68425192  1  -1.136382  0  -0.350986  -0.438386  0  2.251623  0
O  O95  1  0.81770250  0.64224693  0.64908120  1  -1.136394  0  -0.350867  -0.438336  0  2.251741  0
O  O96  1  0.81774758  0.15983344  0.97557884  1  -1.132781  0  -0.350918  -0.438347  0  2.251506  0
O  O97  1  0.81767034  0.50684125  0.35775562  1  -1.133038  0  -0.350912  -0.438306  0  2.251516  0
