# generated using pymatgen
data_RbH8C7NO6
_symmetry_space_group_name_H-M   'P 1'
_cell_length_a   5.80375269
_cell_length_b   7.02398917
_cell_length_c   24.27328536
_cell_angle_alpha   90.00138086
_cell_angle_beta   94.94396638
_cell_angle_gamma   90.00122980
_symmetry_Int_Tables_number   1
_chemical_formula_structural   RbH8C7NO6
_chemical_formula_sum   'Rb4 H32 C28 N4 O24'
_cell_volume   985.83099355
_cell_formula_units_Z   4
loop_
 _symmetry_equiv_pos_site_id
 _symmetry_equiv_pos_as_xyz
  1  'x, y, z'
loop_
 _atom_site_type_symbol
 _atom_site_label
 _atom_site_symmetry_multiplicity
 _atom_site_fract_x
 _atom_site_fract_y
 _atom_site_fract_z
 _atom_site_occupancy
 _atom_site_hle17_bader_spin_density
 _atom_site_hle17_ddec_charge
 _atom_site_hle17_ddec_spin_density
 _atom_site_hle17_ddec_sum_bond_order
 _atom_site_hle17_magmom
 _atom_site_hse06_10hf_bader_spin_density
 _atom_site_hse06_10hf_ddec_charge
 _atom_site_hse06_10hf_ddec_spin_density
 _atom_site_hse06_10hf_ddec_sum_bond_order
 _atom_site_hse06_10hf_magmom
 _atom_site_hse06_bader_spin_density
 _atom_site_hse06_ddec_charge
 _atom_site_hse06_ddec_spin_density
 _atom_site_hse06_ddec_sum_bond_order
 _atom_site_hse06_magmom
 _atom_site_pbe_bader_spin_density
 _atom_site_pbe_cm5_charge
 _atom_site_pbe_ddec_charge
 _atom_site_pbe_ddec_spin_density
 _atom_site_pbe_ddec_sum_bond_order
 _atom_site_pbe_magmom
Rb  Rb0  1  0.24718816  0.31310694  0.02207742  1  0  0.935387  0  0.469529  0  0  0.887098  0  0.674008  0  0  0.90204  0  0.648867  0  0  0.747611  0.876058  0  0.691722  0
Rb  Rb1  1  0.25282792  0.81311777  0.47792409  1  0  0.935379  0  0.469543  0  0  0.887112  0  0.674017  0  0  0.902052  0  0.64888  0  0  0.747622  0.876067  0  0.691775  0
Rb  Rb2  1  0.75282733  0.68688040  0.97792285  1  0  0.935392  0  0.469522  0  0  0.887126  0  0.673976  0  0  0.902068  0  0.648838  0  0  0.747632  0.876092  0  0.691684  0
Rb  Rb3  1  0.74718061  0.18689947  0.52207892  1  0  0.935394  0  0.469567  0  0  0.887115  0  0.674068  0  0  0.902057  0  0.648928  0  0  0.747637  0.876074  0  0.691843  0
H  H4  1  0.21732375  0.60887136  0.67855295  1  0  0.10804  0  0.950514  0  0  0.113584  0  1.015459  0  0  0.117097  0  1.013958  0  0  0.107634  0.111001  0  1.016719  0
H  H5  1  0.28265844  0.10886409  0.82144646  1  0  0.107989  0  0.950474  0  0  0.113502  0  1.015484  0  0  0.116954  0  1.014051  0  0  0.10756  0.110916  0  1.016764  0
H  H6  1  0.78267961  0.39113734  0.32144872  1  0  0.108127  0  0.950578  0  0  0.1136  0  1.015574  0  0  0.117079  0  1.014111  0  0  0.107643  0.111012  0  1.016838  0
H  H7  1  0.71733284  0.89113037  0.17855288  1  0  0.108051  0  0.950632  0  0  0.113559  0  1.015614  0  0  0.117062  0  1.014125  0  0  0.107633  0.11097  0  1.016878  0
H  H8  1  0.40476520  0.62979221  0.77533060  1  0  0.108241  0  0.980548  0  0  0.113536  0  1.04837  0  0  0.115964  0  1.048599  0  0  0.108491  0.111753  0  1.048309  0
H  H9  1  0.09521941  0.12979695  0.72466818  1  0  0.108279  0  0.980452  0  0  0.113541  0  1.048316  0  0  0.115967  0  1.04855  0  0  0.108493  0.111782  0  1.048255  0
H  H10  1  0.59524854  0.37019940  0.22467087  1  0  0.108274  0  0.98058  0  0  0.11359  0  1.048369  0  0  0.116018  0  1.048599  0  0  0.108518  0.111808  0  1.048295  0
H  H11  1  0.90476842  0.87020036  0.27533067  1  0  0.108242  0  0.980562  0  0  0.11354  0  1.048383  0  0  0.115968  0  1.048615  0  0  0.108491  0.111759  0  1.048316  0
H  H12  1  0.80367198  0.37344917  0.83681805  1  0  0.124636  0  0.947925  0  0  0.129337  0  1.012853  0  0  0.133327  0  1.010117  0  0  0.118095  0.126443  0  1.014833  0
H  H13  1  0.69629886  0.87345201  0.66317354  1  0  0.124656  0  0.947908  0  0  0.129359  0  1.012822  0  0  0.133348  0  1.010082  0  0  0.11809  0.126481  0  1.014845  0
H  H14  1  0.19634003  0.62655098  0.16318338  1  0  0.12469  0  0.947803  0  0  0.129383  0  1.012743  0  0  0.133374  0  1.010006  0  0  0.118109  0.126489  0  1.014722  0
H  H15  1  0.30368555  0.12655242  0.33682195  1  0  0.124703  0  0.947855  0  0  0.129365  0  1.012805  0  0  0.133357  0  1.01007  0  0  0.118095  0.126472  0  1.014785  0
H  H16  1  0.61880046  0.35075296  0.73923726  1  0  0.101195  0  0.977882  0  0  0.107011  0  1.045313  0  0  0.109499  0  1.045804  0  0  0.102595  0.105182  0  1.045144  0
H  H17  1  0.88116791  0.85075664  0.76075453  1  0  0.101317  0  0.977799  0  0  0.107085  0  1.045254  0  0  0.109577  0  1.045741  0  0  0.102573  0.105249  0  1.045086  0
H  H18  1  0.38119942  0.64925574  0.26076557  1  0  0.101179  0  0.977868  0  0  0.106978  0  1.045336  0  0  0.109463  0  1.04583  0  0  0.102579  0.105146  0  1.04515  0
H  H19  1  0.11881828  0.14924494  0.23923770  1  0  0.101174  0  0.977821  0  0  0.107054  0  1.045153  0  0  0.109542  0  1.045639  0  0  0.102582  0.105219  0  1.044964  0
H  H20  1  0.36775885  0.02671742  0.91941529  1  0  0.415309  0  0.895355  0  0  0.382338  0  0.96369  0  0  0.392745  0  0.948518  0  0  0.286692  0.375008  0  0.974345  0
H  H21  1  0.13221719  0.52674529  0.58058711  1  0  0.415184  0  0.895524  0  0  0.382246  0  0.963819  0  0  0.392654  0  0.948647  0  0  0.286631  0.37491  0  0.97449  0
H  H22  1  0.63224110  0.97326992  0.08058259  1  0  0.415347  0  0.895305  0  0  0.382342  0  0.963686  0  0  0.392742  0  0.948522  0  0  0.286692  0.375017  0  0.97433  0
H  H23  1  0.86777054  0.47326768  0.41941875  1  0  0.415275  0  0.895403  0  0  0.382344  0  0.963684  0  0  0.392747  0  0.948515  0  0  0.286703  0.375014  0  0.974338  0
H  H24  1  0.10236240  0.96893887  0.91129515  1  0  0.413562  0  0.8988  0  0  0.380256  0  0.967411  0  0  0.392032  0  0.950221  0  0  0.282046  0.371944  0  0.979516  0
H  H25  1  0.39761062  0.46895857  0.58870456  1  0  0.413567  0  0.898789  0  0  0.380254  0  0.967415  0  0  0.392028  0  0.950229  0  0  0.282005  0.371944  0  0.979519  0
H  H26  1  0.89763582  0.03105132  0.08870229  1  0  0.413646  0  0.898705  0  0  0.380316  0  0.967363  0  0  0.392093  0  0.950173  0  0  0.282062  0.372002  0  0.97947  0
H  H27  1  0.60237886  0.53105440  0.41129968  1  0  0.413553  0  0.898818  0  0  0.38021  0  0.9675  0  0  0.391988  0  0.950307  0  0  0.281972  0.371899  0  0.979604  0
H  H28  1  0.28312346  0.79120990  0.05017199  1  0  0.423156  0  0.879781  0  0  0.395935  0  0.938065  0  0  0.406884  0  0.921821  0  0  0.288018  0.388157  0  0.949587  0
H  H29  1  0.21688673  0.29122061  0.44982924  1  0  0.423234  0  0.879678  0  0  0.39602  0  0.937945  0  0  0.406969  0  0.921702  0  0  0.28806  0.388245  0  0.949463  0
H  H30  1  0.71688169  0.20878029  0.94982559  1  0  0.423129  0  0.879824  0  0  0.395921  0  0.93808  0  0  0.406869  0  0.921838  0  0  0.288007  0.388144  0  0.949599  0
H  H31  1  0.78311660  0.70880090  0.55017448  1  0  0.423121  0  0.879838  0  0  0.395894  0  0.938133  0  0  0.406845  0  0.921888  0  0  0.287997  0.388117  0  0.949661  0
H  H32  1  0.25687467  0.82276548  0.98588842  1  0  0.40689  0  0.911179  0  0  0.377975  0  0.973266  0  0  0.388809  0  0.957371  0  0  0.274154  0.370326  0  0.984462  0
H  H33  1  0.24311439  0.32278669  0.51411265  1  0  0.407061  0  0.911024  0  0  0.378104  0  0.973184  0  0  0.388942  0  0.957285  0  0  0.274195  0.370453  0  0.984388  0
H  H34  1  0.74313221  0.17722044  0.01410878  1  0  0.407037  0  0.911032  0  0  0.378102  0  0.973149  0  0  0.388937  0  0.957254  0  0  0.274199  0.370451  0  0.984349  0
H  H35  1  0.75687856  0.67723055  0.48589126  1  0  0.406942  0  0.911119  0  0  0.378034  0  0.973187  0  0  0.38887  0  0.957292  0  0  0.274171  0.370387  0  0.984381  0
C  C36  1  0.90427846  0.48203381  0.70347917  1  0  -0.035088  0  3.696657  0  0  -0.01918  0  3.932904  0  0  -0.023807  0  3.952976  0  0  -0.002857  -0.016153  0  3.91922  0
C  C37  1  0.59570620  0.98202602  0.79651637  1  0  -0.035159  0  3.696952  0  0  -0.019251  0  3.9331  0  0  -0.023885  0  3.95316  0  0  -0.002873  -0.016217  0  3.919457  0
C  C38  1  0.09571971  0.51797346  0.29652238  1  0  -0.035226  0  3.696822  0  0  -0.01932  0  3.933061  0  0  -0.023956  0  3.953125  0  0  -0.002864  -0.016296  0  3.919352  0
C  C39  1  0.40428685  0.01796987  0.20348013  1  0  -0.035216  0  3.696799  0  0  -0.019325  0  3.933044  0  0  -0.023961  0  3.953111  0  0  -0.002837  -0.016295  0  3.919322  0
C  C40  1  0.12738690  0.55813168  0.71323915  1  0  -0.056476  0  3.692711  0  0  -0.078646  0  3.945016  0  0  -0.080514  0  3.964529  0  0  -0.076051  -0.077329  0  3.931787  0
C  C41  1  0.37260060  0.05812013  0.78675836  1  0  -0.056391  0  3.692661  0  0  -0.078574  0  3.944971  0  0  -0.080384  0  3.96451  0  0  -0.075972  -0.077261  0  3.931783  0
C  C42  1  0.87261297  0.44187702  0.28676408  1  0  -0.056522  0  3.692697  0  0  -0.078635  0  3.945024  0  0  -0.080467  0  3.964544  0  0  -0.076084  -0.077319  0  3.931759  0
C  C43  1  0.62740109  0.94187148  0.21323832  1  0  -0.056313  0  3.692648  0  0  -0.078454  0  3.944944  0  0  -0.080305  0  3.964457  0  0  -0.076029  -0.077139  0  3.931677  0
C  C44  1  0.23286334  0.56962529  0.76679742  1  0  -0.096851  0  3.717242  0  0  -0.11933  0  3.972234  0  0  -0.119906  0  3.992071  0  0  -0.076695  -0.119064  0  3.959869  0
C  C45  1  0.26711416  0.06962342  0.73319955  1  0  -0.096962  0  3.716855  0  0  -0.119338  0  3.971907  0  0  -0.119936  0  3.9917  0  0  -0.076687  -0.118814  0  3.958539  0
C  C46  1  0.76714002  0.43037059  0.23320424  1  0  -0.09689  0  3.717127  0  0  -0.119384  0  3.972107  0  0  -0.119962  0  3.99194  0  0  -0.076718  -0.119115  0  3.959714  0
C  C47  1  0.73287195  0.93037389  0.26679845  1  0  -0.097056  0  3.717215  0  0  -0.119531  0  3.972221  0  0  -0.120112  0  3.992061  0  0  -0.076753  -0.119261  0  3.959841  0
C  C48  1  0.11219070  0.50433133  0.81037115  1  0  0.085525  0  3.698971  0  0  0.073576  0  3.948876  0  0  0.071797  0  3.970033  0  0  0.084508  0.069771  0  3.931914  0
C  C49  1  0.38779338  0.00432777  0.68962344  1  0  0.08564  0  3.698621  0  0  0.07346  0  3.948783  0  0  0.071772  0  3.969856  0  0  0.084432  0.074435  0  3.934613  0
C  C50  1  0.88782301  0.49566313  0.18963197  1  0  0.085501  0  3.698894  0  0  0.073608  0  3.948822  0  0  0.071776  0  3.969965  0  0  0.084559  0.069795  0  3.931848  0
C  C51  1  0.61220314  0.99566953  0.31037272  1  0  0.085572  0  3.698857  0  0  0.073628  0  3.948777  0  0  0.071816  0  3.969923  0  0  0.084528  0.069819  0  3.93184  0
C  C52  1  0.89196452  0.42363928  0.80182268  1  0  -0.084701  0  3.680218  0  0  -0.11028  0  3.93719  0  0  -0.110508  0  3.954923  0  0  -0.069882  -0.110182  0  3.926099  0
C  C53  1  0.60800963  0.92364076  0.69817140  1  0  -0.084823  0  3.680422  0  0  -0.110332  0  3.937395  0  0  -0.110582  0  3.955109  0  0  -0.069868  -0.109986  0  3.925371  0
C  C54  1  0.10804231  0.57635660  0.19817823  1  0  -0.0849  0  3.680258  0  0  -0.110482  0  3.93726  0  0  -0.110715  0  3.955004  0  0  -0.06994  -0.11038  0  3.926157  0
C  C55  1  0.39197823  0.07635798  0.30182457  1  0  -0.084761  0  3.68018  0  0  -0.110261  0  3.937105  0  0  -0.110496  0  3.954849  0  0  -0.069816  -0.11016  0  3.92601  0
C  C56  1  0.79029036  0.41193782  0.74791035  1  0  -0.069911  0  3.714596  0  0  -0.087115  0  3.960002  0  0  -0.08947  0  3.981643  0  0  -0.07882  -0.085492  0  3.945339  0
C  C57  1  0.70967826  0.91193387  0.75208147  1  0  -0.069946  0  3.714583  0  0  -0.087056  0  3.959835  0  0  -0.089416  0  3.981486  0  0  -0.078723  -0.085416  0  3.94523  0
C  C58  1  0.20971127  0.58806803  0.25209169  1  0  -0.069711  0  3.714488  0  0  -0.086905  0  3.959893  0  0  -0.089253  0  3.981532  0  0  -0.078781  -0.085275  0  3.945203  0
C  C59  1  0.29031482  0.08805917  0.24791297  1  0  -0.06993  0  3.714675  0  0  -0.087167  0  3.959997  0  0  -0.089517  0  3.981637  0  0  -0.078866  -0.085532  0  3.945296  0
C  C60  1  0.78082804  0.48325347  0.64598411  1  0  0.640501  0  3.945856  0  0  0.588311  0  4.250669  0  0  0.621444  0  4.242774  0  0  0.203864  0.56597  0  4.255069  0
C  C61  1  0.71914802  0.98324372  0.85401043  1  0  0.640484  0  3.946086  0  0  0.588338  0  4.250788  0  0  0.62148  0  4.242885  0  0  0.203777  0.565988  0  4.255162  0
C  C62  1  0.21917011  0.51675523  0.35401867  1  0  0.640512  0  3.945753  0  0  0.588369  0  4.250487  0  0  0.621508  0  4.242589  0  0  0.203838  0.566026  0  4.254849  0
C  C63  1  0.28085021  0.01674789  0.14598659  1  0  0.64075  0  3.945747  0  0  0.588609  0  4.250464  0  0  0.62175  0  4.242559  0  0  0.203935  0.566261  0  4.25483  0
N  N64  1  0.22077674  0.52048056  0.86681681  1  0  0.485578  0  3.933534  0  0  0.537105  0  4.20007  0  0  0.55809  0  4.207783  0  0  0.0626  0.540269  0  4.167552  0
N  N65  1  0.27918877  0.02050632  0.63318244  1  0  0.485898  0  3.933258  0  0  0.537509  0  4.199752  0  0  0.558422  0  4.207516  0  0  0.062736  0.523456  0  4.194621  0
N  N66  1  0.77922488  0.47949682  0.13318564  1  0  0.486197  0  3.932947  0  0  0.537528  0  4.199725  0  0  0.558691  0  4.2072  0  0  0.062839  0.540719  0  4.167172  0
N  N67  1  0.72079561  0.97950949  0.36681552  1  0  0.48594  0  3.933108  0  0  0.537293  0  4.19985  0  0  0.558396  0  4.207406  0  0  0.062629  0.540422  0  4.167383  0
O  O68  1  0.23038729  0.00277497  0.94020774  1  0  -0.886022  0  1.82151  0  0  -0.827285  0  1.98752  0  0  -0.848126  0  1.95573  0  0  -0.645354  -0.812358  0  2.009662  0
O  O69  1  0.26958800  0.50280611  0.55979365  1  0  -0.885903  0  1.821583  0  0  -0.827165  0  1.987535  0  0  -0.848009  0  1.955752  0  0  -0.645241  -0.812235  0  2.009692  0
O  O70  1  0.76961440  0.99720811  0.05978976  1  0  -0.886106  0  1.821316  0  0  -0.827324  0  1.987377  0  0  -0.848159  0  1.955606  0  0  -0.645362  -0.8124  0  2.009516  0
O  O71  1  0.73039801  0.49720828  0.44021176  1  0  -0.885941  0  1.821537  0  0  -0.82722  0  1.987487  0  0  -0.848061  0  1.955708  0  0  -0.645287  -0.81229  0  2.009625  0
O  O72  1  0.26628487  0.72033264  0.01472889  1  0  -0.958704  0  1.792208  0  0  -0.915298  0  1.966176  0  0  -0.934509  0  1.934617  0  0  -0.754697  -0.901537  0  1.988136  0
O  O73  1  0.23372303  0.22034793  0.48527220  1  0  -0.95896  0  1.792  0  0  -0.915536  0  1.965986  0  0  -0.934749  0  1.934426  0  0  -0.754764  -0.901774  0  1.987976  0
O  O74  1  0.73372546  0.27965470  0.98526880  1  0  -0.958823  0  1.792201  0  0  -0.91538  0  1.966125  0  0  -0.934591  0  1.934567  0  0  -0.754714  -0.901615  0  1.988086  0
O  O75  1  0.76628030  0.77967216  0.51473111  1  0  -0.958724  0  1.792208  0  0  -0.91532  0  1.966174  0  0  -0.934533  0  1.934614  0  0  -0.754683  -0.901563  0  1.988163  0
O  O76  1  0.58730713  0.39946028  0.63923498  1  0  -0.636144  0  1.96614  0  0  -0.587863  0  2.195308  0  0  -0.613138  0  2.188184  0  0  -0.330061  -0.570153  0  2.199633  0
O  O77  1  0.91267318  0.89946120  0.86075741  1  0  -0.636179  0  1.966082  0  0  -0.587943  0  2.195238  0  0  -0.613221  0  2.188101  0  0  -0.330073  -0.570246  0  2.199658  0
O  O78  1  0.41268928  0.60054557  0.36076818  1  0  -0.636204  0  1.966267  0  0  -0.587921  0  2.195418  0  0  -0.613198  0  2.188286  0  0  -0.330059  -0.570224  0  2.199832  0
O  O79  1  0.08732854  0.10053469  0.13923721  1  0  -0.63626  0  1.966133  0  0  -0.588013  0  2.195307  0  0  -0.613291  0  2.188174  0  0  -0.330112  -0.570313  0  2.199718  0
O  O80  1  0.87861547  0.57319163  0.60864858  1  0  -0.674555  0  2.017499  0  0  -0.612883  0  2.241452  0  0  -0.637941  0  2.229779  0  0  -0.326848  -0.595222  0  2.248893  0
O  O81  1  0.62135773  0.07317047  0.89134875  1  0  -0.674525  0  2.017442  0  0  -0.612865  0  2.241351  0  0  -0.637919  0  2.229667  0  0  -0.326794  -0.595204  0  2.248774  0
O  O82  1  0.12137060  0.42681565  0.39135271  1  0  -0.674533  0  2.017239  0  0  -0.612879  0  2.241152  0  0  -0.637934  0  2.229471  0  0  -0.326832  -0.595213  0  2.24857  0
O  O83  1  0.37863531  0.92681545  0.10864857  1  0  -0.6747  0  2.01729  0  0  -0.613018  0  2.241211  0  0  -0.638073  0  2.229527  0  0  -0.326889  -0.595356  0  2.24863  0
O  O84  1  0.42069420  0.58525754  0.87360681  1  0  -0.367872  0  1.7599  0  0  -0.354728  0  1.959852  0  0  -0.366469  0  1.956278  0  0  -0.141782  -0.35291  0  1.954046  0
O  O85  1  0.07929762  0.08527539  0.62639222  1  0  -0.367819  0  1.760075  0  0  -0.354712  0  1.960014  0  0  -0.366426  0  1.956458  0  0  -0.141706  -0.346964  0  1.962651  0
O  O86  1  0.57932646  0.41471699  0.12639481  1  0  -0.368038  0  1.759864  0  0  -0.35478  0  1.959938  0  0  -0.366571  0  1.956274  0  0  -0.141759  -0.352988  0  1.954136  0
O  O87  1  0.92068503  0.91471907  0.37360611  1  0  -0.367939  0  1.759939  0  0  -0.354711  0  1.960035  0  0  -0.366482  0  1.9564  0  0  -0.141698  -0.352866  0  1.954234  0
O  O88  1  0.10807341  0.46723801  0.90530393  1  0  -0.381686  0  1.792724  0  0  -0.373464  0  2.006601  0  0  -0.385353  0  2.001859  0  0  -0.163305  -0.371477  0  2.001533  0
O  O89  1  0.39190654  0.96726962  0.59469098  1  0  -0.382029  0  1.792478  0  0  -0.37377  0  2.006322  0  0  -0.38565  0  2.001605  0  0  -0.163473  -0.365841  0  2.009725  0
O  O90  1  0.89195072  0.53274222  0.09469653  1  0  -0.382053  0  1.79242  0  0  -0.373809  0  2.006349  0  0  -0.38577  0  2.001537  0  0  -0.163536  -0.371823  0  2.001265  0
O  O91  1  0.60808824  0.03277040  0.40530556  1  0  -0.381905  0  1.792352  0  0  -0.373647  0  2.006237  0  0  -0.385583  0  2.001444  0  0  -0.163387  -0.371665  0  2.001227  0
