# generated using pymatgen
data_Al2CdH60C60N6(ClO6)2
_symmetry_space_group_name_H-M   'P 1'
_cell_length_a   15.15506540
_cell_length_b   15.29493161
_cell_length_c   21.02058352
_cell_angle_alpha   79.61088863
_cell_angle_beta   68.82480083
_cell_angle_gamma   60.31649769
_symmetry_Int_Tables_number   1
_chemical_formula_structural   Al2CdH60C60N6(ClO6)2
_chemical_formula_sum   'Al4 Cd2 H120 C120 N12 Cl4 O24'
_cell_volume   3947.26195714
_cell_formula_units_Z   2
loop_
 _symmetry_equiv_pos_site_id
 _symmetry_equiv_pos_as_xyz
  1  'x, y, z'
loop_
 _atom_site_type_symbol
 _atom_site_label
 _atom_site_symmetry_multiplicity
 _atom_site_fract_x
 _atom_site_fract_y
 _atom_site_fract_z
 _atom_site_occupancy
 _atom_site_pbe_bader_charge
 _atom_site_pbe_bader_spin_density
 _atom_site_pbe_cm5_charge
 _atom_site_pbe_ddec_charge
 _atom_site_pbe_ddec_spin_density
 _atom_site_pbe_ddec_sum_bond_order
 _atom_site_pbe_magmom
Al  Al0  1  0.76399604  0.47850295  0.00598905  1  2.494799  0  0.381547  1.496735  0  2.782059  0
Al  Al1  1  0.74825160  0.02170495  0.49404294  1  2.495984  0  0.381771  1.496441  0  2.782842  0
Al  Al2  1  0.23599812  0.52150219  0.99401072  1  2.494851  0  0.381475  1.496661  0  2.782224  0
Al  Al3  1  0.25174885  0.97829634  0.50596024  1  2.495959  0  0.38174  1.496259  0  2.783095  0
Cd  Cd4  1  0.49999937  0.99999909  0.00000182  1  1.16721  0  0.662638  0.666242  0  2.483223  0
Cd  Cd5  1  0.00000167  0.49999832  0.49999963  1  1.155559  0  0.662935  0.66775  0  2.481113  0
H  H6  1  0.78533266  0.12835302  0.98402629  1  0.072254  0  0.105595  0.112452  0  0.992613  0
H  H7  1  0.39759980  0.37157501  0.51587299  1  0.028331  0  0.105309  0.111187  0  0.992923  0
H  H8  1  0.21467125  0.87164688  0.01597270  1  0.072333  0  0.105605  0.112464  0  0.992621  0
H  H9  1  0.60240153  0.62842331  0.48412864  1  0.028452  0  0.105326  0.111204  0  0.992968  0
H  H10  1  0.71894505  0.00606380  0.98491538  1  0.14  0  0.097357  0.076402  0  1.051256  0
H  H11  1  0.20984251  0.49383641  0.51505234  1  0.104973  0  0.09738  0.075962  0  1.052644  0
H  H12  1  0.28106035  0.99393373  0.01508753  1  0.139925  0  0.097403  0.07646  0  1.051172  0
H  H13  1  0.79015829  0.50616192  0.48494911  1  0.104939  0  0.097371  0.075939  0  1.052667  0
H  H14  1  0.45557296  0.36118147  0.03642413  1  0.141144  0  0.110256  0.124721  0  1.047821  0
H  H15  1  0.35317975  0.13869832  0.46343728  1  0.128543  0  0.110401  0.12511  0  1.047536  0
H  H16  1  0.54443295  0.63881401  0.96357150  1  0.141089  0  0.110239  0.124651  0  1.047887  0
H  H17  1  0.64682814  0.86129860  0.53656061  1  0.128512  0  0.110406  0.125145  0  1.047376  0
H  H18  1  0.83348721  0.45684920  0.63388314  1  0.08843  0  0.108553  0.076573  0  1.020673  0
H  H19  1  0.42449251  0.04253854  0.86646147  1  0.119908  0  0.109055  0.077911  0  1.021252  0
H  H20  1  0.16650962  0.54315068  0.36611657  1  0.088452  0  0.108572  0.076625  0  1.02064  0
H  H21  1  0.57550340  0.95746352  0.13354091  1  0.119937  0  0.109041  0.077914  0  1.021335  0
H  H22  1  0.51276770  0.42435006  0.93574557  1  0.104273  0  0.103105  0.161586  0  1.029539  0
H  H23  1  0.37255321  0.07571256  0.56436483  1  0.086712  0  0.103073  0.161025  0  1.029974  0
H  H24  1  0.48723202  0.57565067  0.06425082  1  0.104246  0  0.103114  0.161617  0  1.02952  0
H  H25  1  0.62744941  0.92428584  0.43563406  1  0.086685  0  0.103096  0.161109  0  1.029996  0
H  H26  1  0.64138975  0.36615559  0.87636354  1  0.112422  0  0.094881  0.142827  0  1.045626  0
H  H27  1  0.38359518  0.13394130  0.62370455  1  0.111144  0  0.094933  0.142729  0  1.045443  0
H  H28  1  0.35861179  0.63384362  0.12363320  1  0.11248  0  0.094906  0.142889  0  1.045608  0
H  H29  1  0.61640838  0.86605712  0.37629339  1  0.111066  0  0.094928  0.142712  0  1.045488  0
H  H30  1  0.57573763  0.49921390  0.88840961  1  0.053803  0  0.095343  0.14669  0  0.985658  0
H  H31  1  0.46297652  0.00089228  0.61166121  1  0.04377  0  0.095269  0.146863  0  0.984846  0
H  H32  1  0.42426248  0.50078607  0.11158677  1  0.053807  0  0.095341  0.146695  0  0.985558  0
H  H33  1  0.53702605  0.99910614  0.38833702  1  0.043849  0  0.095245  0.146854  0  0.984826  0
H  H34  1  0.54360750  0.78118496  0.10933514  1  0.065025  0  0.097479  0.15577  0  1.013443  0
H  H35  1  0.93385233  0.71899972  0.39062808  1  0.105941  0  0.097507  0.15516  0  1.013107  0
H  H36  1  0.45638549  0.21881706  0.89066877  1  0.064979  0  0.097521  0.155819  0  1.013417  0
H  H37  1  0.06614733  0.28100087  0.60937340  1  0.10597  0  0.09751  0.155145  0  1.013074  0
H  H38  1  0.54950999  0.73770622  0.19238525  1  0.052859  0  0.08711  0.129877  0  1.041157  0
H  H39  1  0.97951537  0.76249857  0.30759002  1  0.05379  0  0.086944  0.129091  0  1.042681  0
H  H40  1  0.45048461  0.26229656  0.80761809  1  0.052943  0  0.087101  0.129877  0  1.041179  0
H  H41  1  0.02048477  0.23749901  0.69241106  1  0.053892  0  0.086943  0.129072  0  1.042701  0
H  H42  1  0.48376996  0.70281812  0.15316942  1  0.097354  0  0.096383  0.151953  0  1.012507  0
H  H43  1  0.83960598  0.79750650  0.34683522  1  0.09585  0  0.096639  0.151291  0  1.011711  0
H  H44  1  0.51622816  0.29718167  0.84683329  1  0.097346  0  0.096388  0.151965  0  1.012528  0
H  H45  1  0.16039418  0.20249187  0.65316473  1  0.095864  0  0.096634  0.15126  0  1.011752  0
H  H46  1  0.77903145  0.45062135  0.76206198  1  0.076093  0  0.105992  0.115433  0  1.007834  0
H  H47  1  0.49188746  0.04865109  0.73826932  1  0.068317  0  0.105822  0.114774  0  1.008202  0
H  H48  1  0.22096804  0.54937929  0.23793752  1  0.076094  0  0.105953  0.115351  0  1.007877  0
H  H49  1  0.50810966  0.95135171  0.26173361  1  0.068311  0  0.105828  0.114766  0  1.008221  0
H  H50  1  0.79571391  0.17059718  0.09795649  1  0.06269  0  0.103198  0.149768  0  0.978241  0
H  H51  1  0.56448787  0.32942015  0.40199911  1  0.043985  0  0.103505  0.149741  0  0.978225  0
H  H52  1  0.20428095  0.82940648  0.90204261  1  0.062896  0  0.103236  0.149825  0  0.97825  0
H  H53  1  0.43551334  0.67058122  0.59800114  1  0.044018  0  0.103499  0.149709  0  0.978233  0
H  H54  1  0.65479755  0.21668339  0.12835651  1  0.044343  0  0.094085  0.139769  0  1.007788  0
H  H55  1  0.50003963  0.28342600  0.37157508  1  0.041343  0  0.093823  0.139638  0  1.009259  0
H  H56  1  0.34519518  0.78332253  0.87164291  1  0.044491  0  0.094104  0.139777  0  1.007763  0
H  H57  1  0.49996553  0.71657462  0.62842512  1  0.041573  0  0.093816  0.139599  0  1.009226  0
H  H58  1  0.71631262  0.26586477  0.16102223  1  0.06749  0  0.102912  0.153827  0  0.980756  0
H  H59  1  0.64345466  0.23415839  0.33893791  1  0.067046  0  0.102674  0.15363  0  0.980106  0
H  H60  1  0.28367987  0.73413963  0.83897746  1  0.067449  0  0.102911  0.1538  0  0.980738  0
H  H61  1  0.35654705  0.76584679  0.66106066  1  0.067037  0  0.102668  0.153576  0  0.980145  0
H  H62  1  0.00041761  0.41522258  0.10174078  1  0.074951  0  0.104951  0.162903  0  0.962375  0
H  H63  1  0.01742582  0.08502197  0.39813088  1  0.065579  0  0.105236  0.163489  0  0.963896  0
H  H64  1  0.99957951  0.58477578  0.89825939  1  0.074965  0  0.104964  0.162956  0  0.962339  0
H  H65  1  0.98258488  0.91497203  0.60186422  1  0.065364  0  0.105182  0.163389  0  0.963964  0
H  H66  1  0.93724786  0.52860904  0.14998824  1  0.029999  0  0.084522  0.121863  0  1.058349  0
H  H67  1  0.11587703  0.97156341  0.34991150  1  0.057065  0  0.08468  0.122513  0  1.058655  0
H  H68  1  0.06275166  0.47138778  0.85001312  1  0.029402  0  0.084556  0.121901  0  1.058304  0
H  H69  1  0.88413010  0.02842899  0.65008655  1  0.057051  0  0.084644  0.122402  0  1.058674  0
H  H70  1  0.99732996  0.52720520  0.06003989  1  0.119499  0  0.112222  0.1754  0  0.988808  0
H  H71  1  0.08449411  0.97302732  0.43984217  1  0.124566  0  0.112098  0.175713  0  0.98839  0
H  H72  1  0.00267111  0.47279241  0.93996024  1  0.11946  0  0.112265  0.175475  0  0.98877  0
H  H73  1  0.91551214  0.02696662  0.56015458  1  0.124519  0  0.11207  0.175623  0  0.988428  0
H  H74  1  0.71380738  0.70438542  0.82818666  1  0.048598  0  0.101718  0.152223  0  0.972689  0
H  H75  1  0.74641314  0.79555730  0.67180658  1  0.06012  0  0.101468  0.152087  0  0.973279  0
H  H76  1  0.28619287  0.29561530  0.17180991  1  0.047737  0  0.10173  0.152234  0  0.972682  0
H  H77  1  0.25358149  0.20444326  0.32819571  1  0.06013  0  0.101441  0.152052  0  0.973344  0
H  H78  1  0.84948120  0.67763045  0.79851070  1  0.047146  0  0.091811  0.137421  0  1.022844  0
H  H79  1  0.82564433  0.82247900  0.70132229  1  0.022444  0  0.091894  0.137093  0  1.022795  0
H  H80  1  0.15051689  0.32236873  0.20148739  1  0.047189  0  0.091801  0.137394  0  1.02289  0
H  H81  1  0.17435238  0.17751472  0.29868200  1  0.022629  0  0.091882  0.137103  0  1.022713  0
H  H82  1  0.76454845  0.73352256  0.88141500  1  0.099794  0  0.096162  0.157264  0  1.018128  0
H  H83  1  0.87947202  0.76666136  0.61840564  1  0.116031  0  0.095521  0.156822  0  1.018084  0
H  H84  1  0.23545028  0.26647816  0.11858169  1  0.099685  0  0.096188  0.157327  0  1.018152  0
H  H85  1  0.12052556  0.23333543  0.38159697  1  0.116159  0  0.095508  0.156832  0  1.018067  0
H  H86  1  0.40564526  0.23231192  0.02779951  1  0.163487  0  0.107215  0.08944  0  1.039211  0
H  H87  1  0.16572332  0.26757108  0.47209870  1  0.159099  0  0.107064  0.089202  0  1.040669  0
H  H88  1  0.59435642  0.76768344  0.97220040  1  0.163445  0  0.107254  0.089555  0  1.039161  0
H  H89  1  0.83428433  0.73242433  0.52789946  1  0.159031  0  0.107048  0.089191  0  1.040647  0
H  H90  1  0.00983525  0.23564074  0.86386885  1  0.08529  0  0.100776  0.152918  0  0.981169  0
H  H91  1  0.60926077  0.26446940  0.63620002  1  0.06324  0  0.101073  0.154065  0  0.98101  0
H  H92  1  0.99016151  0.76436058  0.13613304  1  0.085306  0  0.100767  0.152923  0  0.981167  0
H  H93  1  0.39073954  0.73553114  0.36380297  1  0.063212  0  0.101074  0.154082  0  0.981015  0
H  H94  1  0.02867833  0.30479625  0.78581370  1  0.069329  0  0.095694  0.144718  0  1.019562  0
H  H95  1  0.61909828  0.19533372  0.71424909  1  0.069511  0  0.095545  0.144685  0  1.020081  0
H  H96  1  0.97132151  0.69520285  0.21418693  1  0.069278  0  0.095681  0.144732  0  1.019518  0
H  H97  1  0.38090241  0.80466607  0.28575388  1  0.069608  0  0.095519  0.144637  0  1.020137  0
H  H98  1  0.91930381  0.27800545  0.81646715  1  0.057471  0  0.098568  0.145727  0  0.999711  0
H  H99  1  0.51353616  0.22217176  0.68367945  1  0.01869  0  0.098375  0.146424  0  1.000069  0
H  H100  1  0.08069472  0.72199437  0.18353443  1  0.057502  0  0.098575  0.145733  0  0.999745  0
H  H101  1  0.48646549  0.77782582  0.31632152  1  0.018666  0  0.098411  0.146443  0  1.000109  0
H  H102  1  0.05702706  0.54496024  0.61992162  1  0.094614  0  0.106566  0.07816  0  1.024473  0
H  H103  1  0.72219357  0.95524265  0.87994023  1  0.117074  0  0.10676  0.077874  0  1.027374  0
H  H104  1  0.94297190  0.45503740  0.38007777  1  0.094793  0  0.10655  0.07816  0  1.024377  0
H  H105  1  0.27780387  0.04475481  0.12006502  1  0.117172  0  0.106764  0.077982  0  1.027472  0
H  H106  1  0.02011596  0.53319931  0.74674206  1  0.050074  0  0.106042  0.112774  0  1.007658  0
H  H107  1  0.80016886  0.96706255  0.75309325  1  0.073796  0  0.105818  0.112266  0  1.008473  0
H  H108  1  0.97988400  0.46679833  0.25325704  1  0.050119  0  0.106045  0.112793  0  1.007632  0
H  H109  1  0.19982785  0.03293419  0.24691097  1  0.073582  0  0.105783  0.112242  0  1.008414  0
H  H110  1  0.73747724  0.55293338  0.26024224  1  0.04572  0  0.104074  0.111968  0  0.992373  0
H  H111  1  0.05082942  0.94705921  0.23957237  1  0.059673  0  0.104236  0.112346  0  0.99407  0
H  H112  1  0.26252099  0.44707097  0.73975881  1  0.045647  0  0.104081  0.111935  0  0.992373  0
H  H113  1  0.94916726  0.05294453  0.76042416  1  0.059765  0  0.104214  0.112326  0  0.994234  0
H  H114  1  0.75023447  0.78329731  0.11039043  1  0.136864  0  0.095383  0.121907  0  1.040753  0
H  H115  1  0.14377036  0.71710973  0.38963874  1  0.138467  0  0.095471  0.121286  0  1.041938  0
H  H116  1  0.24976479  0.21670341  0.88960644  1  0.136939  0  0.095396  0.121936  0  1.040819  0
H  H117  1  0.85622708  0.28289392  0.61036062  1  0.138458  0  0.095463  0.121298  0  1.041871  0
H  H118  1  0.74387160  0.87521590  0.20063323  1  0.059285  0  0.11025  0.073453  0  0.972493  0
H  H119  1  0.31959215  0.62496091  0.29937208  1  0.044554  0  0.110283  0.073528  0  0.973467  0
H  H120  1  0.25613372  0.12478563  0.79936141  1  0.05941  0  0.110265  0.073505  0  0.972446  0
H  H121  1  0.68040819  0.37504042  0.70062978  1  0.044545  0  0.11029  0.073501  0  0.973529  0
H  H122  1  0.73124661  0.65427950  0.34421672  1  0.044302  0  0.104141  0.068444  0  1.011019  0
H  H123  1  0.22996054  0.84550881  0.15557730  1  0.075487  0  0.10385  0.068446  0  1.010547  0
H  H124  1  0.26875800  0.34572494  0.65578144  1  0.044049  0  0.104139  0.068422  0  1.01108  0
H  H125  1  0.77003831  0.15448886  0.84442078  1  0.075486  0  0.103852  0.068419  0  1.010616  0
C  C126  1  0.70006230  0.15436143  0.99509552  1  -0.066568  0  -0.093531  -0.197312  0  3.979436  0
C  C127  1  0.34942522  0.34555297  0.50481154  1  0.008611  0  -0.093448  -0.196422  0  3.978488  0
C  C128  1  0.29994146  0.84563772  0.00490328  1  -0.066514  0  -0.093528  -0.197325  0  3.979558  0
C  C129  1  0.65057520  0.65444610  0.49518992  1  0.0085  0  -0.093465  -0.196415  0  3.978483  0
C  C130  1  0.84981080  0.52285906  0.08977244  1  0.757865  0  0.155235  0.477376  0  3.967629  0
C  C131  1  0.96233616  0.97743231  0.41018920  1  0.772637  0  0.156055  0.480112  0  3.96362  0
C  C132  1  0.15018576  0.47714154  0.91022861  1  0.757719  0  0.155221  0.477432  0  3.967466  0
C  C133  1  0.03766435  0.02256753  0.58981180  1  0.772727  0  0.156067  0.480012  0  3.96359  0
C  C134  1  0.89977517  0.39251337  0.87379771  1  0.747709  0  0.151277  0.470536  0  3.971013  0
C  C135  1  0.66590267  0.10758823  0.62630069  1  0.742479  0  0.151433  0.471778  0  3.968552  0
C  C136  1  0.10022207  0.60748797  0.12620371  1  0.747568  0  0.151216  0.470509  0  3.971036  0
C  C137  1  0.33410050  0.89241078  0.37370301  1  0.743444  0  0.151354  0.471565  0  3.968627  0
C  C138  1  0.62583303  0.25605063  0.01020656  1  -0.062976  0  0.010312  0.16132  0  4.014572  0
C  C139  1  0.39201061  0.24385209  0.48967652  1  0.000802  0  0.009544  0.160259  0  4.01658  0
C  C140  1  0.37416708  0.74394935  0.98978982  1  -0.063401  0  0.010279  0.161359  0  4.014473  0
C  C141  1  0.60799494  0.75614636  0.51032083  1  0.000361  0  0.009495  0.160109  0  4.016651  0
C  C142  1  0.65519884  0.62788245  0.11106453  1  0.797263  0  0.158349  0.488629  0  3.949551  0
C  C143  1  0.89409165  0.87232312  0.38892585  1  0.756549  0  0.158438  0.487419  0  3.948365  0
C  C144  1  0.34479802  0.37211964  0.88893690  1  0.797339  0  0.158354  0.488594  0  3.949369  0
C  C145  1  0.10590453  0.12767823  0.61107520  1  0.756235  0  0.15848  0.487476  0  3.948309  0
C  C146  1  0.86623431  0.48765782  0.84091574  1  0.009195  0  -0.062496  -0.331173  0  3.985802  0
C  C147  1  0.69472614  0.01240491  0.65915134  1  0.035853  0  -0.063095  -0.332942  0  3.986061  0
C  C148  1  0.13376480  0.51234056  0.15908385  1  0.009582  0  -0.06247  -0.331081  0  3.985733  0
C  C149  1  0.30527522  0.98759561  0.34085201  1  0.035251  0  -0.063019  -0.332693  0  3.986034  0
C  C150  1  0.66458130  0.08645776  0.99432931  1  0.462484  0  0.031816  0.075725  0  3.991748  0
C  C151  1  0.24529917  0.41344853  0.50557489  1  0.420727  0  0.032232  0.076718  0  3.990446  0
C  C152  1  0.33542534  0.91353686  0.00567027  1  0.462352  0  0.031777  0.075639  0  3.991894  0
C  C153  1  0.75470295  0.58654907  0.49442560  1  0.420692  0  0.032236  0.076764  0  3.990261  0
C  C154  1  0.70934904  0.31906228  0.06151626  1  0.755057  0  0.152821  0.472526  0  3.966205  0
C  C155  1  0.58988401  0.18096871  0.43843857  1  0.73716  0  0.153484  0.472022  0  3.964803  0
C  C156  1  0.29064202  0.68094589  0.93848300  1  0.754783  0  0.152816  0.472509  0  3.966328  0
C  C157  1  0.41011902  0.81903114  0.56156203  1  0.737178  0  0.153499  0.472051  0  3.964909  0
C  C158  1  0.74990331  0.60127277  0.12559670  1  -0.055093  0  -0.059149  -0.320616  0  3.96132  0
C  C159  1  0.97670799  0.89901989  0.37433983  1  -0.037695  0  -0.058992  -0.320948  0  3.958579  0
C  C160  1  0.25009345  0.39872855  0.87440519  1  -0.054986  0  -0.059065  -0.320511  0  3.961039  0
C  C161  1  0.02329095  0.10098156  0.62565770  1  -0.037474  0  -0.059016  -0.320928  0  3.95872  0
C  C162  1  0.63999912  0.41408928  0.96715334  1  0.724936  0  0.154995  0.483483  0  3.942317  0
C  C163  1  0.52099370  0.08597491  0.53285507  1  0.72705  0  0.154665  0.481413  0  3.945809  0
C  C164  1  0.36000061  0.58591145  0.03284305  1  0.725054  0  0.154995  0.483449  0  3.942385  0
C  C165  1  0.47900740  0.91402650  0.46714385  1  0.726739  0  0.154655  0.481382  0  3.945763  0
C  C166  1  0.66040669  0.33038371  0.01233652  1  -0.010838  0  -0.061418  -0.325261  0  3.975587  0
C  C167  1  0.50301446  0.16953231  0.48755411  1  0.008466  0  -0.060658  -0.323142  0  3.978244  0
C  C168  1  0.33959170  0.66961855  0.98765905  1  -0.010421  0  -0.061436  -0.32525  0  3.975537  0
C  C169  1  0.49699106  0.83046535  0.51244437  1  0.008422  0  -0.060635  -0.323106  0  3.978117  0
C  C170  1  0.81007731  0.57819479  0.87861733  1  0.72298  0  0.156208  0.477285  0  3.958279  0
C  C171  1  0.76671188  0.92193042  0.62135925  1  0.713497  0  0.157187  0.47804  0  3.959878  0
C  C172  1  0.18992101  0.42180589  0.12138049  1  0.723011  0  0.156177  0.477123  0  3.958314  0
C  C173  1  0.23328825  0.07806859  0.37864467  1  0.713615  0  0.157104  0.477871  0  3.960083  0
C  C174  1  0.51767384  0.28380134  0.02377766  1  -0.036963  0  -0.084991  -0.178788  0  3.912924  0
C  C175  1  0.32519422  0.21609376  0.47610316  1  0.009312  0  -0.084966  -0.179324  0  3.913601  0
C  C176  1  0.48233069  0.71619631  0.97622111  1  -0.036965  0  -0.08491  -0.178643  0  3.912707  0
C  C177  1  0.67481071  0.78390392  0.52389448  1  0.009679  0  -0.084884  -0.179196  0  3.913285  0
C  C178  1  0.87079001  0.47531091  0.66156652  1  0.500879  0  0.044489  0.094675  0  3.975313  0
C  C179  1  0.50792146  0.02420062  0.83867602  1  0.473889  0  0.044835  0.093794  0  3.97404  0
C  C180  1  0.12921092  0.52468595  0.33843341  1  0.500902  0  0.04446  0.094578  0  3.975404  0
C  C181  1  0.49207580  0.97579991  0.16132718  1  0.474348  0  0.04479  0.093672  0  3.974296  0
C  C182  1  0.58891102  0.42708838  0.91448844  1  -0.138469  0  -0.24797  -0.491832  0  3.892168  0
C  C183  1  0.43016630  0.07300014  0.58558157  1  -0.109587  0  -0.247875  -0.490943  0  3.891231  0
C  C184  1  0.41108800  0.57291384  0.08550863  1  -0.1385  0  -0.248029  -0.491974  0  3.89216  0
C  C185  1  0.56983963  0.92699755  0.41441577  1  -0.109256  0  -0.247927  -0.49107  0  3.891311  0
C  C186  1  0.55155575  0.71683058  0.14456492  1  -0.111233  0  -0.247854  -0.484892  0  3.892211  0
C  C187  1  0.91281879  0.78339899  0.35542491  1  -0.129018  0  -0.247649  -0.481785  0  3.891687  0
C  C188  1  0.44844107  0.28317073  0.85543763  1  -0.111174  0  -0.247893  -0.484951  0  3.892278  0
C  C189  1  0.08718000  0.21660012  0.64457534  1  -0.129137  0  -0.247647  -0.481717  0  3.891725  0
C  C190  1  0.89497653  0.49198202  0.76543295  1  -0.012529  0  0.01363  0.167803  0  4.003508  0
C  C191  1  0.65249185  0.00786791  0.73464182  1  -0.035085  0  0.01339  0.167327  0  4.00627  0
C  C192  1  0.10502191  0.50801562  0.23456626  1  -0.01258  0  0.013555  0.167708  0  4.003566  0
C  C193  1  0.34750462  0.99213334  0.26536252  1  -0.034415  0  0.013374  0.167292  0  4.006361  0
C  C194  1  0.84204902  0.47085575  0.73242451  1  -0.027766  0  -0.087444  -0.189364  0  3.937533  0
C  C195  1  0.54551376  0.02864622  0.76779938  1  -0.034875  0  -0.086862  -0.187706  0  3.937767  0
C  C196  1  0.15795094  0.52914189  0.26757459  1  -0.027716  0  -0.087355  -0.189177  0  3.937451  0
C  C197  1  0.45448383  0.97135358  0.23220315  1  -0.035309  0  -0.086875  -0.187661  0  3.937999  0
C  C198  1  0.71809718  0.23840526  0.11563078  1  -0.080088  0  -0.23865  -0.47731  0  3.928689  0
C  C199  1  0.57229047  0.26164571  0.38432103  1  -0.058335  0  -0.238444  -0.477024  0  3.929926  0
C  C200  1  0.28189766  0.76159761  0.88436945  1  -0.080397  0  -0.238708  -0.477355  0  3.928673  0
C  C201  1  0.42771250  0.73835417  0.61567891  1  -0.058598  0  -0.23841  -0.476869  0  3.929908  0
C  C202  1  0.95103181  0.49732387  0.10245271  1  -0.114833  0  -0.243272  -0.485057  0  3.901777  0
C  C203  1  0.05079572  0.00292455  0.39745334  1  -0.150983  0  -0.244003  -0.487589  0  3.903983  0
C  C204  1  0.04896636  0.50267448  0.89754783  1  -0.114237  0  -0.243396  -0.485278  0  3.901713  0
C  C205  1  0.94921006  0.99706938  0.60254389  1  -0.15079  0  -0.243911  -0.487227  0  3.903851  0
C  C206  1  0.78439523  0.67924451  0.84434198  1  -0.093206  0  -0.243805  -0.487384  0  3.906138  0
C  C207  1  0.80795702  0.82082702  0.65555909  1  -0.108946  0  -0.243171  -0.486451  0  3.905417  0
C  C208  1  0.21560285  0.32075467  0.15565611  1  -0.092249  0  -0.243875  -0.487424  0  3.906222  0
C  C209  1  0.19204030  0.17917048  0.34444484  1  -0.109384  0  -0.243138  -0.486426  0  3.905335  0
C  C210  1  0.74512533  0.65948590  0.17768624  1  -0.001097  0  0.013171  0.16579  0  3.99863  0
C  C211  1  0.08233409  0.84075854  0.32224306  1  0.048818  0  0.012696  0.164606  0  3.998386  0
C  C212  1  0.25487328  0.34051470  0.82231488  1  -0.001198  0  0.013194  0.165845  0  3.998525  0
C  C213  1  0.91766426  0.15924293  0.67775363  1  0.048886  0  0.012712  0.164615  0  3.998511  0
C  C214  1  0.48875864  0.21216723  0.02007537  1  0.442952  0  0.043018  0.098063  0  3.937679  0
C  C215  1  0.22094528  0.28771854  0.47982236  1  0.386306  0  0.04361  0.099445  0  3.937693  0
C  C216  1  0.51124752  0.78782737  0.97992469  1  0.443188  0  0.042881  0.09778  0  3.937659  0
C  C217  1  0.77905951  0.71227840  0.52017509  1  0.386397  0  0.043635  0.099463  0  3.9375  0
C  C218  1  0.96943195  0.29727766  0.83231837  1  -0.130966  0  -0.241493  -0.480665  0  3.911567  0
C  C219  1  0.59883266  0.20284306  0.66778164  1  -0.064331  0  -0.241389  -0.482975  0  3.912334  0
C  C220  1  0.03056557  0.70272215  0.16768350  1  -0.131051  0  -0.241473  -0.480702  0  3.911598  0
C  C221  1  0.40116914  0.79715528  0.33221952  1  -0.064562  0  -0.241401  -0.482948  0  3.912419  0
C  C222  1  0.99763165  0.52228056  0.65364993  1  0.511652  0  0.0439  0.098945  0  3.963135  0
C  C223  1  0.67383328  0.97768363  0.84629522  1  0.418437  0  0.043908  0.098216  0  3.967111  0
C  C224  1  0.00237012  0.47771556  0.34634952  1  0.51142  0  0.043947  0.098964  0  3.962995  0
C  C225  1  0.32616456  0.02231386  0.15370890  1  0.418865  0  0.043919  0.098049  0  3.967139  0
C  C226  1  0.97517946  0.51747365  0.72402499  1  -0.045447  0  -0.086918  -0.189119  0  3.948205  0
C  C227  1  0.71682159  0.98258908  0.77591366  1  0.00082  0  -0.086808  -0.187879  0  3.953048  0
C  C228  1  0.02482032  0.48252245  0.27597504  1  -0.045546  0  -0.086978  -0.189195  0  3.948171  0
C  C229  1  0.28317669  0.01741065  0.22409104  1  0.000556  0  -0.086776  -0.187913  0  3.952845  0
C  C230  1  0.73927435  0.62425004  0.24482093  1  -0.059612  0  -0.093043  -0.204335  0  3.978986  0
C  C231  1  0.10847176  0.87582258  0.25505273  1  -0.083628  0  -0.093209  -0.205337  0  3.980466  0
C  C232  1  0.26072467  0.37575359  0.75517898  1  -0.059836  0  -0.093065  -0.204315  0  3.978898  0
C  C233  1  0.89152743  0.12417957  0.74494631  1  -0.083482  0  -0.093199  -0.205378  0  3.980558  0
C  C234  1  0.74689364  0.75183412  0.16169156  1  -0.062921  0  -0.085053  -0.177738  0  3.901439  0
C  C235  1  0.16036939  0.74843474  0.33828382  1  -0.026051  0  -0.084393  -0.174701  0  3.900368  0
C  C236  1  0.25310969  0.24816580  0.83830658  1  -0.062727  0  -0.085065  -0.177758  0  3.901587  0
C  C237  1  0.83962793  0.25156736  0.66171713  1  -0.026197  0  -0.084471  -0.174875  0  3.900522  0
C  C238  1  0.74251290  0.80308009  0.21226942  1  0.47782  0  0.038393  0.083959  0  4.027285  0
C  C239  1  0.25783844  0.69706714  0.28768482  1  0.466994  0  0.037645  0.081868  0  4.0304  0
C  C240  1  0.25748949  0.19692441  0.78772668  1  0.477329  0  0.038377  0.08392  0  4.027276  0
C  C241  1  0.74216006  0.30293349  0.71231498  1  0.466953  0  0.037716  0.08204  0  4.030347  0
C  C242  1  0.73565090  0.68086230  0.29173895  1  0.51348  0  0.032  0.077307  0  4.040129  0
C  C243  1  0.20839730  0.81908551  0.20810870  1  0.430656  0  0.032505  0.078324  0  4.03621  0
C  C244  1  0.26435222  0.31914293  0.70825819  1  0.513987  0  0.032019  0.077327  0  4.040101  0
C  C245  1  0.79160078  0.18091509  0.79189223  1  0.430543  0  0.03254  0.078388  0  4.036424  0
N  N246  1  0.56067509  0.11494359  0.00588335  1  -1.238155  0  -0.333188  -0.234523  0  3.512938  0
N  N247  1  0.18145588  0.38493847  0.49403306  1  -1.232367  0  -0.333806  -0.23538  0  3.509047  0
N  N248  1  0.43933049  0.88505104  0.99411586  1  -1.238218  0  -0.333134  -0.234401  0  3.512958  0
N  N249  1  0.81854809  0.61505840  0.50596666  1  -1.232327  0  -0.333838  -0.235461  0  3.508951  0
N  N250  1  0.94687070  0.50098309  0.62276729  1  -1.242645  0  -0.327852  -0.229037  0  3.50316  0
N  N251  1  0.57092731  0.99875276  0.87733218  1  -1.211848  0  -0.328673  -0.228623  0  3.501309  0
N  N252  1  0.05312987  0.49901531  0.37723153  1  -1.242618  0  -0.327809  -0.228982  0  3.503221  0
N  N253  1  0.42907027  0.00124703  0.12267035  1  -1.212519  0  -0.328641  -0.22852  0  3.501304  0
N  N254  1  0.73693093  0.76951042  0.27656088  1  -1.209864  0  -0.32505  -0.279751  0  3.36494  0
N  N255  1  0.28306787  0.73048572  0.22334732  1  -1.196379  0  -0.324896  -0.279391  0  3.365386  0
N  N256  1  0.26307307  0.23049485  0.72343465  1  -1.209688  0  -0.325086  -0.279825  0  3.364948  0
N  N257  1  0.71693563  0.26951114  0.77665287  1  -1.196374  0  -0.324914  -0.279376  0  3.365588  0
Cl  Cl258  1  0.31260129  0.14719569  0.99757573  1  -0.71547  0  -0.367154  -0.577254  0  1.023463  0
Cl  Cl259  1  0.95730850  0.35282575  0.50241232  1  -0.713391  0  -0.367217  -0.577244  0  1.023352  0
Cl  Cl260  1  0.68739778  0.85280333  0.00242782  1  -0.715485  0  -0.367157  -0.577207  0  1.023409  0
Cl  Cl261  1  0.04269389  0.64717114  0.49758684  1  -0.713355  0  -0.367203  -0.577241  0  1.023385  0
O  O262  1  0.74705780  0.37599707  0.06540961  1  -1.233736  0  -0.233819  -0.531083  0  2.348191  0
O  O263  1  0.68839979  0.12418141  0.43460641  1  -1.233523  0  -0.235035  -0.531435  0  2.345201  0
O  O264  1  0.25292989  0.62401325  0.93459338  1  -1.233648  0  -0.233812  -0.531081  0  2.348274  0
O  O265  1  0.31160318  0.87581989  0.56539636  1  -1.233423  0  -0.235041  -0.531437  0  2.345311  0
O  O266  1  0.66557389  0.48251023  0.96763480  1  -1.246127  0  -0.23584  -0.555221  0  2.421155  0
O  O267  1  0.61543564  0.01764180  0.53244378  1  -1.25007  0  -0.235924  -0.554162  0  2.422516  0
O  O268  1  0.33442071  0.51749414  0.03236563  1  -1.246081  0  -0.2358  -0.555167  0  2.421229  0
O  O269  1  0.38456818  0.98236035  0.46755560  1  -1.250008  0  -0.235911  -0.554062  0  2.422436  0
O  O270  1  0.86290860  0.47015614  0.04267781  1  -1.24465  0  -0.236002  -0.542309  0  2.3743  0
O  O271  1  0.87559524  0.03008731  0.45733130  1  -1.254822  0  -0.235917  -0.543077  0  2.372292  0
O  O272  1  0.13708339  0.52984746  0.95732349  1  -1.24461  0  -0.235965  -0.542352  0  2.374215  0
O  O273  1  0.12440781  0.96991174  0.54267108  1  -1.254779  0  -0.235885  -0.543032  0  2.372302  0
O  O274  1  0.87649466  0.38074273  0.93874417  1  -1.227514  0  -0.236362  -0.535015  0  2.33893  0
O  O275  1  0.69567154  0.11940858  0.56135710  1  -1.228932  0  -0.236721  -0.534945  0  2.336977  0
O  O276  1  0.12349810  0.61925936  0.06125711  1  -1.227608  0  -0.236296  -0.534976  0  2.338951  0
O  O277  1  0.30433386  0.88058895  0.43864581  1  -1.229133  0  -0.236663  -0.53478  0  2.336939  0
O  O278  1  0.65151181  0.58026543  0.06829511  1  -1.240272  0  -0.23404  -0.539016  0  2.367339  0
O  O279  1  0.79997182  0.91992850  0.43174779  1  -1.246344  0  -0.234285  -0.538902  0  2.367822  0
O  O280  1  0.34848282  0.41974275  0.93170412  1  -1.240385  0  -0.234053  -0.538989  0  2.367245  0
O  O281  1  0.20002708  0.08007057  0.56825379  1  -1.246254  0  -0.234283  -0.538893  0  2.367744  0
O  O282  1  0.77611078  0.58093253  0.94392679  1  -1.194227  0  -0.228554  -0.52404  0  2.367016  0
O  O283  1  0.80063725  0.91926509  0.55604458  1  -1.195671  0  -0.229001  -0.524706  0  2.36926  0
O  O284  1  0.22388877  0.41906968  0.05607046  1  -1.194314  0  -0.228502  -0.523939  0  2.367029  0
O  O285  1  0.19936341  0.08073392  0.44395952  1  -1.195828  0  -0.228947  -0.524624  0  2.36941  0
