# generated using pymatgen
data_ZnH24C25N4O5
_symmetry_space_group_name_H-M   'P 1'
_cell_length_a   9.66095103
_cell_length_b   9.66093581
_cell_length_c   48.08171034
_cell_angle_alpha   90.00003299
_cell_angle_beta   90.00000494
_cell_angle_gamma   119.99977446
_symmetry_Int_Tables_number   1
_chemical_formula_structural   ZnH24C25N4O5
_chemical_formula_sum   'Zn6 H144 C150 N24 O30'
_cell_volume   3886.42779735
_cell_formula_units_Z   6
loop_
 _symmetry_equiv_pos_site_id
 _symmetry_equiv_pos_as_xyz
  1  'x, y, z'
loop_
 _atom_site_type_symbol
 _atom_site_label
 _atom_site_symmetry_multiplicity
 _atom_site_fract_x
 _atom_site_fract_y
 _atom_site_fract_z
 _atom_site_occupancy
 _atom_site_pbe_bader_charge
 _atom_site_pbe_bader_spin_density
 _atom_site_pbe_cm5_charge
 _atom_site_pbe_ddec_charge
 _atom_site_pbe_ddec_spin_density
 _atom_site_pbe_ddec_sum_bond_order
 _atom_site_pbe_magmom
Zn  Zn0  1  0.29881845  0.59764242  0.08333401  1  1.25224  0  0.721716  0.769724  0  2.509748  0
Zn  Zn1  1  0.29881794  0.70118142  0.74999853  1  1.250683  0  0.721715  0.7697  0  2.509847  0
Zn  Zn2  1  0.40236026  0.70118222  0.41666326  1  1.252325  0  0.721752  0.769792  0  2.5096  0
Zn  Zn3  1  0.70118077  0.40235719  0.58333410  1  1.25225  0  0.721688  0.769752  0  2.509705  0
Zn  Zn4  1  0.70118066  0.29881784  0.24999862  1  1.250695  0  0.721704  0.769685  0  2.509803  0
Zn  Zn5  1  0.59764038  0.29881816  0.91666292  1  1.252357  0  0.721808  0.7699  0  2.509501  0
H  H6  1  0.54969760  0.66887315  0.04429859  1  0.552971  0  0.311801  0.271783  0  1.00747  0
H  H7  1  0.11916979  0.45030347  0.71096642  1  0.553949  0  0.311842  0.271789  0  1.007485  0
H  H8  1  0.33113678  0.88083807  0.37762805  1  0.573096  0  0.311849  0.271762  0  1.007542  0
H  H9  1  0.45030211  0.33112570  0.54429826  1  0.552954  0  0.311845  0.271778  0  1.007535  0
H  H10  1  0.88083077  0.54969770  0.21096612  1  0.553902  0  0.311854  0.271814  0  1.007434  0
H  H11  1  0.66886332  0.11916052  0.87762769  1  0.573084  0  0.311837  0.271712  0  1.007606  0
H  H12  1  0.88084071  0.33114151  0.62236953  1  0.573137  0  0.311846  0.271747  0  1.007592  0
H  H13  1  0.66886825  0.54969479  0.95569940  1  0.553337  0  0.311838  0.27177  0  1.007564  0
H  H14  1  0.45030704  0.11916999  0.28903195  1  0.553795  0  0.311825  0.271808  0  1.007582  0
H  H15  1  0.11916023  0.66885870  0.12236965  1  0.573127  0  0.311844  0.271745  0  1.007574  0
H  H16  1  0.33113249  0.45030575  0.45569908  1  0.553346  0  0.31184  0.271791  0  1.007559  0
H  H17  1  0.54969328  0.88082986  0.78903168  1  0.553794  0  0.311836  0.27182  0  1.007556  0
H  H18  1  0.63352820  0.19550555  0.06661058  1  0.061246  0  0.098792  0.10328  0  0.990942  0
H  H19  1  0.56197536  0.36648157  0.73327719  1  0.058709  0  0.098827  0.103368  0  0.990838  0
H  H20  1  0.80450085  0.43802856  0.39994400  1  0.053033  0  0.09877  0.103237  0  0.99096  0
H  H21  1  0.36647201  0.80449502  0.56661051  1  0.061242  0  0.098793  0.103273  0  0.990938  0
H  H22  1  0.43802482  0.63351806  0.23327731  1  0.058712  0  0.098827  0.103371  0  0.990839  0
H  H23  1  0.19549975  0.56197176  0.89994410  1  0.053044  0  0.098774  0.103235  0  0.990966  0
H  H24  1  0.43802984  0.80451381  0.60004838  1  0.053344  0  0.098708  0.103132  0  0.990933  0
H  H25  1  0.19549087  0.63351400  0.93338218  1  0.061218  0  0.098767  0.103198  0  0.990887  0
H  H26  1  0.36649506  0.56197750  0.26671621  1  0.0591  0  0.098751  0.103228  0  0.990963  0
H  H27  1  0.56197105  0.19548631  0.10004845  1  0.053345  0  0.098703  0.103124  0  0.990946  0
H  H28  1  0.80451041  0.36648585  0.43338207  1  0.061206  0  0.098763  0.103204  0  0.990889  0
H  H29  1  0.63350461  0.43802286  0.76671631  1  0.059093  0  0.098755  0.103216  0  0.990991  0
H  H30  1  0.22685925  0.29954972  0.10998633  1  0.025216  0  0.092693  0.12383  0  1.036606  0
H  H31  1  0.07267813  0.77314068  0.77665420  1  0.040687  0  0.092713  0.123919  0  1.036564  0
H  H32  1  0.70045387  0.92731511  0.44331686  1  0.031722  0  0.092727  0.123912  0  1.036591  0
H  H33  1  0.77314003  0.70045000  0.60998625  1  0.025223  0  0.092693  0.123822  0  1.036622  0
H  H34  1  0.92732200  0.22686136  0.27665407  1  0.040773  0  0.092718  0.123934  0  1.03655  0
H  H35  1  0.29954787  0.07268642  0.94331670  1  0.031711  0  0.092717  0.123884  0  1.036612  0
H  H36  1  0.92731053  0.70046018  0.55668137  1  0.031956  0  0.092696  0.123872  0  1.036536  0
H  H37  1  0.29953763  0.22685092  0.89001266  1  0.025171  0  0.092707  0.123929  0  1.036541  0
H  H38  1  0.77314673  0.07267632  0.22334419  1  0.040601  0  0.092685  0.123933  0  1.036525  0
H  H39  1  0.07268862  0.29953932  0.05668145  1  0.031959  0  0.092704  0.123878  0  1.036538  0
H  H40  1  0.70046294  0.77314936  0.39001280  1  0.025184  0  0.092703  0.123924  0  1.036567  0
H  H41  1  0.22685387  0.92732490  0.72334433  1  0.040615  0  0.092689  0.123939  0  1.036543  0
H  H42  1  0.36961237  0.25129610  0.12291495  1  0.05116  0  0.099136  0.143401  0  0.99081  0
H  H43  1  0.88167555  0.63038294  0.78958323  1  0.057622  0  0.099156  0.14345  0  0.990629  0
H  H44  1  0.74871618  0.11832093  0.45624522  1  0.068722  0  0.099162  0.143463  0  0.990798  0
H  H45  1  0.63038694  0.74870367  0.62291508  1  0.051154  0  0.099143  0.143398  0  0.990805  0
H  H46  1  0.11832521  0.36961855  0.28958311  1  0.05762  0  0.099157  0.143455  0  0.99063  0
H  H47  1  0.25128456  0.88167962  0.95624515  1  0.068577  0  0.099171  0.143469  0  0.990788  0
H  H48  1  0.11832012  0.74872547  0.54375254  1  0.068663  0  0.099139  0.143416  0  0.990823  0
H  H49  1  0.25128395  0.36960049  0.87708301  1  0.051114  0  0.09911  0.143437  0  0.990769  0
H  H50  1  0.63039321  0.88167866  0.21041520  1  0.057555  0  0.099145  0.143486  0  0.990654  0
H  H51  1  0.88168062  0.25127441  0.04375263  1  0.068671  0  0.099141  0.143424  0  0.990823  0
H  H52  1  0.74871660  0.63039973  0.37708313  1  0.051128  0  0.099128  0.143467  0  0.990734  0
H  H53  1  0.36960795  0.11832191  0.71041505  1  0.057546  0  0.099139  0.14347  0  0.990663  0
H  H54  1  0.23964720  0.13590299  0.09569149  1  0.034345  0  0.097272  0.141272  0  0.983634  0
H  H55  1  0.89624270  0.76035408  0.76235979  1  0.068732  0  0.097327  0.141388  0  0.98356  0
H  H56  1  0.86410088  0.10374148  0.42902011  1  0.073819  0  0.097361  0.141439  0  0.983668  0
H  H57  1  0.76035204  0.86409667  0.59569164  1  0.034352  0  0.09727  0.141243  0  0.983687  0
H  H58  1  0.10375799  0.23964731  0.26235944  1  0.068741  0  0.097347  0.141398  0  0.983572  0
H  H59  1  0.13590082  0.89625999  0.92902004  1  0.073731  0  0.097339  0.141422  0  0.983681  0
H  H60  1  0.10373960  0.86410562  0.57097870  1  0.073791  0  0.097372  0.141412  0  0.98374  0
H  H61  1  0.13589353  0.23963895  0.90430790  1  0.034277  0  0.097336  0.141398  0  0.98366  0
H  H62  1  0.76036047  0.89624328  0.23763928  1  0.06873  0  0.097333  0.141412  0  0.983631  0
H  H63  1  0.89626061  0.13589497  0.07097877  1  0.073798  0  0.097375  0.141419  0  0.983734  0
H  H64  1  0.86410648  0.76036198  0.40430784  1  0.034272  0  0.097334  0.141385  0  0.983674  0
H  H65  1  0.23963913  0.10375696  0.73763933  1  0.068728  0  0.097326  0.141394  0  0.983628  0
H  H66  1  0.80784657  0.68155971  0.02707770  1  0.052826  0  0.102043  0.146927  0  0.974732  0
H  H67  1  0.87370818  0.19215632  0.69374593  1  0.049423  0  0.102015  0.14686  0  0.974654  0
H  H68  1  0.31844389  0.12629259  0.36040857  1  0.054174  0  0.10205  0.146947  0  0.974628  0
H  H69  1  0.19215457  0.31844173  0.52707778  1  0.052839  0  0.10204  0.146908  0  0.974738  0
H  H70  1  0.12629234  0.80784477  0.19374586  1  0.049423  0  0.102015  0.146859  0  0.974641  0
H  H71  1  0.68155601  0.87370816  0.86040830  1  0.054168  0  0.102114  0.147043  0  0.974564  0
H  H72  1  0.12629000  0.31845215  0.63958937  1  0.054337  0  0.102024  0.146847  0  0.974628  0
H  H73  1  0.68155070  0.80783635  0.97291969  1  0.053051  0  0.102065  0.146957  0  0.974686  0
H  H74  1  0.19216352  0.87371014  0.30625205  1  0.049315  0  0.102071  0.146922  0  0.974606  0
H  H75  1  0.87370728  0.68154562  0.13958930  1  0.054338  0  0.102024  0.146865  0  0.974639  0
H  H76  1  0.31844965  0.19216264  0.47291955  1  0.053068  0  0.102052  0.146906  0  0.974693  0
H  H77  1  0.80783402  0.12629055  0.80625212  1  0.048613  0  0.102058  0.146889  0  0.974568  0
H  H78  1  0.78104265  0.48805022  0.02252669  1  0.08433  0  0.096944  0.143146  0  1.013658  0
H  H79  1  0.70699794  0.21894725  0.68919680  1  0.070568  0  0.096939  0.143127  0  1.013751  0
H  H80  1  0.51194665  0.29299974  0.35585883  1  0.082075  0  0.096943  0.14316  0  1.013701  0
H  H81  1  0.21895625  0.51195137  0.52252658  1  0.084385  0  0.096931  0.143133  0  1.013675  0
H  H82  1  0.29300317  0.78105323  0.18919652  1  0.070562  0  0.096924  0.143097  0  1.013768  0
H  H83  1  0.48805117  0.70699892  0.85585874  1  0.082055  0  0.096948  0.143189  0  1.013701  0
H  H84  1  0.29299212  0.51195384  0.64413914  1  0.082155  0  0.0969  0.143083  0  1.013648  0
H  H85  1  0.48804442  0.78103183  0.97747048  1  0.084387  0  0.096992  0.143189  0  1.013594  0
H  H86  1  0.21895837  0.70700367  0.31080013  1  0.070051  0  0.096971  0.1431  0  1.013574  0
H  H87  1  0.70700577  0.48804335  0.14413967  1  0.082108  0  0.0969  0.143086  0  1.013716  0
H  H88  1  0.51195577  0.21896940  0.47747034  1  0.084393  0  0.096963  0.143102  0  1.013559  0
H  H89  1  0.78104082  0.29299747  0.81080042  1  0.070015  0  0.096961  0.14307  0  1.013619  0
H  H90  1  0.89127457  0.60382455  0.05141335  1  0.059021  0  0.097581  0.140917  0  1.007192  0
H  H91  1  0.71255479  0.10871766  0.71808304  1  0.053601  0  0.097537  0.140858  0  1.007311  0
H  H92  1  0.39617344  0.28745628  0.38474548  1  0.052654  0  0.097556  0.140846  0  1.007234  0
H  H93  1  0.10872619  0.39617536  0.55141344  1  0.059031  0  0.097581  0.140921  0  1.007204  0
H  H94  1  0.28744476  0.89128250  0.21808298  1  0.053614  0  0.097546  0.140868  0  1.00729  0
H  H95  1  0.60382772  0.71254337  0.88474540  1  0.052657  0  0.097545  0.140841  0  1.007222  0
H  H96  1  0.28746113  0.39617384  0.61525372  1  0.052675  0  0.097557  0.140879  0  1.007268  0
H  H97  1  0.60382426  0.89127667  0.94858507  1  0.059189  0  0.097544  0.140869  0  1.007237  0
H  H98  1  0.10871738  0.71255140  0.28191514  1  0.053543  0  0.097498  0.140797  0  1.007279  0
H  H99  1  0.71254099  0.60382514  0.11525405  1  0.052533  0  0.097552  0.140896  0  1.007285  0
H  H100  1  0.39617543  0.10872281  0.44858513  1  0.059193  0  0.097563  0.140865  0  1.00721  0
H  H101  1  0.89128130  0.28744799  0.78191564  1  0.05357  0  0.097517  0.140843  0  1.007269  0
H  H102  1  0.16309130  0.89323802  0.04721676  1  0.071729  0  0.103898  0.107321  0  1.009142  0
H  H103  1  0.73014737  0.83691002  0.71388647  1  0.088459  0  0.103864  0.107237  0  1.009141  0
H  H104  1  0.10675528  0.26986241  0.38054700  1  0.083518  0  0.103878  0.107316  0  1.009115  0
H  H105  1  0.83690885  0.10676247  0.54721661  1  0.071731  0  0.103849  0.107228  0  1.009187  0
H  H106  1  0.26985053  0.16308969  0.21388675  1  0.088462  0  0.103905  0.107302  0  1.009097  0
H  H107  1  0.89324527  0.73013782  0.88054672  1  0.08353  0  0.103898  0.10735  0  1.009086  0
H  H108  1  0.26986135  0.10675662  0.61945052  1  0.083338  0  0.103849  0.107214  0  1.009214  0
H  H109  1  0.89323000  0.16308760  0.95278122  1  0.07169  0  0.103855  0.107247  0  1.009218  0
H  H110  1  0.83690943  0.73014207  0.28611279  1  0.088394  0  0.103859  0.107209  0  1.009221  0
H  H111  1  0.73014018  0.89324298  0.11945026  1  0.08328  0  0.103861  0.107254  0  1.009086  0
H  H112  1  0.10676806  0.83691146  0.45278116  1  0.071703  0  0.103867  0.107262  0  1.009184  0
H  H113  1  0.16309192  0.26985881  0.78611224  1  0.088345  0  0.103927  0.107341  0  1.009279  0
H  H114  1  0.13733424  0.12317574  0.02950873  1  0.04651  0  0.105299  0.120435  0  1.009257  0
H  H115  1  0.98583733  0.86266118  0.69617746  1  0.049185  0  0.105312  0.120511  0  1.009382  0
H  H116  1  0.87682295  0.01416758  0.36283964  1  0.049058  0  0.105285  0.12041  0  1.009253  0
H  H117  1  0.86266544  0.87682305  0.52950868  1  0.046509  0  0.105286  0.120429  0  1.009253  0
H  H118  1  0.01415994  0.13733905  0.19617772  1  0.049168  0  0.105317  0.1205  0  1.009386  0
H  H119  1  0.12317652  0.98583155  0.86283937  1  0.049066  0  0.105261  0.120387  0  1.009241  0
H  H120  1  0.01416852  0.87682564  0.63715937  1  0.049027  0  0.10528  0.120403  0  1.009254  0
H  H121  1  0.12316714  0.13733150  0.97049065  1  0.046542  0  0.105271  0.120419  0  1.009346  0
H  H122  1  0.86266250  0.98583303  0.30382204  1  0.049326  0  0.105293  0.120484  0  1.009472  0
H  H123  1  0.98583023  0.12317479  0.13715986  1  0.049039  0  0.105293  0.120449  0  1.009262  0
H  H124  1  0.87683200  0.86266867  0.47049060  1  0.046542  0  0.105284  0.120471  0  1.009296  0
H  H125  1  0.13733623  0.01416645  0.80382124  1  0.049298  0  0.105336  0.120545  0  1.00942  0
H  H126  1  0.59005295  0.30852572  0.98807407  1  0.105454  0  0.104622  0.116851  0  1.053067  0
H  H127  1  0.71847352  0.40993999  0.65474504  1  0.102576  0  0.10466  0.116849  0  1.053053  0
H  H128  1  0.69145732  0.28152757  0.32140602  1  0.094383  0  0.104581  0.116694  0  1.053122  0
H  H129  1  0.40994624  0.69147452  0.48807399  1  0.105445  0  0.104615  0.116834  0  1.053093  0
H  H130  1  0.28152424  0.59005947  0.15474495  1  0.102577  0  0.104658  0.116837  0  1.053033  0
H  H131  1  0.30854324  0.71847019  0.82140614  1  0.09429  0  0.104567  0.116645  0  1.053157  0
H  H132  1  0.28153275  0.69146911  0.67859362  1  0.094486  0  0.104572  0.11676  0  1.053175  0
H  H133  1  0.30851654  0.59005150  0.01192578  1  0.105487  0  0.104557  0.116783  0  1.053046  0
H  H134  1  0.40993988  0.71846943  0.34525461  1  0.10265  0  0.10463  0.116819  0  1.053016  0
H  H135  1  0.71846404  0.30852942  0.17859350  1  0.094493  0  0.104595  0.116786  0  1.053177  0
H  H136  1  0.69148309  0.40994721  0.51192587  1  0.105464  0  0.104619  0.116867  0  1.053003  0
H  H137  1  0.59005835  0.28153082  0.84525406  1  0.102692  0  0.104635  0.116837  0  1.053056  0
H  H138  1  0.61458798  0.07652354  0.00572922  1  0.092576  0  0.10555  0.10832  0  1.005018  0
H  H139  1  0.46193589  0.38540293  0.67240019  1  0.084631  0  0.105536  0.108307  0  1.005001  0
H  H140  1  0.92346069  0.53806085  0.33906119  1  0.092626  0  0.105535  0.108189  0  1.00511  0
H  H141  1  0.38541311  0.92347782  0.50572915  1  0.092582  0  0.105549  0.108303  0  1.005003  0
H  H142  1  0.53806191  0.61459661  0.17240011  1  0.084639  0  0.105538  0.10831  0  1.005034  0
H  H143  1  0.07653921  0.46193149  0.83906086  1  0.092706  0  0.105578  0.10824  0  1.005098  0
H  H144  1  0.53807148  0.92346889  0.66093869  1  0.092641  0  0.105556  0.108305  0  1.005084  0
H  H145  1  0.07651637  0.61458355  0.99426958  1  0.092618  0  0.105544  0.108298  0  1.005005  0
H  H146  1  0.38540342  0.46193450  0.32759944  1  0.084638  0  0.105521  0.108284  0  1.005061  0
H  H147  1  0.46192852  0.07653044  0.16093813  1  0.09265  0  0.105551  0.108244  0  1.005188  0
H  H148  1  0.92348343  0.38541612  0.49426989  1  0.092583  0  0.105551  0.108311  0  1.005008  0
H  H149  1  0.61459624  0.53806834  0.82759913  1  0.084625  0  0.105531  0.108336  0  1.005003  0
C  C150  1  0.42792298  0.36850396  0.08321961  1  0.421163  0  0.096108  0.20143  0  4.022927  0
C  C151  1  0.94057413  0.57208233  0.74988643  1  0.420157  0  0.096033  0.201304  0  4.022592  0
C  C152  1  0.63149996  0.05942447  0.41655112  1  0.436911  0  0.096039  0.201436  0  4.022914  0
C  C153  1  0.57207727  0.63149669  0.58321952  1  0.421151  0  0.096101  0.201453  0  4.022872  0
C  C154  1  0.05942283  0.42791649  0.24988693  1  0.420155  0  0.096042  0.201349  0  4.02261  0
C  C155  1  0.36850068  0.94057591  0.91655106  1  0.436923  0  0.096049  0.201459  0  4.022895  0
C  C156  1  0.05942042  0.63150222  0.58344725  1  0.435969  0  0.096055  0.201389  0  4.022767  0
C  C157  1  0.36849855  0.42791683  0.91677752  1  0.419815  0  0.096075  0.201454  0  4.022595  0
C  C158  1  0.57209112  0.94057935  0.25010992  1  0.420339  0  0.096068  0.201438  0  4.022405  0
C  C159  1  0.94058086  0.36849945  0.08344735  1  0.435982  0  0.096038  0.201395  0  4.022782  0
C  C160  1  0.63150105  0.57208252  0.41677764  1  0.41993  0  0.096072  0.201414  0  4.022649  0
C  C161  1  0.42790851  0.05942095  0.75011018  1  0.420318  0  0.09608  0.201483  0  4.022427  0
C  C162  1  0.56899149  0.37610754  0.07362823  1  0.056872  0  -0.032713  -0.119592  0  3.963607  0
C  C163  1  0.80711209  0.43100893  0.74029504  1  0.043011  0  -0.032695  -0.119353  0  3.963484  0
C  C164  1  0.62389584  0.19289184  0.40695975  1  0.016048  0  -0.032756  -0.119708  0  3.963627  0
C  C165  1  0.43100873  0.62389306  0.57362834  1  0.056706  0  -0.03269  -0.119535  0  3.963548  0
C  C166  1  0.19288827  0.56898849  0.24029536  1  0.043055  0  -0.032693  -0.119457  0  3.963524  0
C  C167  1  0.37610581  0.80710954  0.90695968  1  0.016054  0  -0.032729  -0.1197  0  3.963684  0
C  C168  1  0.19288431  0.62388878  0.59303655  1  0.016487  0  -0.032702  -0.119516  0  3.963642  0
C  C169  1  0.37611313  0.56898933  0.92636725  1  0.057284  0  -0.032577  -0.119282  0  3.963428  0
C  C170  1  0.43101138  0.80711545  0.25969942  1  0.042306  0  -0.032648  -0.119378  0  3.963581  0
C  C171  1  0.80711656  0.37611130  0.09303644  1  0.016453  0  -0.032678  -0.119486  0  3.963574  0
C  C172  1  0.62388709  0.43100946  0.42636714  1  0.057068  0  -0.03259  -0.119285  0  3.963333  0
C  C173  1  0.56898827  0.19288488  0.75969949  1  0.04233  0  -0.032644  -0.119406  0  3.963561  0
C  C174  1  0.63775774  0.50546830  0.05496397  1  0.424703  0  0.108372  0.210816  0  3.961241  0
C  C175  1  0.86771018  0.36224163  0.72163222  1  0.422802  0  0.108397  0.210792  0  3.961338  0
C  C176  1  0.49453306  0.13229871  0.38829548  1  0.460549  0  0.108359  0.210785  0  3.96125  0
C  C177  1  0.36224303  0.49453163  0.55496386  1  0.424891  0  0.10838  0.210826  0  3.961254  0
C  C178  1  0.13229101  0.63775898  0.22163213  1  0.422684  0  0.108378  0.210818  0  3.961261  0
C  C179  1  0.50546588  0.86770112  0.88829499  1  0.460525  0  0.108358  0.210813  0  3.961257  0
C  C180  1  0.13229210  0.49452912  0.61170165  1  0.460478  0  0.108358  0.210652  0  3.961529  0
C  C181  1  0.50546869  0.63775657  0.94503111  1  0.424942  0  0.108248  0.210497  0  3.96144  0
C  C182  1  0.36224765  0.86770635  0.27836370  1  0.423347  0  0.108274  0.21061  0  3.961454  0
C  C183  1  0.86770734  0.50546837  0.11170155  1  0.460494  0  0.108362  0.210743  0  3.961402  0
C  C184  1  0.49453158  0.36224230  0.44503120  1  0.424894  0  0.108233  0.210501  0  3.961433  0
C  C185  1  0.63775324  0.13229286  0.77836355  1  0.423331  0  0.108233  0.210599  0  3.961429  0
C  C186  1  0.63769308  0.27537376  0.08333004  1  0.015437  0  -0.146703  -0.151831  0  3.987426  0
C  C187  1  0.63767962  0.36231245  0.74999727  1  0.013556  0  -0.146743  -0.152121  0  3.987786  0
C  C188  1  0.72463166  0.36232347  0.41666283  1  0.016168  0  -0.146711  -0.151851  0  3.987517  0
C  C189  1  0.36230777  0.72462628  0.58332996  1  0.015435  0  -0.146716  -0.151836  0  3.987449  0
C  C190  1  0.36231897  0.63768681  0.24999718  1  0.013659  0  -0.146757  -0.152122  0  3.987784  0
C  C191  1  0.27537002  0.63767795  0.91666273  1  0.01597  0  -0.146721  -0.151827  0  3.987481  0
C  C192  1  0.30960894  0.25800062  0.10396637  1  -0.004051  0  -0.232109  -0.420442  0  3.961418  0
C  C193  1  0.94837956  0.69038656  0.77063466  1  -0.06637  0  -0.232253  -0.420801  0  3.961233  0
C  C194  1  0.74200602  0.05161392  0.43729560  1  -0.075162  0  -0.232263  -0.4208  0  3.961723  0
C  C195  1  0.69039033  0.74199907  0.60396629  1  -0.004052  0  -0.232118  -0.420399  0  3.961445  0
C  C196  1  0.05162012  0.30961382  0.27063473  1  -0.06647  0  -0.232266  -0.420813  0  3.961259  0
C  C197  1  0.25799407  0.94838715  0.93729554  1  -0.074909  0  -0.23223  -0.420751  0  3.961715  0
C  C198  1  0.05160917  0.74201129  0.56270216  1  -0.075113  0  -0.232237  -0.420699  0  3.961615  0
C  C199  1  0.25799347  0.30960439  0.89603096  1  -0.003655  0  -0.232288  -0.420924  0  3.961534  0
C  C200  1  0.69039743  0.94838220  0.22936337  1  -0.066322  0  -0.232278  -0.42096  0  3.961373  0
C  C201  1  0.94839103  0.25798927  0.06270224  1  -0.075128  0  -0.232233  -0.42071  0  3.961619  0
C  C202  1  0.74200653  0.69039651  0.39603130  1  -0.00367  0  -0.232287  -0.420906  0  3.961563  0
C  C203  1  0.30960378  0.05161844  0.72936341  1  -0.066313  0  -0.232274  -0.420942  0  3.961426  0
C  C204  1  0.78718879  0.57371486  0.03819481  1  -0.077264  0  -0.230325  -0.42348  0  3.945042  0
C  C205  1  0.78651277  0.21280381  0.70486471  1  -0.030479  0  -0.230257  -0.423345  0  3.945178  0
C  C206  1  0.42628292  0.21347940  0.37152673  1  -0.062308  0  -0.230284  -0.423402  0  3.944969  0
C  C207  1  0.21281238  0.42628663  0.53819469  1  -0.077348  0  -0.230315  -0.423468  0  3.945092  0
C  C208  1  0.21348691  0.78719407  0.20486464  1  -0.030479  0  -0.23025  -0.423328  0  3.945186  0
C  C209  1  0.57371657  0.78651976  0.87152645  1  -0.062297  0  -0.230339  -0.423531  0  3.944923  0
C  C210  1  0.21348786  0.42629047  0.62847018  1  -0.062442  0  -0.230221  -0.42325  0  3.944996  0
C  C211  1  0.57370836  0.78718453  0.96180153  1  -0.077775  0  -0.230326  -0.42343  0  3.945027  0
C  C212  1  0.21281170  0.78651775  0.29513181  1  -0.02993  0  -0.230296  -0.423256  0  3.944944  0
C  C213  1  0.78651059  0.57370606  0.12847030  1  -0.062256  0  -0.230241  -0.423369  0  3.945087  0
C  C214  1  0.42629240  0.21281604  0.46180139  1  -0.077791  0  -0.230337  -0.423309  0  3.945006  0
C  C215  1  0.78718728  0.21348556  0.79513230  1  -0.029226  0  -0.230293  -0.423262  0  3.944962  0
C  C216  1  0.39066898  0.97148421  0.02774824  1  -0.069874  0  -0.031045  -0.072229  0  4.008826  0
C  C217  1  0.58081627  0.60933079  0.69441773  1  -0.084067  0  -0.031047  -0.07249  0  4.009007  0
C  C218  1  0.02852098  0.41919334  0.36107849  1  -0.064267  0  -0.031098  -0.072494  0  4.009348  0
C  C219  1  0.60933113  0.02851621  0.52774808  1  -0.070538  0  -0.031008  -0.072208  0  4.008863  0
C  C220  1  0.41918218  0.39066824  0.19441803  1  -0.084068  0  -0.031054  -0.072473  0  4.00899  0
C  C221  1  0.97148621  0.58080633  0.86107798  1  -0.064185  0  -0.031133  -0.072494  0  4.009315  0
C  C222  1  0.41919526  0.02851462  0.63891862  1  -0.063974  0  -0.031063  -0.072482  0  4.00946  0
C  C223  1  0.97147780  0.39066840  0.97225060  1  -0.07092  0  -0.030984  -0.072184  0  4.008684  0
C  C224  1  0.60932792  0.58080949  0.30558193  1  -0.084112  0  -0.030992  -0.072425  0  4.009011  0
C  C225  1  0.58080529  0.97148403  0.13891858  1  -0.063995  0  -0.031096  -0.07256  0  4.009353  0
C  C226  1  0.02852195  0.60933118  0.47225071  1  -0.070781  0  -0.030992  -0.072303  0  4.008698  0
C  C227  1  0.39067125  0.41919164  0.80558077  1  -0.084051  0  -0.03099  -0.072419  0  4.008979  0
C  C228  1  0.25548726  0.98424999  0.03403753  1  -0.048756  0  -0.08326  -0.066097  0  3.986379  0
C  C229  1  0.72876160  0.74451006  0.70070744  1  -0.048981  0  -0.083123  -0.065721  0  3.98619  0
C  C230  1  0.01574466  0.27124037  0.36736819  1  -0.038887  0  -0.083262  -0.066102  0  3.986672  0
C  C231  1  0.74451287  0.01575045  0.53403737  1  -0.04875  0  -0.083223  -0.066032  0  3.986508  0
C  C232  1  0.27123731  0.25549063  0.20070752  1  -0.04898  0  -0.083156  -0.065804  0  3.986214  0
C  C233  1  0.98425482  0.72875877  0.86736770  1  -0.038825  0  -0.083236  -0.066107  0  3.986486  0
C  C234  1  0.27124475  0.01574656  0.63262975  1  -0.039014  0  -0.083202  -0.065919  0  3.986637  0
C  C235  1  0.98424192  0.25548369  0.96596067  1  -0.048719  0  -0.083165  -0.065979  0  3.986435  0
C  C236  1  0.74451090  0.72875524  0.29929181  1  -0.048966  0  -0.08316  -0.065804  0  3.986546  0
C  C237  1  0.72875398  0.98425384  0.13262991  1  -0.038924  0  -0.083229  -0.065977  0  3.986617  0
C  C238  1  0.01575721  0.74451646  0.46596101  1  -0.048796  0  -0.083123  -0.065867  0  3.986427  0
C  C239  1  0.25548989  0.27124629  0.79929126  1  -0.04925  0  -0.083216  -0.065922  0  3.986649  0
C  C240  1  0.24083389  0.11170179  0.02421733  1  0.072661  0  -0.10518  -0.217635  0  4.018827  0
C  C241  1  0.87086986  0.75916419  0.69088687  1  0.075847  0  -0.105174  -0.217792  0  4.018881  0
C  C242  1  0.88828868  0.12913642  0.35754761  1  0.054023  0  -0.105169  -0.21754  0  4.018949  0
C  C243  1  0.75916518  0.88829758  0.52421727  1  0.072673  0  -0.105166  -0.217616  0  4.018967  0
C  C244  1  0.12912902  0.24083646  0.19088715  1  0.075846  0  -0.105217  -0.217791  0  4.0189  0
C  C245  1  0.11171121  0.87086432  0.85754712  1  0.054063  0  -0.105189  -0.217548  0  4.018961  0
C  C246  1  0.12914025  0.88829439  0.64244974  1  0.054344  0  -0.105173  -0.2176  0  4.01883  0
C  C247  1  0.11169660  0.24083227  0.97578061  1  0.072534  0  -0.105197  -0.217671  0  4.019064  0
C  C248  1  0.75916562  0.87086545  0.30911177  1  0.075769  0  -0.105128  -0.217633  0  4.019052  0
C  C249  1  0.87085986  0.11170263  0.14245065  1  0.054402  0  -0.105198  -0.217646  0  4.018935  0
C  C250  1  0.88830315  0.75916732  0.47578034  1  0.07253  0  -0.105188  -0.217698  0  4.018973  0
C  C251  1  0.24083312  0.12913405  0.80911099  1  0.076107  0  -0.105176  -0.217716  0  4.019011  0
C  C252  1  0.36426878  0.22868974  0.00804050  1  0.384362  0  0.088144  0.265024  0  4.043808  0
C  C253  1  0.86442294  0.63572958  0.67470920  1  0.372786  0  0.088172  0.265095  0  4.043771  0
C  C254  1  0.77129738  0.13558210  0.34137161  1  0.391473  0  0.088168  0.264815  0  4.044018  0
C  C255  1  0.63573128  0.77131059  0.50804042  1  0.384191  0  0.088197  0.265067  0  4.043797  0
C  C256  1  0.13557530  0.36427160  0.17470949  1  0.372994  0  0.088146  0.264977  0  4.043874  0
C  C257  1  0.22870040  0.86441650  0.84137112  1  0.391406  0  0.088149  0.264753  0  4.043981  0
C  C258  1  0.13558836  0.77130660  0.65862678  1  0.391567  0  0.088236  0.265146  0  4.043835  0
C  C259  1  0.22868302  0.36426469  0.99195870  1  0.384238  0  0.088189  0.265111  0  4.043741  0
C  C260  1  0.63572762  0.86441619  0.32529006  1  0.372917  0  0.088061  0.264847  0  4.043835  0
C  C261  1  0.86441268  0.22869376  0.15862707  1  0.391514  0  0.088206  0.264992  0  4.043819  0
C  C262  1  0.77131634  0.63573334  0.49195862  1  0.384307  0  0.088114  0.264924  0  4.043689  0
C  C263  1  0.36427383  0.13558485  0.82528908  1  0.373423  0  0.08811  0.26491  0  4.043843  0
C  C264  1  0.49793231  0.21630976  0.00102743  1  -0.041738  0  -0.102206  -0.200568  0  3.988104  0
C  C265  1  0.71837751  0.50206415  0.66769717  1  -0.049767  0  -0.102358  -0.200695  0  3.988094  0
C  C266  1  0.78367910  0.28162969  0.33435980  1  -0.062887  0  -0.102115  -0.200304  0  3.98797  0
C  C267  1  0.50206670  0.78368951  0.50102736  1  -0.041746  0  -0.102212  -0.200567  0  3.988144  0
C  C268  1  0.28161909  0.49793656  0.16769727  1  -0.04988  0  -0.10233  -0.200638  0  3.988049  0
C  C269  1  0.21631927  0.71836828  0.83435951  1  -0.062957  0  -0.102083  -0.200204  0  3.987961  0
C  C270  1  0.28163094  0.78368467  0.66563922  1  -0.063251  0  -0.102276  -0.200655  0  3.988175  0
C  C271  1  0.21629937  0.49792826  0.99897219  1  -0.050237  0  -0.102139  -0.200476  0  3.98807  0
C  C272  1  0.50206855  0.71837683  0.33230228  1  -0.04959  0  -0.102251  -0.200548  0  3.988132  0
C  C273  1  0.71836728  0.21631647  0.16563889  1  -0.063356  0  -0.102201  -0.200487  0  3.988212  0
C  C274  1  0.78369881  0.50207099  0.49897251  1  -0.050183  0  -0.102179  -0.200472  0  3.988073  0
C  C275  1  0.49793025  0.28162277  0.83230194  1  -0.049636  0  -0.102293  -0.200643  0  3.988163  0
C  C276  1  0.51073762  0.08778304  0.01086090  1  0.009672  0  -0.080884  -0.072592  0  3.989687  0
C  C277  1  0.57704525  0.48925695  0.67753105  1  0.023688  0  -0.080847  -0.072496  0  3.989723  0
C  C278  1  0.91220656  0.42295699  0.34419224  1  0.029627  0  -0.080867  -0.072338  0  3.989642  0
C  C279  1  0.48926304  0.91221671  0.51086084  1  0.009674  0  -0.080878  -0.072557  0  3.989664  0
C  C280  1  0.42295523  0.51074408  0.17753136  1  0.023709  0  -0.080856  -0.072517  0  3.989576  0
C  C281  1  0.08779732  0.57704174  0.84419234  1  0.029592  0  -0.080906  -0.072404  0  3.98977  0
C  C282  1  0.42296446  0.91220788  0.65580535  1  0.029432  0  -0.080826  -0.072381  0  3.9897  0
C  C283  1  0.08777751  0.51073115  0.98913747  1  0.018228  0  -0.080957  -0.072683  0  3.989883  0
C  C284  1  0.48925896  0.57704441  0.32246839  1  0.023448  0  -0.08088  -0.07253  0  3.989829  0
C  C285  1  0.57703700  0.08779410  0.15580582  1  0.029508  0  -0.080838  -0.07237  0  3.989771  0
C  C286  1  0.91222303  0.48926567  0.48913800  1  0.018108  0  -0.080958  -0.072677  0  3.989805  0
C  C287  1  0.51074320  0.42296212  0.82246807  1  0.023351  0  -0.080883  -0.072553  0  3.989581  0
C  C288  1  0.40776700  0.83807683  0.03975155  1  1.55422  0  0.204214  0.5727  0  4.224863  0
C  C289  1  0.43030858  0.59223663  0.70641896  1  1.569064  0  0.204294  0.57294  0  4.224685  0
C  C290  1  0.16191835  0.56969695  0.37308056  1  1.55088  0  0.20433  0.573005  0  4.224601  0
C  C291  1  0.59223477  0.16192407  0.53975140  1  1.554869  0  0.204316  0.572903  0  4.224751  0
C  C292  1  0.56969094  0.40776349  0.20641885  1  1.569059  0  0.204296  0.572965  0  4.224652  0
C  C293  1  0.83808039  0.43030504  0.87308025  1  1.550724  0  0.204318  0.572982  0  4.224542  0
C  C294  1  0.56969964  0.16192142  0.62691615  1  1.550534  0  0.204335  0.572916  0  4.224824  0
C  C295  1  0.83807144  0.40776373  0.96024624  1  1.555155  0  0.204277  0.572773  0  4.224831  0
C  C296  1  0.59223817  0.43030723  0.29357964  1  1.56901  0  0.204292  0.57302  0  4.224612  0
C  C297  1  0.43029924  0.83807673  0.12691629  1  1.550556  0  0.204379  0.573104  0  4.224706  0
C  C298  1  0.16192724  0.59223476  0.46024635  1  1.555142  0  0.204373  0.573034  0  4.224647  0
C  C299  1  0.40776260  0.56969428  0.79357892  1  1.568641  0  0.204303  0.572888  0  4.224855  0
N  N300  1  0.41094317  0.48495214  0.07090454  1  -0.777493  0  -0.280695  -0.262763  0  3.544319  0
N  N301  1  0.07400794  0.58906080  0.73757051  1  -0.765517  0  -0.280641  -0.262635  0  3.544048  0
N  N302  1  0.51505290  0.92599806  0.40423422  1  -0.780175  0  -0.280673  -0.262749  0  3.544306  0
N  N303  1  0.58905601  0.51504742  0.57090464  1  -0.777483  0  -0.280789  -0.262983  0  3.544486  0
N  N304  1  0.92599062  0.41093841  0.23757062  1  -0.765565  0  -0.280701  -0.262717  0  3.544169  0
N  N305  1  0.48494712  0.07400287  0.90423407  1  -0.78018  0  -0.280682  -0.262796  0  3.544268  0
N  N306  1  0.92598959  0.51505035  0.59576399  1  -0.780292  0  -0.280682  -0.262782  0  3.544271  0
N  N307  1  0.48495321  0.41093643  0.92909343  1  -0.777148  0  -0.280617  -0.262646  0  3.543959  0
N  N308  1  0.58906765  0.07401032  0.26242703  1  -0.766001  0  -0.280618  -0.262595  0  3.54402  0
N  N309  1  0.07401112  0.48495198  0.09576409  1  -0.780292  0  -0.280632  -0.262778  0  3.54428  0
N  N310  1  0.51504806  0.58906341  0.42909355  1  -0.777204  0  -0.280619  -0.262641  0  3.544108  0
N  N311  1  0.41093201  0.92599003  0.76242718  1  -0.765985  0  -0.280628  -0.262651  0  3.54408  0
N  N312  1  0.53936806  0.56681229  0.05410356  1  -0.848261  0  -0.279856  -0.141397  0  3.683483  0
N  N313  1  0.02744123  0.46063052  0.72077077  1  -0.862581  0  -0.279907  -0.141427  0  3.683594  0
N  N314  1  0.43319584  0.97256690  0.38743387  1  -0.877048  0  -0.279854  -0.141337  0  3.684078  0
N  N315  1  0.46063228  0.43318601  0.55410345  1  -0.848272  0  -0.279826  -0.141286  0  3.683589  0
N  N316  1  0.97255832  0.53936966  0.22077110  1  -0.862512  0  -0.279843  -0.141371  0  3.683516  0
N  N317  1  0.56680679  0.02743544  0.88743370  1  -0.877042  0  -0.279887  -0.141343  0  3.684107  0
N  N318  1  0.97256277  0.43319281  0.61256393  1  -0.876817  0  -0.279837  -0.141198  0  3.68389  0
N  N319  1  0.56681425  0.53936482  0.94589380  1  -0.848687  0  -0.279884  -0.141361  0  3.683505  0
N  N320  1  0.46063644  0.02744490  0.27922635  1  -0.862142  0  -0.279795  -0.141376  0  3.683567  0
N  N321  1  0.02743919  0.56680839  0.11256404  1  -0.876822  0  -0.279879  -0.141248  0  3.683854  0
N  N322  1  0.43318603  0.46063405  0.44589369  1  -0.848679  0  -0.279825  -0.141311  0  3.683466  0
N  N323  1  0.53936489  0.97255595  0.77922609  1  -0.862142  0  -0.279766  -0.141325  0  3.683561  0
O  O324  1  0.28957397  0.73993363  0.05517154  1  -1.185544  0  -0.340224  -0.56253  0  2.362753  0
O  O325  1  0.45036145  0.71043085  0.72183876  1  -1.18444  0  -0.340283  -0.562674  0  2.362761  0
O  O326  1  0.26006569  0.54964717  0.38849973  1  -1.184552  0  -0.340228  -0.562617  0  2.362795  0
O  O327  1  0.71042576  0.26006527  0.55517141  1  -1.185546  0  -0.340295  -0.562693  0  2.362822  0
O  O328  1  0.54963751  0.28956992  0.22183926  1  -1.184431  0  -0.340291  -0.562678  0  2.362759  0
O  O329  1  0.73993178  0.45034999  0.88849962  1  -1.184564  0  -0.340271  -0.562679  0  2.362828  0
O  O330  1  0.54964363  0.26005664  0.61149511  1  -1.184305  0  -0.34022  -0.562521  0  2.362883  0
O  O331  1  0.73993655  0.28957879  0.94482436  1  -1.185617  0  -0.340292  -0.562645  0  2.362757  0
O  O332  1  0.71042897  0.45036519  0.27815923  1  -1.18459  0  -0.340302  -0.562719  0  2.362781  0
O  O333  1  0.45035728  0.73994352  0.11149483  1  -1.184317  0  -0.340242  -0.562582  0  2.362822  0
O  O334  1  0.26006193  0.71042187  0.44482469  1  -1.185615  0  -0.340366  -0.56276  0  2.362716  0
O  O335  1  0.28956850  0.54963538  0.77815892  1  -1.184176  0  -0.340318  -0.562687  0  2.362834  0
O  O336  1  0.53025752  0.82780041  0.03431601  1  -1.188938  0  -0.326718  -0.561365  0  2.147121  0
O  O337  1  0.29753981  0.46974548  0.70098279  1  -1.196874  0  -0.326769  -0.561394  0  2.147003  0
O  O338  1  0.17219598  0.70246508  0.36764503  1  -1.185048  0  -0.326839  -0.561502  0  2.14674  0
O  O339  1  0.46974304  0.17220166  0.53431587  1  -1.188932  0  -0.32674  -0.561392  0  2.147031  0
O  O340  1  0.70245850  0.53025581  0.20098270  1  -1.196841  0  -0.326744  -0.561411  0  2.146986  0
O  O341  1  0.82780454  0.29753510  0.86764449  1  -1.184915  0  -0.326793  -0.561459  0  2.146711  0
O  O342  1  0.70246764  0.17220505  0.63235356  1  -1.184911  0  -0.326833  -0.561503  0  2.146922  0
O  O343  1  0.82778806  0.53025339  0.96568366  1  -1.188988  0  -0.326745  -0.561368  0  2.14707  0
O  O344  1  0.46974971  0.29753371  0.29901663  1  -1.196788  0  -0.326734  -0.561415  0  2.146918  0
O  O345  1  0.29753229  0.82779417  0.13235350  1  -1.184912  0  -0.326867  -0.561602  0  2.14693  0
O  O346  1  0.17221226  0.46974557  0.46568375  1  -1.189009  0  -0.326758  -0.561464  0  2.147001  0
O  O347  1  0.53025363  0.70246320  0.79901592  1  -1.196864  0  -0.326745  -0.56135  0  2.147027  0
O  O348  1  0.36725069  0.36725188  0.99999919  1  -1.097055  0  -0.149465  -0.211303  0  2.593432  0
O  O349  1  0.00000339  0.63274538  0.66666829  1  -1.104867  0  -0.149486  -0.211381  0  2.593431  0
O  O350  1  0.63273984  0.99999951  0.33332993  1  -1.105056  0  -0.149427  -0.211139  0  2.593312  0
O  O351  1  0.63274913  0.63274781  0.49999910  1  -1.096883  0  -0.149507  -0.211333  0  2.59341  0
O  O352  1  0.99999587  0.36725680  0.16666902  1  -1.105039  0  -0.149442  -0.211188  0  2.593284  0
O  O353  1  0.36726043  0.00000276  0.83332893  1  -1.105448  0  -0.149406  -0.211056  0  2.593159  0
