# generated using pymatgen
data_Hg3H42C50N6(Cl3O4)2
_symmetry_space_group_name_H-M   'P 1'
_cell_length_a   4.94905638
_cell_length_b   25.33157867
_cell_length_c   30.15346687
_cell_angle_alpha   106.61213353
_cell_angle_beta   89.99998134
_cell_angle_gamma   90.00000845
_symmetry_Int_Tables_number   1
_chemical_formula_structural   Hg3H42C50N6(Cl3O4)2
_chemical_formula_sum   'Hg6 H84 C100 N12 Cl12 O16'
_cell_volume   3622.48169312
_cell_formula_units_Z   2
loop_
 _symmetry_equiv_pos_site_id
 _symmetry_equiv_pos_as_xyz
  1  'x, y, z'
loop_
 _atom_site_type_symbol
 _atom_site_label
 _atom_site_symmetry_multiplicity
 _atom_site_fract_x
 _atom_site_fract_y
 _atom_site_fract_z
 _atom_site_occupancy
 _atom_site_pbe_bader_charge
 _atom_site_pbe_bader_spin_density
 _atom_site_pbe_cm5_charge
 _atom_site_pbe_ddec_charge
 _atom_site_pbe_ddec_spin_density
 _atom_site_pbe_ddec_sum_bond_order
 _atom_site_pbe_magmom
Hg  Hg0  1  0.60434909  0.74999989  0.74999987  1  0.803868  0  0.507362  0.558916  0  2.647727  0
Hg  Hg1  1  0.39565305  0.25000010  0.25000032  1  0.803868  0  0.507368  0.558941  0  2.647684  0
Hg  Hg2  1  0.17299247  0.76016462  0.39386907  1  0.811934  0  0.51292  0.553031  0  2.640227  0
Hg  Hg3  1  0.17299275  0.73983494  0.10613110  1  0.811909  0  0.512913  0.553027  0  2.640209  0
Hg  Hg4  1  0.82700562  0.23983537  0.60613112  1  0.811902  0  0.512924  0.553046  0  2.640234  0
Hg  Hg5  1  0.82700535  0.26016464  0.89386866  1  0.811901  0  0.512905  0.553002  0  2.640243  0
H  H6  1  0.46666445  0.93278552  0.62725888  1  0.094856  0  0.113766  0.136633  0  0.994238  0
H  H7  1  0.46666406  0.56721425  0.87274120  1  0.094864  0  0.113773  0.136646  0  0.99422  0
H  H8  1  0.53333567  0.06721406  0.37274087  1  0.094871  0  0.113743  0.136622  0  0.994217  0
H  H9  1  0.53333807  0.43278533  0.12725889  1  0.094863  0  0.113766  0.136654  0  0.994226  0
H  H10  1  0.23282140  0.01381055  0.76850633  1  0.084405  0  0.110975  0.136706  0  1.002624  0
H  H11  1  0.23281960  0.48619027  0.73149368  1  0.084413  0  0.110985  0.136744  0  1.002591  0
H  H12  1  0.76717871  0.98618985  0.23149329  1  0.084402  0  0.110984  0.13674  0  1.002537  0
H  H13  1  0.76717850  0.51381055  0.26850638  1  0.084411  0  0.110981  0.136733  0  1.002608  0
H  H14  1  0.83326933  0.05415602  0.65467184  1  0.104725  0  0.105952  0.123032  0  1.046025  0
H  H15  1  0.83326928  0.44584357  0.84532817  1  0.104731  0  0.105941  0.123023  0  1.046045  0
H  H16  1  0.16673483  0.94584438  0.34532778  1  0.104721  0  0.105948  0.123017  0  1.046045  0
H  H17  1  0.16673487  0.55415601  0.15467159  1  0.104612  0  0.105946  0.123031  0  1.046023  0
H  H18  1  0.26055055  0.98201461  0.50262045  1  0.099296  0  0.11063  0.090754  0  1.01069  0
H  H19  1  0.26054988  0.51798599  0.99737951  1  0.099314  0  0.110657  0.09075  0  1.010726  0
H  H20  1  0.73944956  0.01798579  0.49737951  1  0.099318  0  0.110638  0.090732  0  1.01075  0
H  H21  1  0.73944821  0.48201400  0.00262068  1  0.099318  0  0.110646  0.090757  0  1.010718  0
H  H22  1  0.03806368  0.92662160  0.49935128  1  0.107479  0  0.107918  0.086316  0  1.01589  0
H  H23  1  0.03806404  0.57337879  0.00064843  1  0.107473  0  0.107924  0.086281  0  1.015917  0
H  H24  1  0.96193644  0.07337881  0.50064834  1  0.107478  0  0.107909  0.08628  0  1.01592  0
H  H25  1  0.96193608  0.42662120  0.99935109  1  0.107466  0  0.107921  0.086313  0  1.015882  0
H  H26  1  0.45910751  0.85288568  0.53343695  1  0.076577  0  0.113846  0.130117  0  0.979047  0
H  H27  1  0.45910700  0.64711493  0.96656333  1  0.076568  0  0.113842  0.130124  0  0.979054  0
H  H28  1  0.54089260  0.14711473  0.46656301  1  0.076562  0  0.113853  0.130153  0  0.979041  0
H  H29  1  0.54089109  0.35288548  0.03343729  1  0.076479  0  0.113854  0.130151  0  0.979053  0
H  H30  1  0.80736180  0.78771408  0.48790156  1  0.108414  0  0.110497  0.091838  0  1.000674  0
H  H31  1  0.80736225  0.71228632  0.01209844  1  0.108407  0  0.110527  0.091857  0  1.000676  0
H  H32  1  0.19263831  0.21228633  0.51209839  1  0.108403  0  0.110524  0.091861  0  1.000679  0
H  H33  1  0.19263787  0.28771285  0.98790155  1  0.108387  0  0.110514  0.091841  0  1.000669  0
H  H34  1  0.85269178  0.87219762  0.38922155  1  0.108036  0  0.104336  0.079767  0  1.015804  0
H  H35  1  0.85268995  0.62780195  0.11077825  1  0.108046  0  0.104343  0.079776  0  1.015783  0
H  H36  1  0.14731035  0.12780196  0.61077820  1  0.108047  0  0.104344  0.079782  0  1.01578  0
H  H37  1  0.14730814  0.37219763  0.88922184  1  0.108044  0  0.10434  0.079772  0  1.015807  0
H  H38  1  0.49523575  0.93963130  0.42940333  1  0.102114  0  0.108969  0.130911  0  1.009398  0
H  H39  1  0.49523596  0.56036909  0.07059669  1  0.102123  0  0.108978  0.13092  0  1.009384  0
H  H40  1  0.50476437  0.06036869  0.57059620  1  0.102128  0  0.108985  0.130942  0  1.009383  0
H  H41  1  0.50476415  0.43963090  0.92940383  1  0.102134  0  0.108969  0.130888  0  1.00943  0
H  H42  1  0.45051173  0.93252064  0.77461863  1  0.061522  0  0.103889  0.076787  0  1.010899  0
H  H43  1  0.45051164  0.56747955  0.72538122  1  0.061496  0  0.103893  0.076823  0  1.010919  0
H  H44  1  0.54948839  0.06747935  0.22538123  1  0.061515  0  0.103911  0.07684  0  1.010921  0
H  H45  1  0.54948848  0.43252044  0.27461863  1  0.061498  0  0.103894  0.076833  0  1.010913  0
H  H46  1  0.69906216  0.98398930  0.77509347  1  0.088272  0  0.106514  0.081059  0  0.985529  0
H  H47  1  0.69906203  0.51601089  0.72490670  1  0.088065  0  0.106507  0.081057  0  0.985525  0
H  H48  1  0.30093594  0.01601110  0.22490649  1  0.088064  0  0.10651  0.081062  0  0.985506  0
H  H49  1  0.30093809  0.48398951  0.27509359  1  0.088093  0  0.106512  0.081079  0  0.98548  0
H  H50  1  0.90499439  0.87444063  0.68227171  1  0.124356  0  0.111902  0.12682  0  0.99624  0
H  H51  1  0.90499416  0.62555915  0.81772801  1  0.124357  0  0.111902  0.126822  0  0.996249  0
H  H52  1  0.09500774  0.12556018  0.31772834  1  0.124358  0  0.111896  0.126816  0  0.996258  0
H  H53  1  0.09500595  0.37444043  0.18227174  1  0.124367  0  0.11189  0.126799  0  0.996282  0
H  H54  1  0.26941058  0.80698262  0.68544167  1  0.103742  0  0.105834  0.08644  0  1.010182  0
H  H55  1  0.26941041  0.69301715  0.81455842  1  0.103743  0  0.105821  0.086435  0  1.010182  0
H  H56  1  0.73059358  0.19301861  0.31455849  1  0.103738  0  0.105838  0.086458  0  1.01013  0
H  H57  1  0.73059375  0.30698201  0.18544190  1  0.103749  0  0.105847  0.086482  0  1.01013  0
H  H58  1  0.21613565  0.84475353  0.82798712  1  0.125532  0  0.110542  0.090192  0  0.998124  0
H  H59  1  0.21613371  0.65524624  0.67201298  1  0.125544  0  0.110551  0.090202  0  0.998107  0
H  H60  1  0.78386447  0.15524646  0.17201274  1  0.125534  0  0.110551  0.090175  0  0.998105  0
H  H61  1  0.78386640  0.34475375  0.32798721  1  0.125536  0  0.110543  0.090189  0  0.998124  0
H  H62  1  0.85113753  0.91406148  0.83126196  1  0.089707  0  0.111783  0.128041  0  0.97347  0
H  H63  1  0.85113757  0.58593831  0.66873810  1  0.089699  0  0.111782  0.128041  0  0.973463  0
H  H64  1  0.14886057  0.08593810  0.16873779  1  0.089696  0  0.11178  0.128036  0  0.973473  0
H  H65  1  0.14886053  0.41406210  0.33126219  1  0.089692  0  0.111775  0.128032  0  0.973473  0
H  H66  1  0.54544674  0.08158824  0.70547937  1  0.07225  0  0.10476  0.080976  0  1.00755  0
H  H67  1  0.54544678  0.41841176  0.79452043  1  0.072089  0  0.104772  0.08097  0  1.007544  0
H  H68  1  0.45455135  0.91841216  0.29452059  1  0.072087  0  0.104771  0.080982  0  1.007532  0
H  H69  1  0.45455333  0.58158864  0.20547953  1  0.072245  0  0.104779  0.080979  0  1.007527  0
H  H70  1  0.79280097  0.13457453  0.71784693  1  0.108849  0  0.097159  0.084999  0  1.022053  0
H  H71  1  0.79280100  0.36542548  0.78215285  1  0.108856  0  0.097166  0.085009  0  1.02204  0
H  H72  1  0.20719510  0.86542588  0.28215336  1  0.108843  0  0.097155  0.084967  0  1.022058  0
H  H73  1  0.20719710  0.63457451  0.21784667  1  0.10884  0  0.097157  0.08499  0  1.022053  0
H  H74  1  0.63524759  0.10602419  0.82600431  1  0.098425  0  0.108899  0.122876  0  0.995745  0
H  H75  1  0.63524381  0.39397623  0.67399525  1  0.098465  0  0.108852  0.122768  0  0.995782  0
H  H76  1  0.36475253  0.89397622  0.17399532  1  0.098414  0  0.108853  0.122774  0  0.99581  0
H  H77  1  0.36475227  0.60602376  0.32600461  1  0.098409  0  0.108875  0.122817  0  0.995781  0
H  H78  1  0.30603126  0.16218135  0.88352723  1  0.117727  0  0.107736  0.087973  0  1.007469  0
H  H79  1  0.30602957  0.33781907  0.61647268  1  0.11774  0  0.107714  0.087937  0  1.007502  0
H  H80  1  0.69396684  0.83781864  0.11647296  1  0.117753  0  0.107736  0.087971  0  1.007479  0
H  H81  1  0.69396650  0.66218134  0.38352728  1  0.117744  0  0.107737  0.087963  0  1.007485  0
H  H82  1  0.00589942  0.23714751  0.78864474  1  0.101219  0  0.098967  0.074961  0  1.041777  0
H  H83  1  0.00589951  0.26285207  0.71135498  1  0.101075  0  0.098972  0.07496  0  1.041768  0
H  H84  1  0.99410070  0.76285248  0.21135512  1  0.101235  0  0.098969  0.074967  0  1.041777  0
H  H85  1  0.99410061  0.73714751  0.28864478  1  0.101083  0  0.098973  0.074971  0  1.041784  0
H  H86  1  0.32053722  0.18379679  0.72660256  1  0.0751  0  0.09925  0.118042  0  1.024217  0
H  H87  1  0.32053924  0.31620280  0.77339714  1  0.075118  0  0.099268  0.118064  0  1.024209  0
H  H88  1  0.67946088  0.81620279  0.27339753  1  0.075125  0  0.099266  0.118051  0  1.024149  0
H  H89  1  0.67945885  0.68379719  0.22660271  1  0.075112  0  0.099257  0.118046  0  1.024215  0
C  C90  1  0.14284717  0.99257877  0.63660032  1  -0.03983  0  -0.020069  0.001348  0  4.062837  0
C  C91  1  0.14284879  0.50742100  0.86339978  1  -0.039825  0  -0.020029  0.00142  0  4.062777  0
C  C92  1  0.85715294  0.00742163  0.36339964  1  -0.040036  0  -0.020049  0.001389  0  4.062758  0
C  C93  1  0.85715335  0.49257858  0.13660031  1  -0.040023  0  -0.02009  0.001303  0  4.062894  0
C  C94  1  0.33869660  0.96220576  0.65158674  1  -0.00437  0  -0.102332  -0.235895  0  3.961821  0
C  C95  1  0.33869423  0.53779402  0.84841334  1  -0.004381  0  -0.10236  -0.235929  0  3.961906  0
C  C96  1  0.66130351  0.03779341  0.34841325  1  -0.004188  0  -0.102305  -0.235906  0  3.961758  0
C  C97  1  0.66130387  0.46220598  0.15158684  1  -0.004185  0  -0.102348  -0.235918  0  3.961893  0
C  C98  1  0.37209687  0.96980962  0.69921634  1  0.541339  0  0.087008  0.278935  0  4.09004  0
C  C99  1  0.37209660  0.53019057  0.80078384  1  0.541344  0  0.087016  0.278912  0  4.090215  0
C  C100  1  0.62790527  0.03019037  0.30078318  1  0.541362  0  0.087002  0.278914  0  4.09007  0
C  C101  1  0.62790352  0.46980942  0.19921635  1  0.541329  0  0.087002  0.278906  0  4.090201  0
C  C102  1  0.21019086  0.00705428  0.73139340  1  -0.023401  0  -0.112736  -0.32091  0  3.943812  0
C  C103  1  0.21018898  0.49294571  0.76860707  1  -0.02339  0  -0.112751  -0.32097  0  3.943828  0
C  C104  1  0.78981330  0.99294571  0.26860679  1  -0.023415  0  -0.112725  -0.320928  0  3.943884  0
C  C105  1  0.78980911  0.50705386  0.23139302  1  -0.023325  0  -0.112756  -0.320999  0  3.94385  0
C  C106  1  0.01371707  0.03745352  0.71543397  1  0.468992  0  0.083668  0.280118  0  4.065641  0
C  C107  1  0.01371716  0.46254648  0.78456585  1  0.468978  0  0.083656  0.280132  0  4.065654  0
C  C108  1  0.98627901  0.96254606  0.28456579  1  0.468983  0  0.083665  0.280141  0  4.065739  0
C  C109  1  0.98628295  0.53745351  0.21543401  1  0.468942  0  0.083714  0.280228  0  4.065603  0
C  C110  1  0.98122074  0.03115005  0.66822840  1  -0.022884  0  -0.115025  -0.267587  0  3.984522  0
C  C111  1  0.98122074  0.46884955  0.83177160  1  -0.02289  0  -0.115044  -0.26764  0  3.984573  0
C  C112  1  0.01877937  0.96884953  0.33177202  1  -0.022883  0  -0.115055  -0.267634  0  3.984499  0
C  C113  1  0.01878139  0.53115003  0.16822782  1  -0.022785  0  -0.115018  -0.267604  0  3.984498  0
C  C114  1  0.09140509  0.98470661  0.58657427  1  1.480769  0  0.236317  0.511642  0  4.09962  0
C  C115  1  0.09140459  0.51529275  0.91342606  1  1.480787  0  0.236321  0.511653  0  4.099674  0
C  C116  1  0.90859502  0.01529338  0.41342592  1  1.480778  0  0.236354  0.511697  0  4.099685  0
C  C117  1  0.90859553  0.48470642  0.08657393  1  1.480775  0  0.236338  0.511687  0  4.09961  0
C  C118  1  0.24236322  0.94228622  0.51014360  1  0.382341  0  -0.058632  -0.018524  0  3.861106  0
C  C119  1  0.24236260  0.55771397  0.98985660  1  0.38233  0  -0.058645  -0.018367  0  3.861106  0
C  C120  1  0.75763689  0.05771377  0.48985626  1  0.382342  0  -0.058618  -0.018423  0  3.86111  0
C  C121  1  0.75763752  0.44228602  0.01014359  1  0.382351  0  -0.058639  -0.018476  0  3.861094  0
C  C122  1  0.45371665  0.90237478  0.48533639  1  -0.035723  0  0.00638  0.132093  0  3.948808  0
C  C123  1  0.45371701  0.59762561  0.01466363  1  -0.035665  0  0.006369  0.131994  0  3.948858  0
C  C124  1  0.54628144  0.09762562  0.51466323  1  -0.035728  0  0.006377  0.13208  0  3.948775  0
C  C125  1  0.54628109  0.40237397  0.98533646  1  -0.035646  0  0.006357  0.131998  0  3.948844  0
C  C126  1  0.54167884  0.85886764  0.50175737  1  0.038797  0  -0.085851  -0.177313  0  3.940832  0
C  C127  1  0.54167625  0.64113297  0.99824257  1  0.038738  0  -0.085833  -0.177301  0  3.940807  0
C  C128  1  0.45832127  0.14113236  0.49824215  1  0.038778  0  -0.085833  -0.17733  0  3.94088  0
C  C129  1  0.45832185  0.35886702  0.00175761  1  0.038796  0  -0.085856  -0.177332  0  3.940786  0
C  C130  1  0.73530162  0.82261071  0.47674443  1  0.473506  0  0.039977  0.085491  0  3.979663  0
C  C131  1  0.73530404  0.67738969  0.02325591  1  0.473517  0  0.039961  0.085531  0  3.97966  0
C  C132  1  0.26469849  0.17738970  0.52325553  1  0.473511  0  0.039955  0.085485  0  3.979641  0
C  C133  1  0.26469809  0.32261030  0.97674428  1  0.473508  0  0.039942  0.085483  0  3.979681  0
C  C134  1  0.75856068  0.86953512  0.42123076  1  0.464853  0  0.039891  0.096835  0  3.992005  0
C  C135  1  0.75855891  0.63046527  0.07876924  1  0.464867  0  0.039901  0.096869  0  3.991965  0
C  C136  1  0.24144146  0.13046487  0.57876909  1  0.464813  0  0.039875  0.096841  0  3.991912  0
C  C137  1  0.24143919  0.36953472  0.92123062  1  0.464826  0  0.039892  0.096827  0  3.991919  0
C  C138  1  0.56393973  0.90726265  0.44398574  1  -0.010745  0  -0.087787  -0.184429  0  3.932293  0
C  C139  1  0.56393798  0.59273734  0.05601385  1  -0.010747  0  -0.087777  -0.1844  0  3.932249  0
C  C140  1  0.43606039  0.09273735  0.55601379  1  -0.010746  0  -0.087837  -0.184538  0  3.932245  0
C  C141  1  0.43606214  0.40726224  0.94398591  1  -0.010767  0  -0.087778  -0.184373  0  3.932349  0
C  C142  1  0.63118255  0.94183757  0.75674120  1  0.412582  0  -0.055149  -0.015988  0  3.893479  0
C  C143  1  0.63118040  0.55816303  0.74325874  1  0.412813  0  -0.055135  -0.016044  0  3.893563  0
C  C144  1  0.36881958  0.05816283  0.24325909  1  0.412814  0  -0.055152  -0.016058  0  3.893511  0
C  C145  1  0.36881971  0.44183696  0.25674112  1  0.412788  0  -0.055154  -0.016105  0  3.893512  0
C  C146  1  0.85139017  0.90075730  0.75660415  1  -0.045196  0  0.002918  0.118217  0  3.967302  0
C  C147  1  0.85138805  0.59924289  0.74339601  1  -0.045444  0  0.002928  0.118238  0  3.967266  0
C  C148  1  0.14861196  0.09924351  0.24339623  1  -0.045431  0  0.002932  0.118294  0  3.967207  0
C  C149  1  0.14861004  0.40075710  0.25660418  1  -0.045438  0  0.002954  0.118284  0  3.967233  0
C  C150  1  0.97037046  0.86980412  0.71534928  1  0.028984  0  -0.088609  -0.173601  0  3.953693  0
C  C151  1  0.97037030  0.63019607  0.78465088  1  0.029195  0  -0.088644  -0.173658  0  3.953581  0
C  C152  1  0.02963168  0.13019669  0.28465078  1  0.029159  0  -0.088637  -0.173652  0  3.953636  0
C  C153  1  0.02962982  0.36980392  0.21534964  1  0.029231  0  -0.088672  -0.173663  0  3.953636  0
C  C154  1  0.17233144  0.83219780  0.71691399  1  0.50202  0  0.041292  0.097953  0  3.970059  0
C  C155  1  0.17233334  0.66780239  0.78308621  1  0.502045  0  0.041311  0.097968  0  3.969978  0
C  C156  1  0.82767069  0.16780302  0.28308640  1  0.50208  0  0.041264  0.097886  0  3.969824  0
C  C157  1  0.82766880  0.33219719  0.21691388  1  0.50201  0  0.041318  0.09794  0  3.969937  0
C  C158  1  0.14372996  0.85348874  0.79661670  1  0.497111  0  0.036977  0.082894  0  4.003562  0
C  C159  1  0.14372795  0.64651103  0.70338340  1  0.497105  0  0.036972  0.082897  0  4.003537  0
C  C160  1  0.85627218  0.14651125  0.20338349  1  0.497117  0  0.03703  0.083014  0  4.003459  0
C  C161  1  0.85627216  0.35348896  0.29661679  1  0.497099  0  0.036963  0.082887  0  4.003567  0
C  C162  1  0.94098094  0.89210627  0.79807299  1  -0.106365  0  -0.092895  -0.198992  0  3.971665  0
C  C163  1  0.94098093  0.60789351  0.70192707  1  -0.106356  0  -0.092881  -0.198977  0  3.971628  0
C  C164  1  0.05901917  0.10789372  0.20192687  1  -0.106359  0  -0.092867  -0.19901  0  3.971613  0
C  C165  1  0.05901918  0.39210648  0.29807312  1  -0.106363  0  -0.092887  -0.198991  0  3.971628  0
C  C166  1  0.67689198  0.10681444  0.73300786  1  0.380589  0  -0.06342  -0.033237  0  3.909956  0
C  C167  1  0.67689206  0.39318556  0.76699193  1  0.38075  0  -0.063437  -0.033236  0  3.909981  0
C  C168  1  0.32310813  0.89318555  0.26699200  1  0.380743  0  -0.063395  -0.033143  0  3.909934  0
C  C169  1  0.32310604  0.60681443  0.23300793  1  0.380572  0  -0.06341  -0.033189  0  3.910008  0
C  C170  1  0.50011887  0.13960121  0.77125095  1  -0.037517  0  0.009035  0.138061  0  3.945586  0
C  C171  1  0.50012101  0.36039920  0.72874895  1  -0.037736  0  0.009062  0.138095  0  3.945505  0
C  C172  1  0.49987721  0.86039919  0.22874967  1  -0.037757  0  0.009059  0.138046  0  3.945559  0
C  C173  1  0.49987708  0.63960079  0.27125091  1  -0.037729  0  0.009049  0.138024  0  3.945565  0
C  C174  1  0.49656865  0.13393545  0.81596782  1  -0.016437  0  -0.090932  -0.183331  0  3.950474  0
C  C175  1  0.49656280  0.36606537  0.68403251  1  -0.016357  0  -0.090938  -0.183297  0  3.950525  0
C  C176  1  0.50343349  0.86606536  0.18403257  1  -0.016204  0  -0.090923  -0.183274  0  3.95045  0
C  C177  1  0.50343327  0.63393462  0.31596768  1  -0.016324  0  -0.090948  -0.183317  0  3.950501  0
C  C178  1  0.31408333  0.16531468  0.84817691  1  0.474116  0  0.040803  0.085267  0  3.98154  0
C  C179  1  0.31407955  0.33468573  0.65182300  1  0.474206  0  0.040819  0.085334  0  3.981496  0
C  C180  1  0.68591678  0.83468531  0.15182295  1  0.474099  0  0.040779  0.085236  0  3.98147  0
C  C181  1  0.68591854  0.66531426  0.34817686  1  0.474197  0  0.040822  0.085303  0  3.981515  0
C  C182  1  0.14840131  0.20718757  0.79498253  1  0.467255  0  0.036892  0.090555  0  3.982902  0
C  C183  1  0.14840346  0.29281243  0.70501695  1  0.467248  0  0.036898  0.090584  0  3.982828  0
C  C184  1  0.85160082  0.79281366  0.20501762  1  0.467232  0  0.036876  0.090493  0  3.982946  0
C  C185  1  0.85159868  0.70718674  0.29498271  1  0.46726  0  0.036871  0.090488  0  3.98293  0
C  C186  1  0.32193543  0.17740982  0.76089559  1  0.039388  0  -0.08792  -0.174613  0  3.924912  0
C  C187  1  0.32193348  0.32259018  0.73910388  1  0.039506  0  -0.087902  -0.174604  0  3.924815  0
C  C188  1  0.67806469  0.82259018  0.23910327  1  0.03951  0  -0.08788  -0.174516  0  3.924865  0
C  C189  1  0.67806461  0.67740981  0.26089598  1  0.039409  0  -0.087894  -0.174542  0  3.924824  0
N  N190  1  0.84327983  0.82823563  0.43740150  1  -1.21963  0  -0.319265  -0.231272  0  3.535329  0
N  N191  1  0.84327812  0.67176435  0.06259840  1  -1.219656  0  -0.319306  -0.231362  0  3.535401  0
N  N192  1  0.15672029  0.17176477  0.56259845  1  -1.21957  0  -0.319252  -0.231247  0  3.535206  0
N  N193  1  0.15672200  0.32823481  0.93740192  1  -1.219582  0  -0.319263  -0.231261  0  3.535274  0
N  N194  1  0.25828718  0.82429238  0.75670946  1  -1.22611  0  -0.32046  -0.235005  0  3.516327  0
N  N195  1  0.25828714  0.67570781  0.74329073  1  -1.226103  0  -0.320445  -0.234989  0  3.51629  0
N  N196  1  0.74171293  0.17570803  0.24329050  1  -1.226104  0  -0.320488  -0.235037  0  3.516194  0
N  N197  1  0.74171298  0.32429218  0.25670946  1  -1.226105  0  -0.320437  -0.234971  0  3.516344  0
N  N198  1  0.14285880  0.20109614  0.83780027  1  -1.218451  0  -0.317605  -0.22302  0  3.526946  0
N  N199  1  0.14285699  0.29890344  0.66219977  1  -1.218488  0  -0.317626  -0.223084  0  3.526869  0
N  N200  1  0.85714334  0.79890426  0.16220002  1  -1.218455  0  -0.317623  -0.223008  0  3.526888  0
N  N201  1  0.85714312  0.70109572  0.33779988  1  -1.218469  0  -0.317611  -0.22299  0  3.526912  0
Cl  Cl202  1  0.68811448  0.76886535  0.83091244  1  -0.502161  0  -0.297223  -0.407622  0  1.141419  0
Cl  Cl203  1  0.68811260  0.73113443  0.66908730  1  -0.502168  0  -0.297209  -0.407615  0  1.141404  0
Cl  Cl204  1  0.31188160  0.23113506  0.16908785  1  -0.502156  0  -0.297211  -0.407613  0  1.141406  0
Cl  Cl205  1  0.31188751  0.26886597  0.33091299  1  -0.502183  0  -0.297218  -0.407628  0  1.141395  0
Cl  Cl206  1  0.31436495  0.81075689  0.34072771  1  -0.540647  0  -0.270439  -0.415159  0  1.266458  0
Cl  Cl207  1  0.31436306  0.68924227  0.15927202  1  -0.540631  0  -0.270445  -0.415173  0  1.266469  0
Cl  Cl208  1  0.68563517  0.18924269  0.65927238  1  -0.540631  0  -0.270451  -0.41518  0  1.266459  0
Cl  Cl209  1  0.68563705  0.31075731  0.84072773  1  -0.540626  0  -0.27045  -0.415173  0  1.266481  0
Cl  Cl210  1  0.24668927  0.70949617  0.44831528  1  -0.501085  0  -0.312154  -0.416555  0  1.090519  0
Cl  Cl211  1  0.24668970  0.79050421  0.05168475  1  -0.501091  0  -0.312144  -0.416538  0  1.090498  0
Cl  Cl212  1  0.75330882  0.29050423  0.55168500  1  -0.501091  0  -0.312146  -0.416544  0  1.090517  0
Cl  Cl213  1  0.75330840  0.20949537  0.94831468  1  -0.501083  0  -0.312123  -0.416513  0  1.090509  0
O  O214  1  0.90749364  0.00683078  0.57121946  1  -1.140927  0  -0.273641  -0.465567  0  2.18255  0
O  O215  1  0.90749347  0.49316923  0.92878065  1  -1.140957  0  -0.273669  -0.465597  0  2.182586  0
O  O216  1  0.09250647  0.99316880  0.42878030  1  -1.140932  0  -0.273692  -0.465616  0  2.182656  0
O  O217  1  0.09250664  0.50683076  0.07121921  1  -1.140939  0  -0.273652  -0.465587  0  2.182553  0
O  O218  1  0.27204560  0.95004842  0.55931735  1  -1.060206  0  -0.161424  -0.228725  0  2.540641  0
O  O219  1  0.27204507  0.54995135  0.94068274  1  -1.060191  0  -0.16145  -0.228818  0  2.540729  0
O  O220  1  0.72795451  0.04995157  0.44068251  1  -1.060213  0  -0.161426  -0.228755  0  2.540642  0
O  O221  1  0.72795504  0.45004781  0.05931725  1  -1.060208  0  -0.161431  -0.228749  0  2.540655  0
O  O222  1  0.57024371  0.93817578  0.70977048  1  -1.089597  0  -0.169759  -0.189121  0  2.612636  0
O  O223  1  0.57024349  0.56182441  0.79022970  1  -1.089594  0  -0.169728  -0.189032  0  2.612699  0
O  O224  1  0.42975641  0.06182421  0.29022971  1  -1.089608  0  -0.169777  -0.189119  0  2.612659  0
O  O225  1  0.42975461  0.43817558  0.20977049  1  -1.089605  0  -0.169737  -0.18904  0  2.612704  0
O  O226  1  0.85781533  0.07208515  0.74896666  1  -1.077799  0  -0.17857  -0.200681  0  2.547729  0
O  O227  1  0.85781547  0.42791485  0.75103311  1  -1.07781  0  -0.178579  -0.200693  0  2.547756  0
O  O228  1  0.14218276  0.92791484  0.25103319  1  -1.077801  0  -0.178587  -0.200711  0  2.547705  0
O  O229  1  0.14218263  0.57208514  0.24896641  1  -1.07778  0  -0.178618  -0.200737  0  2.547842  0
