# generated using pymatgen
data_Cu2H14C20N4Cl3
_symmetry_space_group_name_H-M   'P 1'
_cell_length_a   8.13003361
_cell_length_b   9.71965089
_cell_length_c   12.25934382
_cell_angle_alpha   78.77526171
_cell_angle_beta   85.89144556
_cell_angle_gamma   88.17613598
_symmetry_Int_Tables_number   1
_chemical_formula_structural   Cu2H14C20N4Cl3
_chemical_formula_sum   'Cu4 H28 C40 N8 Cl6'
_cell_volume   947.61546829
_cell_formula_units_Z   2
loop_
 _symmetry_equiv_pos_site_id
 _symmetry_equiv_pos_as_xyz
  1  'x, y, z'
loop_
 _atom_site_type_symbol
 _atom_site_label
 _atom_site_symmetry_multiplicity
 _atom_site_fract_x
 _atom_site_fract_y
 _atom_site_fract_z
 _atom_site_occupancy
 _atom_site_pbe_cm5_charge
 _atom_site_pbe_ddec_charge
 _atom_site_pbe_ddec_spin_density
 _atom_site_pbe_ddec_sum_bond_order
 _atom_site_pbe_magmom
Cu  Cu0  1  0.55943543  0.36527721  0.64092505  1  0.628719  0.591946  -0.622799  2.518692  -0.481
Cu  Cu1  1  0.44056750  0.63471880  0.35908111  1  0.628688  0.591922  -0.622825  2.518661  -0.481
Cu  Cu2  1  0.49055230  0.14877206  0.94950962  1  0.386291  0.414282  0.164804  2.549933  0.128
Cu  Cu3  1  0.50945298  0.85122714  0.05049105  1  0.386294  0.414307  0.164814  2.549903  0.128
H  H4  1  0.56716399  0.58771720  0.97499790  1  0.109065  0.07559  0.000129  1.0186  0.0
H  H5  1  0.43283752  0.41228412  0.02499938  1  0.109053  0.075556  0.000129  1.01863  0.0
H  H6  1  0.27876651  0.74102920  0.81769292  1  0.101053  0.123489  -0.000396  1.055634  -0.001
H  H7  1  0.72123381  0.25897209  0.18230851  1  0.101056  0.123508  -0.000396  1.05564  -0.001
H  H8  1  0.97770033  0.38369052  0.80566242  1  0.104122  0.125558  -0.000584  1.042011  -0.001
H  H9  1  0.02230255  0.61630760  0.19434180  1  0.104159  0.125611  -0.000584  1.041971  -0.001
H  H10  1  0.78957394  0.47078390  0.87952872  1  0.093708  0.11524  1e-05  1.055309  0.0
H  H11  1  0.21043005  0.52921844  0.12047155  1  0.093702  0.11523  1e-05  1.055363  0.0
H  H12  1  0.52002156  0.08312446  0.56749974  1  0.109034  0.080836  -0.001217  1.031395  -0.002
H  H13  1  0.47997629  0.91687477  0.43249805  1  0.109053  0.080851  -0.001217  1.031364  -0.002
H  H14  1  0.01867799  0.96321001  0.67596205  1  0.105419  0.098042  1.2e-05  1.024693  0.0
H  H15  1  0.98131859  0.03679234  0.32403779  1  0.105404  0.098005  1.2e-05  1.024647  0.0
H  H16  1  0.77801579  0.93291226  0.66887485  1  0.110412  0.108167  5e-06  0.995774  0.0
H  H17  1  0.22197200  0.06709334  0.33111599  1  0.1104  0.108154  5e-06  0.995764  0.0
H  H18  1  0.97914605  0.18719378  0.74477360  1  0.098356  0.124474  -0.000653  1.040281  -0.001
H  H19  1  0.02085932  0.81280327  0.25523147  1  0.098323  0.12442  -0.000653  1.040356  -0.001
H  H20  1  0.50915337  0.83953840  0.75281503  1  0.09505  0.120062  -0.000531  1.062657  -0.001
H  H21  1  0.49083699  0.16046402  0.24717941  1  0.095065  0.120109  -0.000531  1.062558  -0.001
H  H22  1  0.29027508  0.90765324  0.58345178  1  0.091328  0.105721  -0.000762  1.061192  -0.001
H  H23  1  0.70972026  0.09234810  0.41654501  1  0.09135  0.105771  -0.000762  1.061125  -0.001
H  H24  1  0.10604352  0.81154500  0.91372125  1  0.094199  0.114428  2.6e-05  1.063004  0.0
H  H25  1  0.89395557  0.18845526  0.08627877  1  0.094196  0.11442  2.7e-05  1.062986  0.0
H  H26  1  0.87633695  0.53925852  0.55814327  1  0.109296  0.08767  -0.00114  1.012798  -0.002
H  H27  1  0.12366461  0.46074380  0.44186039  1  0.109274  0.08768  -0.00114  1.012743  -0.002
H  H28  1  0.97277427  0.77647531  0.57059386  1  0.096353  0.116886  -0.001436  1.036961  -0.001
H  H29  1  0.02721975  0.22353022  0.42940319  1  0.09636  0.116909  -0.001436  1.036855  -0.001
H  H30  1  0.86599444  0.91108573  0.00816651  1  0.108038  0.093147  0.000155  1.014756  0.0
H  H31  1  0.13400581  0.08891768  0.99183216  1  0.108039  0.093148  0.000155  1.014808  0.0
C  C32  1  0.54736524  0.64307774  0.69523821  1  0.118197  0.163809  -0.001885  3.972658  -0.002
C  C33  1  0.45263387  0.35692250  0.30476426  1  0.118209  0.163876  -0.001885  3.972633  -0.002
C  C34  1  0.68950831  0.63307401  0.95967362  1  0.03262  0.081212  -0.000665  3.961934  -0.001
C  C35  1  0.31049201  0.36692521  0.04032485  1  0.032592  0.081153  -0.000666  3.961985  -0.001
C  C36  1  0.38677131  0.58005277  0.73605803  1  0.123993  0.190171  -0.000727  4.009983  0.0
C  C37  1  0.61323033  0.41994431  0.26394477  1  0.123919  0.189973  -0.000727  4.010097  0.0
C  C38  1  0.25976881  0.64027489  0.79458885  1  -0.072673  -0.184341  -0.003395  3.842209  -0.003
C  C39  1  0.74023156  0.35972327  0.20541142  1  -0.072683  -0.18432  -0.003395  3.842208  -0.003
C  C40  1  0.97181264  0.63144538  0.88397820  1  0.003513  0.086658  -0.001616  3.969716  -0.002
C  C41  1  0.02818521  0.36855488  0.11602107  1  0.00355  0.086751  -0.001617  3.969703  -0.002
C  C42  1  0.10906903  0.57007119  0.82245895  1  0.013754  0.114323  0.001791  3.95104  0.002
C  C43  1  0.89093001  0.42993117  0.17754076  1  0.013797  0.114341  0.001792  3.951073  0.002
C  C44  1  0.22620096  0.38541553  0.73246895  1  0.125136  0.186784  -0.00066  3.996812  0.0
C  C45  1  0.77380317  0.61458153  0.26753536  1  0.125163  0.187018  -0.000659  3.996519  0.0
C  C46  1  0.09250854  0.44119689  0.78841391  1  -0.071161  -0.179712  -0.00298  3.842028  -0.003
C  C47  1  0.90749189  0.55879915  0.21158912  1  -0.071254  -0.179901  -0.00298  3.842087  -0.003
C  C48  1  0.81631107  0.56867082  0.90532193  1  -0.08583  -0.162795  0.001256  3.933582  0.001
C  C49  1  0.18369171  0.43132944  0.09467790  1  -0.085824  -0.162785  0.001256  3.933507  0.001
C  C50  1  0.39787571  0.10042074  0.60576427  1  0.050042  0.106938  0.000955  3.941424  0.002
C  C51  1  0.60212346  0.89957533  0.39423556  1  0.050053  0.106979  0.000955  3.941486  0.002
C  C52  1  0.11969369  0.03615256  0.66607898  1  -0.065349  -0.012265  0.002096  3.938119  0.002
C  C53  1  0.88030054  0.96384454  0.33392258  1  -0.065335  -0.012281  0.002096  3.938143  0.002
C  C54  1  0.74480718  0.82728432  0.66191792  1  -0.066965  -0.027889  0.001948  3.954766  0.002
C  C55  1  0.25518682  0.17272123  0.33807669  1  -0.066938  -0.027798  0.001948  3.954727  0.002
C  C56  1  0.09782740  0.16091684  0.70563401  1  -0.07393  -0.132243  -0.002023  3.894678  -0.002
C  C57  1  0.90217544  0.83908131  0.29436694  1  -0.073935  -0.132182  -0.002023  3.894711  -0.002
C  C58  1  0.23065592  0.25124909  0.69334628  1  0.120022  0.166807  -0.001899  3.962115  -0.002
C  C59  1  0.76934822  0.74874693  0.30665737  1  0.120061  0.166734  -0.0019  3.96225  -0.002
C  C60  1  0.59177775  0.77639861  0.70743686  1  -0.07816  -0.142373  -0.001879  3.91256  -0.002
C  C61  1  0.40821265  0.22360274  0.29255937  1  -0.07814  -0.142394  -0.001879  3.912449  -0.002
C  C62  1  0.27115903  0.00463256  0.61539857  1  -0.084075  -0.123061  -0.003537  3.954516  -0.004
C  C63  1  0.72884129  0.99536563  0.38459762  1  -0.084114  -0.123084  -0.003537  3.954619  -0.004
C  C64  1  0.98946241  0.75647343  0.92350656  1  -0.083014  -0.160384  0.000879  3.914495  0.001
C  C65  1  0.01053789  0.24352787  0.07649406  1  -0.083019  -0.160394  0.00088  3.914543  0.001
C  C66  1  0.79924188  0.61004432  0.59984039  1  0.050519  0.107009  0.000855  3.922451  0.002
C  C67  1  0.20075841  0.38995803  0.40016007  1  0.050545  0.107029  0.000855  3.922504  0.002
C  C68  1  0.85118734  0.74291613  0.60778636  1  -0.083605  -0.123058  -0.00433  3.949018  -0.005
C  C69  1  0.14881036  0.25708941  0.39220887  1  -0.08357  -0.123107  -0.00433  3.948968  -0.005
C  C70  1  0.85614844  0.81369331  0.97758965  1  0.038987  0.092648  -0.000874  3.919668  -0.001
C  C71  1  0.14385306  0.18630905  0.02240830  1  0.038953  0.092612  -0.000875  3.9196  -0.001
N  N72  1  0.36855684  0.45447528  0.70904416  1  -0.353973  -0.287667  -0.059016  3.677822  -0.076
N  N73  1  0.63144731  0.54551970  0.29095883  1  -0.353929  -0.287612  -0.059022  3.677577  -0.076
N  N74  1  0.70582914  0.75465623  0.99530842  1  -0.365566  -0.218142  0.006537  3.683102  0.008
N  N75  1  0.29417360  0.24534510  0.00468799  1  -0.365508  -0.218071  0.006536  3.683014  0.008
N  N76  1  0.65087677  0.56172311  0.64166656  1  -0.331308  -0.252839  -0.051042  3.577201  -0.066
N  N77  1  0.34912485  0.43827606  0.35833757  1  -0.331377  -0.252909  -0.051043  3.577313  -0.066
N  N78  1  0.37818720  0.22050500  0.64305030  1  -0.332672  -0.249228  -0.052658  3.582158  -0.068
N  N79  1  0.62181447  0.77949103  0.35695266  1  -0.332662  -0.249272  -0.052658  3.582413  -0.068
Cl  Cl80  1  0.36829993  0.95469386  0.89433062  1  -0.298341  -0.489409  0.018469  1.646504  0.022
Cl  Cl81  1  0.63170528  0.04530849  0.10566877  1  -0.29834  -0.489405  0.018469  1.646483  0.022
Cl  Cl82  1  0.68774356  0.24858764  0.82142256  1  -0.332952  -0.523529  0.004432  1.503799  0.004
Cl  Cl83  1  0.31226300  0.75141049  0.17857983  1  -0.332948  -0.523516  0.004433  1.503743  0.004
Cl  Cl84  1  0.74966627  0.29182730  0.52126549  1  -0.337677  -0.523023  -0.052984  1.237333  -0.063
Cl  Cl85  1  0.25033412  0.70817083  0.47873723  1  -0.337655  -0.522976  -0.052987  1.237315  -0.063
