# generated using pymatgen
data_AgH4C9NO5
_symmetry_space_group_name_H-M   'P 1'
_cell_length_a   6.71559413
_cell_length_b   8.92189959
_cell_length_c   14.42241987
_cell_angle_alpha   102.02107352
_cell_angle_beta   89.99987658
_cell_angle_gamma   90.00004965
_symmetry_Int_Tables_number   1
_chemical_formula_structural   AgH4C9NO5
_chemical_formula_sum   'Ag4 H16 C36 N4 O20'
_cell_volume   845.18215223
_cell_formula_units_Z   4
loop_
 _symmetry_equiv_pos_site_id
 _symmetry_equiv_pos_as_xyz
  1  'x, y, z'
loop_
 _atom_site_type_symbol
 _atom_site_label
 _atom_site_symmetry_multiplicity
 _atom_site_fract_x
 _atom_site_fract_y
 _atom_site_fract_z
 _atom_site_occupancy
 _atom_site_pbe_bader_spin_density
 _atom_site_pbe_cm5_charge
 _atom_site_pbe_ddec_charge
 _atom_site_pbe_ddec_spin_density
 _atom_site_pbe_ddec_sum_bond_order
 _atom_site_pbe_magmom
Ag  Ag0  1  0.97324369  0.81995652  0.88857495  1  0  0.506357  0.59548  0  1.737033  0
Ag  Ag1  1  0.47324352  0.18004366  0.61142702  1  0  0.506379  0.595484  0  1.73698  0
Ag  Ag2  1  0.02675698  0.18004210  0.11142614  1  0  0.506356  0.595476  0  1.737034  0
Ag  Ag3  1  0.52675418  0.81995724  0.38857437  1  0  0.506366  0.595457  0  1.737011  0
H  H4  1  0.28566287  0.42591474  0.37873420  1  0  0.113398  0.141729  0  0.983933  0
H  H5  1  0.78566397  0.57408582  0.12126620  1  0  0.113404  0.141727  0  0.983953  0
H  H6  1  0.71433780  0.57408616  0.62126511  1  0  0.113413  0.14175  0  0.983916  0
H  H7  1  0.21433670  0.42591394  0.87873435  1  0  0.113412  0.141739  0  0.983927  0
H  H8  1  0.18766985  0.16301249  0.40075934  1  0  0.098976  0.101328  0  1.055146  0
H  H9  1  0.68767136  0.83698804  0.09924115  1  0  0.098967  0.101313  0  1.055155  0
H  H10  1  0.81233082  0.83698955  0.59924080  1  0  0.098964  0.101307  0  1.055157  0
H  H11  1  0.31232931  0.16301172  0.90075940  1  0  0.098976  0.101344  0  1.055142  0
H  H12  1  0.08388415  0.12641854  0.56131175  1  0  0.108494  0.129938  0  0.99596  0
H  H13  1  0.58388268  0.87358037  0.93868768  1  0  0.108502  0.129984  0  0.995943  0
H  H14  1  0.91611652  0.87358236  0.43868616  1  0  0.108508  0.129953  0  0.995951  0
H  H15  1  0.41611799  0.12641824  0.06131203  1  0  0.108515  0.129945  0  0.995959  0
H  H16  1  0.09114021  0.34767370  0.69937752  1  0  0.109092  0.119537  0  1.002408  0
H  H17  1  0.59114358  0.65232635  0.80062205  1  0  0.109076  0.11947  0  1.0024  0
H  H18  1  0.90885897  0.65232605  0.30062163  1  0  0.109093  0.119535  0  1.002479  0
H  H19  1  0.40885858  0.34767340  0.19937642  1  0  0.109062  0.119458  0  1.002462  0
C  C20  1  0.26267561  0.78359110  0.67451933  1  0  0.03704  -0.272349  0  3.87168  0
C  C21  1  0.76267686  0.21640786  0.82548201  1  0  0.037028  -0.272439  0  3.871766  0
C  C22  1  0.73732506  0.21640751  0.32548038  1  0  0.037048  -0.272381  0  3.87161  0
C  C23  1  0.23732381  0.78359190  0.17451922  1  0  0.037038  -0.272432  0  3.871757  0
C  C24  1  0.31833136  0.79550096  0.58045675  1  0  0.218276  0.511398  0  4.139518  0
C  C25  1  0.81832920  0.20450260  0.91954303  1  0  0.218324  0.511502  0  4.139182  0
C  C26  1  0.68166633  0.20449994  0.41954255  1  0  0.218308  0.511395  0  4.139372  0
C  C27  1  0.18167296  0.79549716  0.08045890  1  0  0.2183  0.511465  0  4.139232  0
C  C28  1  0.25104317  0.52535171  0.52683453  1  0  0.094566  0.249243  0  4.008306  0
C  C29  1  0.75104703  0.47464840  0.97316558  1  0  0.094566  0.249282  0  4.008227  0
C  C30  1  0.74895453  0.47464805  0.47316393  1  0  0.094564  0.249252  0  4.00826  0
C  C31  1  0.24895513  0.52535136  0.02683566  1  0  0.094567  0.249193  0  4.008326  0
C  C32  1  0.24644204  0.40388224  0.44806220  1  0  -0.099079  -0.187882  0  3.950239  0
C  C33  1  0.74644498  0.59611831  0.05193893  1  0  -0.099064  -0.187884  0  3.950209  0
C  C34  1  0.75355863  0.59611980  0.55193656  1  0  -0.099055  -0.18784  0  3.950247  0
C  C35  1  0.25355718  0.40388145  0.94806300  1  0  -0.099066  -0.187817  0  3.9502  0
C  C36  1  0.19081766  0.25972427  0.46097489  1  0  -0.088287  -0.048925  0  3.970284  0
C  C37  1  0.69081636  0.74027627  0.03902559  1  0  -0.088237  -0.048833  0  3.970219  0
C  C38  1  0.80918301  0.74027663  0.53902371  1  0  -0.088317  -0.048964  0  3.970535  0
C  C39  1  0.30918431  0.25972463  0.96097510  1  0  -0.088296  -0.048996  0  3.970412  0
C  C40  1  0.13950553  0.23715799  0.55219018  1  0  -0.116991  -0.131902  0  4.035174  0
C  C41  1  0.63950686  0.76284322  0.94780949  1  0  -0.117023  -0.132052  0  4.035222  0
C  C42  1  0.86049514  0.76284291  0.44780912  1  0  -0.116987  -0.131873  0  4.035185  0
C  C43  1  0.36049530  0.23715538  0.05218952  1  0  -0.117012  -0.131909  0  4.035077  0
C  C44  1  0.14113745  0.36110942  0.62976097  1  0  -0.082479  -0.072139  0  3.947605  0
C  C45  1  0.64113750  0.63888835  0.87023896  1  0  -0.082512  -0.072063  0  3.947591  0
C  C46  1  0.85886174  0.63888804  0.37023720  1  0  -0.082482  -0.072135  0  3.947629  0
C  C47  1  0.35886168  0.36111026  0.12976144  1  0  -0.082466  -0.072048  0  3.947456  0
C  C48  1  0.19779375  0.50795274  0.61766403  1  0  -0.03066  -0.120859  0  4.016051  0
C  C49  1  0.69779805  0.49204964  0.88233642  1  0  -0.030632  -0.120887  0  4.01602  0
C  C50  1  0.80220394  0.49204701  0.38233374  1  0  -0.030656  -0.120933  0  4.016107  0
C  C51  1  0.30220262  0.50795127  0.11766496  1  0  -0.030649  -0.120853  0  4.015987  0
C  C52  1  0.19200563  0.64168745  0.69690421  1  0  0.129545  0.354367  0  4.104016  0
C  C53  1  0.69201013  0.35831264  0.80309734  1  0  0.129548  0.354423  0  4.103848  0
C  C54  1  0.80799206  0.35831116  0.30309480  1  0  0.129531  0.354434  0  4.103794  0
C  C55  1  0.30799054  0.64168712  0.19690390  1  0  0.129567  0.354461  0  4.103787  0
N  N56  1  0.27175141  0.91861933  0.74654101  1  0  0.02533  0.547546  0  4.191683  0
N  N57  1  0.77175135  0.08138079  0.75346046  1  0  0.025312  0.547559  0  4.191707  0
N  N58  1  0.72824777  0.08137928  0.25345869  1  0  0.025299  0.547563  0  4.191624  0
N  N59  1  0.22824932  0.91861897  0.24654077  1  0  0.025345  0.547601  0  4.191619  0
O  O60  1  0.29188792  0.90355135  0.83113314  1  0  -0.153627  -0.365509  0  2.082166  0
O  O61  1  0.79188826  0.09644992  0.66886846  1  0  -0.153588  -0.365476  0  2.082177  0
O  O62  1  0.70811126  0.09644840  0.16886671  1  0  -0.153627  -0.365535  0  2.08212  0
O  O63  1  0.20811092  0.90355099  0.33113292  1  0  -0.153611  -0.365506  0  2.082155  0
O  O64  1  0.25531160  0.04911427  0.72689569  1  0  -0.163995  -0.391107  0  2.027293  0
O  O65  1  0.75531246  0.95088470  0.77310565  1  0  -0.163996  -0.391105  0  2.027272  0
O  O66  1  0.74468758  0.95088549  0.27310485  1  0  -0.163976  -0.391085  0  2.027307  0
O  O67  1  0.24468821  0.04911506  0.22689489  1  0  -0.164003  -0.391112  0  2.027239  0
O  O68  1  0.38179274  0.90841762  0.55188345  1  0  -0.287365  -0.485749  0  2.431342  0
O  O69  1  0.88179330  0.09157795  0.94811872  1  0  -0.287421  -0.485843  0  2.430973  0
O  O70  1  0.61820495  0.09158099  0.44811626  1  0  -0.287366  -0.485731  0  2.431237  0
O  O71  1  0.11820588  0.90842296  0.05188266  1  0  -0.287391  -0.4858  0  2.430995  0
O  O72  1  0.30788114  0.66488909  0.51003002  1  0  -0.12677  -0.225516  0  2.652383  0
O  O73  1  0.80788179  0.33511104  0.98997142  1  0  -0.126779  -0.225526  0  2.652475  0
O  O74  1  0.69211506  0.33511181  0.48996998  1  0  -0.126774  -0.225526  0  2.652414  0
O  O75  1  0.19211888  0.66488757  0.01002898  1  0  -0.12679  -0.225546  0  2.652451  0
O  O76  1  0.12169446  0.62612585  0.77533104  1  0  -0.291834  -0.448632  0  2.309379  0
O  O77  1  0.62169636  0.37387535  0.72466934  1  0  -0.291843  -0.448624  0  2.309173  0
O  O78  1  0.87830621  0.37387390  0.22466811  1  0  -0.29184  -0.448652  0  2.309257  0
O  O79  1  0.37830431  0.62612440  0.27533120  1  0  -0.291867  -0.448664  0  2.3092  0
