# generated using pymatgen
data_AgPH4(CO)3
_symmetry_space_group_name_H-M   'P 1'
_cell_length_a   8.30792582
_cell_length_b   9.26716508
_cell_length_c   10.84667391
_cell_angle_alpha   87.54408563
_cell_angle_beta   90.84354544
_cell_angle_gamma   62.93535392
_symmetry_Int_Tables_number   1
_chemical_formula_structural   AgPH4(CO)3
_chemical_formula_sum   'Ag6 P6 H24 C18 O18'
_cell_volume   742.41441380
_cell_formula_units_Z   6
loop_
 _symmetry_equiv_pos_site_id
 _symmetry_equiv_pos_as_xyz
  1  'x, y, z'
loop_
 _atom_site_type_symbol
 _atom_site_label
 _atom_site_symmetry_multiplicity
 _atom_site_fract_x
 _atom_site_fract_y
 _atom_site_fract_z
 _atom_site_occupancy
 _atom_site_pbe_bader_spin_density
 _atom_site_pbe_cm5_charge
 _atom_site_pbe_ddec_charge
 _atom_site_pbe_ddec_spin_density
 _atom_site_pbe_ddec_sum_bond_order
 _atom_site_pbe_magmom
Ag  Ag0  1  0.57045930  0.60716659  0.04681699  1  0  0.463675  0.596061  0  1.683725  0
Ag  Ag1  1  0.42953384  0.39282995  0.95318165  1  0  0.463674  0.596055  0  1.683699  0
Ag  Ag2  1  0.83268981  0.82838493  0.03007367  1  0  0.450517  0.590554  0  1.745868  0
Ag  Ag3  1  0.16730819  0.17161640  0.96992661  1  0  0.450512  0.590565  0  1.745887  0
Ag  Ag4  1  0.84718347  0.15370665  0.87585316  1  0  0.447972  0.55933  0  1.79405  0
Ag  Ag5  1  0.15281453  0.84629227  0.12414722  1  0  0.447981  0.559351  0  1.794074  0
P  P6  1  0.84500391  0.22644968  0.19895818  1  0  0.351346  1.331248  0  5.226127  0
P  P7  1  0.15499951  0.77355038  0.80104032  1  0  0.351376  1.331287  0  5.226085  0
P  P8  1  0.81632262  0.52584339  0.82268963  1  0  0.338953  1.323371  0  5.229519  0
P  P9  1  0.18367540  0.47415795  0.17731156  1  0  0.338937  1.323361  0  5.229418  0
P  P10  1  0.48240522  0.08483284  0.76469135  1  0  0.346332  1.317882  0  5.25675  0
P  P11  1  0.51759277  0.91516607  0.23530811  1  0  0.346346  1.317931  0  5.256724  0
H  H12  1  0.65603363  0.11884707  0.17961627  1  0  0.302829  0.395442  0  0.951106  0
H  H13  1  0.34396679  0.88115425  0.82038401  1  0  0.302877  0.395519  0  0.951003  0
H  H14  1  0.09153875  0.50449914  0.81712363  1  0  0.302711  0.401053  0  0.947637  0
H  H15  1  0.90846165  0.49550216  0.18287480  1  0  0.30271  0.401054  0  0.947644  0
H  H16  1  0.69063319  0.83075758  0.77716550  1  0  0.304917  0.393791  0  0.955428  0
H  H17  1  0.30936722  0.16924130  0.22283397  1  0  0.304914  0.393806  0  0.955411  0
H  H18  1  0.94515327  0.36133515  0.48292983  1  0  0.094899  0.102846  0  1.015829  0
H  H19  1  0.05484593  0.63866858  0.51706941  1  0  0.094911  0.102833  0  1.015841  0
H  H20  1  0.49123693  0.45463562  0.70989797  1  0  0.097348  0.114426  0  1.043396  0
H  H21  1  0.50876716  0.54536085  0.29010623  1  0  0.097314  0.114377  0  1.043378  0
H  H22  1  0.65088741  0.08404996  0.44697597  1  0  0.09976  0.111111  0  1.0153  0
H  H23  1  0.34911360  0.91595254  0.55302242  1  0  0.099765  0.111145  0  1.015284  0
H  H24  1  0.93929525  0.00281743  0.34517501  1  0  0.105657  0.145521  0  1.011415  0
H  H25  1  0.06070274  0.99718631  0.65482423  1  0  0.105647  0.14549  0  1.011399  0
H  H26  1  0.06653009  0.11104751  0.36190583  1  0  0.108088  0.159341  0  1.006972  0
H  H27  1  0.93347092  0.88895257  0.63809358  1  0  0.10809  0.159339  0  1.007033  0
H  H28  1  0.60523661  0.66364804  0.65995593  1  0  0.112465  0.158424  0  1.016581  0
H  H29  1  0.39476079  0.33635209  0.34004440  1  0  0.112456  0.158396  0  1.016614  0
H  H30  1  0.82944322  0.59384956  0.61039518  1  0  0.106964  0.146415  0  0.990547  0
H  H31  1  0.17055660  0.40615055  0.38960608  1  0  0.106944  0.146377  0  0.990585  0
H  H32  1  0.36612071  0.16684495  0.55771319  1  0  0.109711  0.152839  0  0.989499  0
H  H33  1  0.63387970  0.83315393  0.44228628  1  0  0.109716  0.152841  0  0.989501  0
H  H34  1  0.29103625  0.33405446  0.65487622  1  0  0.111979  0.164453  0  0.987501  0
H  H35  1  0.70896236  0.66594566  0.34512411  1  0  0.11198  0.16445  0  0.987519  0
C  C36  1  0.81164514  0.21206856  0.45462547  1  0  -0.009215  0.185063  0  4.005953  0
C  C37  1  0.18835467  0.78793154  0.54537395  1  0  -0.009221  0.185073  0  4.005961  0
C  C38  1  0.83754963  0.33254685  0.51271575  1  0  -0.099542  -0.21291  0  3.918005  0
C  C39  1  0.16245381  0.66745322  0.48728367  1  0  -0.099522  -0.212856  0  3.918069  0
C  C40  1  0.72372291  0.41971418  0.60509320  1  0  -0.010608  0.174508  0  4.031171  0
C  C41  1  0.27627754  0.58028474  0.39490995  1  0  -0.010649  0.174459  0  4.031183  0
C  C42  1  0.58440127  0.38345524  0.64086263  1  0  -0.100552  -0.218599  0  3.930459  0
C  C43  1  0.41560401  0.61654121  0.35913973  1  0  -0.10053  -0.2185  0  3.930348  0
C  C44  1  0.55773485  0.26217879  0.58558348  1  0  -0.007743  0.176458  0  4.011035  0
C  C45  1  0.44226858  0.73781886  0.41441606  1  0  -0.007734  0.176397  0  4.011032  0
C  C46  1  0.67190035  0.17741737  0.49223157  1  0  -0.096755  -0.206715  0  3.897319  0
C  C47  1  0.32809886  0.82258395  0.50776870  1  0  -0.096775  -0.206799  0  3.897311  0
C  C48  1  0.92809615  0.12541278  0.35087195  1  0  -0.167399  -0.514762  0  3.936746  0
C  C49  1  0.07190245  0.87458733  0.64912746  1  0  -0.16738  -0.514711  0  3.936745  0
C  C50  1  0.73936863  0.55775012  0.66181521  1  0  -0.165082  -0.495644  0  3.916077  0
C  C51  1  0.26063364  0.44224757  0.33818801  1  0  -0.16507  -0.49559  0  3.916126  0
C  C52  1  0.40954775  0.22395032  0.62898146  1  0  -0.161548  -0.497507  0  3.908377  0
C  C53  1  0.59045388  0.77604856  0.37101893  1  0  -0.161531  -0.497475  0  3.908407  0
O  O54  1  0.80745680  0.40347246  0.19682840  1  0  -0.365862  -0.729598  0  2.283425  0
O  O55  1  0.19254840  0.59652634  0.80316648  1  0  -0.365886  -0.729637  0  2.283391  0
O  O56  1  0.65398482  0.23170624  0.17181688  1  0  -0.380657  -0.673189  0  2.311085  0
O  O57  1  0.34601618  0.76829384  0.82818161  1  0  -0.380698  -0.673266  0  2.311022  0
O  O58  1  0.98454656  0.11903025  0.10822848  1  0  -0.389358  -0.766906  0  2.555606  0
O  O59  1  0.01545567  0.88096742  0.89177105  1  0  -0.389389  -0.766938  0  2.555611  0
O  O60  1  0.03049486  0.42754611  0.82601244  1  0  -0.391065  -0.695801  0  2.371774  0
O  O61  1  0.96950438  0.57245524  0.17399061  1  0  -0.391039  -0.695784  0  2.37178  0
O  O62  1  0.75796470  0.69421545  0.87180537  1  0  -0.376016  -0.74986  0  2.370874  0
O  O63  1  0.24203572  0.30578585  0.12819399  1  0  -0.376005  -0.749861  0  2.370833  0
O  O64  1  0.74336829  0.42377161  0.89540453  1  0  -0.377409  -0.757456  0  2.494305  0
O  O65  1  0.25663215  0.57622972  0.10459759  1  0  -0.377421  -0.757482  0  2.494194  0
O  O66  1  0.63882896  0.92770020  0.71201294  1  0  -0.389899  -0.663339  0  2.244627  0
O  O67  1  0.36116842  0.07229750  0.28798565  1  0  -0.38987  -0.663349  0  2.244661  0
O  O68  1  0.55592803  0.14856477  0.86812677  1  0  -0.38951  -0.77632  0  2.459701  0
O  O69  1  0.44407239  0.85143411  0.13187270  1  0  -0.389514  -0.776326  0  2.459699  0
O  O70  1  0.32629062  0.04904816  0.80448830  1  0  -0.377905  -0.741529  0  2.354522  0
O  O71  1  0.67370737  0.95095317  0.19551106  1  0  -0.377913  -0.741535  0  2.354486  0
