# generated using pymatgen
data_CuH4C3S2N
_symmetry_space_group_name_H-M   'P 1'
_cell_length_a   9.64151874
_cell_length_b   10.27666329
_cell_length_c   12.83807590
_cell_angle_alpha   70.20659088
_cell_angle_beta   82.76972072
_cell_angle_gamma   70.66951015
_symmetry_Int_Tables_number   1
_chemical_formula_structural   CuH4C3S2N
_chemical_formula_sum   'Cu8 H32 C24 S16 N8'
_cell_volume   1129.26871693
_cell_formula_units_Z   8
loop_
 _symmetry_equiv_pos_site_id
 _symmetry_equiv_pos_as_xyz
  1  'x, y, z'
loop_
 _atom_site_type_symbol
 _atom_site_label
 _atom_site_symmetry_multiplicity
 _atom_site_fract_x
 _atom_site_fract_y
 _atom_site_fract_z
 _atom_site_occupancy
 _atom_site_hle17_bader_spin_density
 _atom_site_hle17_ddec_charge
 _atom_site_hle17_ddec_spin_density
 _atom_site_hle17_ddec_sum_bond_order
 _atom_site_hle17_magmom
 _atom_site_hse06_10hf_bader_spin_density
 _atom_site_hse06_10hf_ddec_charge
 _atom_site_hse06_10hf_ddec_spin_density
 _atom_site_hse06_10hf_ddec_sum_bond_order
 _atom_site_hse06_10hf_magmom
 _atom_site_hse06_bader_spin_density
 _atom_site_hse06_ddec_charge
 _atom_site_hse06_ddec_spin_density
 _atom_site_hse06_ddec_sum_bond_order
 _atom_site_hse06_magmom
 _atom_site_pbe_bader_spin_density
 _atom_site_pbe_cm5_charge
 _atom_site_pbe_ddec_charge
 _atom_site_pbe_ddec_spin_density
 _atom_site_pbe_ddec_sum_bond_order
 _atom_site_pbe_magmom
Cu  Cu0  1  0.40648080  0.59053083  0.08998784  1  0  0.310845  0  2.19066  0  0  0.250179  0  2.653554  0  0  0.250194  0  2.606901  0  0  0.369148  0.252273  0  2.683534  0
Cu  Cu1  1  0.59351927  0.40946815  0.91001092  1  0  0.310861  0  2.190694  0  0  0.250161  0  2.653602  0  0  0.250197  0  2.606955  0  0  0.369167  0.252271  0  2.683611  0
Cu  Cu2  1  0.03465691  0.83577232  0.98469073  1  0  0.300406  0  2.220492  0  0  0.240983  0  2.689913  0  0  0.238166  0  2.645504  0  0  0.371134  0.245894  0  2.717383  0
Cu  Cu3  1  0.96534488  0.16422779  0.01530911  1  0  0.300419  0  2.220413  0  0  0.240993  0  2.689827  0  0  0.238178  0  2.645448  0  0  0.371126  0.245908  0  2.717276  0
Cu  Cu4  1  0.16172410  0.53824907  0.05345857  1  0  0.290012  0  2.260964  0  0  0.225004  0  2.726683  0  0  0.229371  0  2.675893  0  0  0.380751  0.225261  0  2.75747  0
Cu  Cu5  1  0.83827561  0.46175101  0.94654070  1  0  0.29  0  2.260936  0  0  0.224985  0  2.726682  0  0  0.22939  0  2.675884  0  0  0.380761  0.225244  0  2.757473  0
Cu  Cu6  1  0.15605409  0.71097727  0.18063476  1  0  0.278799  0  2.249407  0  0  0.199137  0  2.746835  0  0  0.211813  0  2.684441  0  0  0.35808  0.191314  0  2.788574  0
Cu  Cu7  1  0.84394631  0.28902065  0.81936582  1  0  0.278758  0  2.249427  0  0  0.199105  0  2.74688  0  0  0.21176  0  2.684487  0  0  0.358063  0.191294  0  2.788651  0
H  H8  1  0.50319779  0.95683607  0.75995701  1  0  0.078489  0  0.959126  0  0  0.090387  0  1.026668  0  0  0.091603  0  1.026393  0  0  0.084134  0.089205  0  1.02722  0
H  H9  1  0.49680192  0.04316730  0.24004289  1  0  0.078486  0  0.95911  0  0  0.090384  0  1.026655  0  0  0.091601  0  1.026379  0  0  0.084131  0.089202  0  1.027209  0
H  H10  1  0.60868344  0.99482773  0.84468346  1  0  0.089158  0  0.966968  0  0  0.102913  0  1.032192  0  0  0.103819  0  1.032553  0  0  0.085967  0.102358  0  1.031572  0
H  H11  1  0.39131627  0.00517562  0.15531489  1  0  0.089178  0  0.966948  0  0  0.102924  0  1.032177  0  0  0.103829  0  1.03254  0  0  0.085981  0.102371  0  1.031553  0
H  H12  1  0.55727520  0.71849071  0.88042777  1  0  0.060016  0  0.974261  0  0  0.06924  0  1.052649  0  0  0.069997  0  1.051977  0  0  0.086898  0.068412  0  1.053347  0
H  H13  1  0.44272208  0.28151372  0.11957129  1  0  0.060012  0  0.97425  0  0  0.069246  0  1.052625  0  0  0.070007  0  1.051948  0  0  0.086894  0.068417  0  1.053321  0
H  H14  1  0.64834045  0.75842587  0.97196325  1  0  0.061247  0  0.985848  0  0  0.07258  0  1.060662  0  0  0.072781  0  1.061842  0  0  0.082999  0.072066  0  1.060128  0
H  H15  1  0.35166065  0.24157641  0.02803605  1  0  0.061263  0  0.985856  0  0  0.072604  0  1.06067  0  0  0.072806  0  1.06185  0  0  0.083017  0.072092  0  1.060136  0
H  H16  1  0.10834114  0.06253570  0.77589428  1  0  0.069243  0  0.967892  0  0  0.076781  0  1.048365  0  0  0.078293  0  1.047023  0  0  0.093249  0.075608  0  1.049552  0
H  H17  1  0.89165857  0.93746438  0.22410499  1  0  0.069229  0  0.967919  0  0  0.076772  0  1.048392  0  0  0.078284  0  1.047047  0  0  0.093246  0.075598  0  1.049576  0
H  H18  1  0.00365804  0.98710981  0.72291608  1  0  0.057353  0  0.926578  0  0  0.077583  0  0.984445  0  0  0.077562  0  0.984816  0  0  0.094703  0.077319  0  0.984415  0
H  H19  1  0.99634480  0.01288702  0.27708379  1  0  0.057332  0  0.926576  0  0  0.077578  0  0.984433  0  0  0.077557  0  0.984801  0  0  0.094699  0.077312  0  0.984404  0
H  H20  1  0.29273489  0.03285549  0.64026094  1  0  0.083971  0  0.95423  0  0  0.097439  0  1.0203  0  0  0.098991  0  1.019438  0  0  0.087456  0.096252  0  1.020755  0
H  H21  1  0.70726553  0.96714238  0.35973654  1  0  0.083956  0  0.95422  0  0  0.09743  0  1.020285  0  0  0.09898  0  1.019422  0  0  0.087442  0.096244  0  1.020742  0
H  H22  1  0.17757523  0.97839955  0.57649845  1  0  0.080551  0  0.950939  0  0  0.0997  0  1.006747  0  0  0.100681  0  1.006395  0  0  0.089161  0.099361  0  1.006066  0
H  H23  1  0.82242345  0.02159396  0.42350118  1  0  0.080573  0  0.950931  0  0  0.099731  0  1.006725  0  0  0.10071  0  1.006373  0  0  0.089189  0.099398  0  1.006039  0
H  H24  1  0.70308055  0.70550798  0.38519226  1  0  0.085384  0  0.943728  0  0  0.100189  0  1.00599  0  0  0.10169  0  1.005296  0  0  0.087758  0.098979  0  1.006764  0
H  H25  1  0.29691986  0.29448994  0.61480831  1  0  0.085393  0  0.943729  0  0  0.100186  0  1.006012  0  0  0.101688  0  1.005316  0  0  0.087747  0.098974  0  1.006783  0
H  H26  1  0.77335567  0.51787800  0.46278872  1  0  0.099762  0  0.939178  0  0  0.118323  0  0.995544  0  0  0.119591  0  0.995663  0  0  0.095841  0.117515  0  0.995401  0
H  H27  1  0.22664509  0.48211883  0.53721213  1  0  0.099731  0  0.939251  0  0  0.118309  0  0.995595  0  0  0.119577  0  0.995714  0  0  0.095849  0.117501  0  0.995452  0
H  H28  1  0.02529215  0.51050205  0.40533788  1  0  0.057197  0  0.948861  0  0  0.073002  0  1.018105  0  0  0.072437  0  1.020001  0  0  0.093475  0.073059  0  1.017149  0
H  H29  1  0.97470513  0.48949585  0.59466378  1  0  0.057202  0  0.9488  0  0  0.073021  0  1.018038  0  0  0.072455  0  1.019934  0  0  0.093478  0.073079  0  1.017084  0
H  H30  1  0.95202725  0.69209463  0.40909523  1  0  0.059897  0  0.924909  0  0  0.080488  0  0.983225  0  0  0.080791  0  0.982933  0  0  0.096723  0.080025  0  0.98359  0
H  H31  1  0.04797212  0.30790326  0.59090468  1  0  0.059881  0  0.924905  0  0  0.080473  0  0.983214  0  0  0.080773  0  0.982925  0  0  0.096704  0.080008  0  0.983577  0
H  H32  1  0.18551176  0.18048605  0.18603792  1  0  0.069358  0  0.932199  0  0  0.088098  0  0.993396  0  0  0.088332  0  0.994263  0  0  0.098678  0.088197  0  0.992213  0
H  H33  1  0.81448482  0.81951729  0.81396229  1  0  0.069374  0  0.932167  0  0  0.088143  0  0.993345  0  0  0.088356  0  0.994235  0  0  0.098679  0.08824  0  0.992155  0
H  H34  1  0.00813998  0.30311226  0.19256651  1  0  0.08018  0  0.939777  0  0  0.091993  0  1.010846  0  0  0.092584  0  1.011034  0  0  0.099354  0.091025  0  1.011517  0
H  H35  1  0.99185589  0.69689331  0.80743626  1  0  0.080205  0  0.939699  0  0  0.091981  0  1.010794  0  0  0.092595  0  1.010949  0  0  0.099373  0.091022  0  1.011461  0
H  H36  1  0.13937452  0.07487710  0.37838781  1  0  0.087153  0  0.940409  0  0  0.106962  0  0.994515  0  0  0.108426  0  0.993815  0  0  0.097006  0.105879  0  0.994984  0
H  H37  1  0.86062102  0.92512622  0.62161173  1  0  0.087204  0  0.940335  0  0  0.107013  0  0.994444  0  0  0.108478  0  0.993744  0  0  0.097052  0.105932  0  0.994912  0
H  H38  1  0.00927762  0.24179781  0.38833529  1  0  0.086475  0  0.938528  0  0  0.099195  0  1.003227  0  0  0.101121  0  1.002571  0  0  0.090118  0.097906  0  1.003375  0
H  H39  1  0.99072139  0.75820774  0.61166485  1  0  0.086514  0  0.938467  0  0  0.099229  0  1.003189  0  0  0.101158  0  1.002535  0  0  0.09012  0.097944  0  1.00334  0
C  C40  1  0.32451457  0.90908399  0.99665777  1  0  0.222477  0  3.773731  0  0  0.21344  0  4.059866  0  0  0.229651  0  4.073754  0  0  0.120839  0.202507  0  4.050936  0
C  C41  1  0.67548444  0.09091502  0.00334419  1  0  0.22254  0  3.77369  0  0  0.21347  0  4.059822  0  0  0.229683  0  4.073707  0  0  0.120867  0.202551  0  4.050855  0
C  C42  1  0.51908341  0.95111618  0.84477084  1  0  -0.159348  0  3.592767  0  0  -0.195922  0  3.851618  0  0  -0.196115  0  3.862617  0  0  -0.153645  -0.195496  0  3.844157  0
C  C43  1  0.48091595  0.04888501  0.15522970  1  0  -0.159343  0  3.592674  0  0  -0.195904  0  3.851541  0  0  -0.196099  0  3.862543  0  0  -0.153652  -0.195486  0  3.844082  0
C  C44  1  0.54644787  0.79503223  0.92573210  1  0  0.032062  0  3.640985  0  0  -0.01429  0  3.884856  0  0  -0.011617  0  3.898445  0  0  -0.08339  -0.015659  0  3.875877  0
C  C45  1  0.45355253  0.20496896  0.07426835  1  0  0.03201  0  3.64105  0  0  -0.0144  0  3.884978  0  0  -0.011724  0  3.898562  0  0  -0.083453  -0.015771  0  3.875997  0
C  C46  1  0.11463035  0.96941317  0.74940625  1  0  0.04383  0  3.633714  0  0  -0.004229  0  3.886923  0  0  -0.001178  0  3.899778  0  0  -0.074322  -0.006223  0  3.878416  0
C  C47  1  0.88537076  0.03058584  0.25059396  1  0  0.043804  0  3.633763  0  0  -0.004289  0  3.886982  0  0  -0.001233  0  3.899829  0  0  -0.074344  -0.00629  0  3.878476  0
C  C48  1  0.22881369  0.95746364  0.65455889  1  0  -0.159726  0  3.618496  0  0  -0.197543  0  3.880358  0  0  -0.19776  0  3.891323  0  0  -0.153327  -0.197142  0  3.871936  0
C  C49  1  0.77118673  0.04253426  0.34544013  1  0  -0.159734  0  3.618521  0  0  -0.197544  0  3.880364  0  0  -0.197766  0  3.891343  0  0  -0.153328  -0.197148  0  3.871941  0
C  C50  1  0.26591866  0.73353166  0.82826933  1  0  0.227231  0  3.749017  0  0  0.219355  0  4.033126  0  0  0.236174  0  4.0472  0  0  0.123299  0.208416  0  4.023346  0
C  C51  1  0.73408280  0.26646623  0.17172882  1  0  0.227173  0  3.749018  0  0  0.21927  0  4.033138  0  0  0.23609  0  4.047207  0  0  0.123267  0.20834  0  4.023332  0
C  C52  1  0.89332224  0.63657082  0.19237654  1  0  0.210162  0  3.814292  0  0  0.19796  0  4.101732  0  0  0.216719  0  4.114789  0  0  0.111143  0.185476  0  4.092766  0
C  C53  1  0.10667956  0.36342930  0.80762407  1  0  0.210207  0  3.814184  0  0  0.198043  0  4.101594  0  0  0.216802  0  4.114655  0  0  0.111147  0.185552  0  4.092649  0
C  C54  1  0.78678639  0.60214566  0.38599821  1  0  -0.175618  0  3.658956  0  0  -0.218562  0  3.93051  0  0  -0.218959  0  3.941292  0  0  -0.153114  -0.218409  0  3.923276  0
C  C55  1  0.21321298  0.39785222  0.61400091  1  0  -0.175608  0  3.659019  0  0  -0.218558  0  3.93056  0  0  -0.218954  0  3.941343  0  0  -0.153111  -0.218401  0  3.923328  0
C  C56  1  0.94182426  0.61634663  0.36924032  1  0  0.045365  0  3.675598  0  0  -0.009299  0  3.941405  0  0  -0.005567  0  3.9554  0  0  -0.073229  -0.011638  0  3.932112  0
C  C57  1  0.05817544  0.38365020  0.63076141  1  0  0.045358  0  3.675609  0  0  -0.009285  0  3.941391  0  0  -0.005553  0  3.955384  0  0  -0.07323  -0.011628  0  3.932099  0
C  C58  1  0.25388411  0.37916524  0.27746192  1  0  0.217522  0  3.795694  0  0  0.205844  0  4.082771  0  0  0.224478  0  4.094943  0  0  0.114357  0.193247  0  4.074389  0
C  C59  1  0.74611629  0.62083595  0.72253853  1  0  0.217329  0  3.796002  0  0  0.205632  0  4.083081  0  0  0.224269  0  4.095262  0  0  0.114275  0.193032  0  4.074716  0
C  C60  1  0.11944445  0.26133177  0.22607035  1  0  0.046427  0  3.623076  0  0  -0.002647  0  3.874084  0  0  0.000456  0  3.887494  0  0  -0.069276  -0.004527  0  3.864983  0
C  C61  1  0.88055317  0.73867160  0.77393054  1  0  0.046386  0  3.622946  0  0  -0.002656  0  3.873946  0  0  0.000456  0  3.887345  0  0  -0.069313  -0.004522  0  3.86484  0
C  C62  1  0.11578899  0.19317849  0.35279908  1  0  -0.156677  0  3.632739  0  0  -0.198858  0  3.904593  0  0  -0.199471  0  3.915466  0  0  -0.147333  -0.198092  0  3.896033  0
C  C63  1  0.88420967  0.80682488  0.64720170  1  0  -0.15675  0  3.632519  0  0  -0.198959  0  3.90443  0  0  -0.199581  0  3.915304  0  0  -0.147346  -0.198199  0  3.895885  0
S  S64  1  0.16378463  0.92992559  0.07811782  1  0  -0.355614  0  2.844511  0  0  -0.333143  0  3.355304  0  0  -0.336411  0  3.316048  0  0  -0.248926  -0.332662  0  3.381364  0
S  S65  1  0.83621440  0.07007338  0.92188103  1  0  -0.355654  0  2.844471  0  0  -0.33315  0  3.355228  0  0  -0.33642  0  3.31597  0  0  -0.248936  -0.332678  0  3.38131  0
S  S66  1  0.35168998  0.06238337  0.89348290  1  0  0.038494  0  2.421638  0  0  0.05536  0  2.760797  0  0  0.048071  0  2.763983  0  0  0.035715  0.059468  0  2.758998  0
S  S67  1  0.64830973  0.93761673  0.10651791  1  0  0.038483  0  2.421608  0  0  0.055359  0  2.760767  0  0  0.048073  0  2.763953  0  0  0.035717  0.059463  0  2.758964  0
S  S68  1  0.33303601  0.56098772  0.92390440  1  0  -0.322366  0  2.866801  0  0  -0.29837  0  3.364925  0  0  -0.301946  0  3.328339  0  0  -0.230266  -0.298091  0  3.389837  0
S  S69  1  0.66696232  0.43901015  0.07609405  1  0  -0.322314  0  2.866697  0  0  -0.298316  0  3.364833  0  0  -0.301904  0  3.32826  0  0  -0.230279  -0.298066  0  3.389779  0
S  S70  1  0.35256252  0.77145422  0.69680452  1  0  -0.011007  0  2.378433  0  0  -0.001074  0  2.708801  0  0  -0.006716  0  2.708437  0  0  0.006686  0.001788  0  2.709681  0
S  S71  1  0.64743893  0.22854370  0.30319596  1  0  -0.011015  0  2.378413  0  0  -0.001084  0  2.708785  0  0  -0.006718  0  2.708417  0  0  0.006671  0.001764  0  2.709658  0
S  S72  1  0.91654676  0.66617434  0.05105800  1  0  -0.329954  0  2.745875  0  0  -0.30874  0  3.223577  0  0  -0.314065  0  3.191691  0  0  -0.223739  -0.306782  0  3.244184  0
S  S73  1  0.08345295  0.33382575  0.94894204  1  0  -0.329936  0  2.745851  0  0  -0.308727  0  3.223545  0  0  -0.314054  0  3.19167  0  0  -0.223727  -0.306759  0  3.244149  0
S  S74  1  0.75990063  0.55667454  0.26589012  1  0  0.014187  0  2.366073  0  0  0.028234  0  2.697543  0  0  0.022434  0  2.697432  0  0  0.01921  0.033075  0  2.697232  0
S  S75  1  0.24010187  0.44332337  0.73410871  1  0  0.014236  0  2.36603  0  0  0.028282  0  2.697484  0  0  0.022478  0  2.697379  0  0  0.019249  0.033125  0  2.697187  0
S  S76  1  0.34025029  0.50575182  0.26935127  1  0  -0.349664  0  2.610018  0  0  -0.331307  0  3.054972  0  0  -0.340617  0  3.026534  0  0  -0.246889  -0.32525  0  3.074149  0
S  S77  1  0.65975219  0.49424941  0.73065053  1  0  -0.349617  0  2.610141  0  0  -0.331257  0  3.05513  0  0  -0.340562  0  3.026689  0  0  -0.246888  -0.325203  0  3.074339  0
S  S78  1  0.25922403  0.23567442  0.40266017  1  0  -0.03478  0  2.323204  0  0  -0.025783  0  2.654372  0  0  -0.030442  0  2.651664  0  0  0.007474  -0.021594  0  2.655189  0
S  S79  1  0.74077497  0.76432788  0.59734166  1  0  -0.034774  0  2.323166  0  0  -0.025753  0  2.654354  0  0  -0.030412  0  2.651646  0  0  0.00745  -0.021556  0  2.655178  0
N  N80  1  0.42510921  0.78586432  0.00558043  1  0  -0.352576  0  3.314813  0  0  -0.283917  0  3.606106  0  0  -0.299444  0  3.617027  0  0  -0.404609  -0.274439  0  3.59883  0
N  N81  1  0.57489154  0.21413579  0.99442028  1  0  -0.352555  0  3.314887  0  0  -0.283833  0  3.606157  0  0  -0.299362  0  3.617083  0  0  -0.404567  -0.274354  0  3.598895  0
N  N82  1  0.15296776  0.83718278  0.84474305  1  0  -0.358644  0  3.283425  0  0  -0.288589  0  3.572909  0  0  -0.303429  0  3.582554  0  0  -0.403129  -0.279286  0  3.56598  0
N  N83  1  0.84703265  0.16281512  0.15525675  1  0  -0.358537  0  3.283353  0  0  -0.288452  0  3.572859  0  0  -0.303304  0  3.582528  0  0  -0.403088  -0.279155  0  3.565906  0
N  N84  1  0.97269084  0.66747606  0.25034575  1  0  -0.371968  0  3.283345  0  0  -0.299883  0  3.580806  0  0  -0.317939  0  3.589536  0  0  -0.411782  -0.287993  0  3.574411  0
N  N85  1  0.02730887  0.33252076  0.74965519  1  0  -0.372068  0  3.283372  0  0  -0.30005  0  3.580904  0  0  -0.318101  0  3.589625  0  0  -0.411813  -0.288154  0  3.574523  0
N  N86  1  0.18184420  0.38062469  0.19776285  1  0  -0.345327  0  3.288258  0  0  -0.268232  0  3.567584  0  0  -0.284582  0  3.577549  0  0  -0.404376  -0.258628  0  3.561206  0
N  N87  1  0.81815445  0.61937869  0.80223871  1  0  -0.345176  0  3.288205  0  0  -0.268088  0  3.567563  0  0  -0.284451  0  3.577545  0  0  -0.40429  -0.258483  0  3.561201  0
