# generated using pymatgen
data_CdH17C25N7O4
_symmetry_space_group_name_H-M   'P 1'
_cell_length_a   20.00391519
_cell_length_b   20.00390213
_cell_length_c   21.20124154
_cell_angle_alpha   78.71613617
_cell_angle_beta   78.71667081
_cell_angle_gamma   83.60908642
_symmetry_Int_Tables_number   1
_chemical_formula_structural   CdH17C25N7O4
_chemical_formula_sum   'Cd6 H102 C150 N42 O24'
_cell_volume   8135.45340819
_cell_formula_units_Z   6
loop_
 _symmetry_equiv_pos_site_id
 _symmetry_equiv_pos_as_xyz
  1  'x, y, z'
loop_
 _atom_site_type_symbol
 _atom_site_label
 _atom_site_symmetry_multiplicity
 _atom_site_fract_x
 _atom_site_fract_y
 _atom_site_fract_z
 _atom_site_occupancy
 _atom_site_pbe_bader_charge
 _atom_site_pbe_bader_spin_density
 _atom_site_pbe_cm5_charge
 _atom_site_pbe_ddec_charge
 _atom_site_pbe_ddec_spin_density
 _atom_site_pbe_ddec_sum_bond_order
 _atom_site_pbe_magmom
Cd  Cd0  1  0.97667551  0.22052513  0.55480403  1  1.270029  0  0.779008  0.841598  0  2.213896  0
Cd  Cd1  1  0.77947349  0.02332584  0.94519685  1  1.269993  0  0.779017  0.841655  0  2.213796  0
Cd  Cd2  1  0.02332543  0.77947638  0.44519798  1  1.270009  0  0.778993  0.841602  0  2.213834  0
Cd  Cd3  1  0.22052127  0.97668170  0.05480235  1  1.270095  0  0.778975  0.841598  0  2.213914  0
Cd  Cd4  1  0.50529518  0.49470027  0.25000080  1  1.273239  0  0.780562  0.846253  0  2.230882  0
Cd  Cd5  1  0.49470218  0.50529536  0.75000116  1  1.273239  0  0.780537  0.846255  0  2.230802  0
H  H6  1  0.14263132  0.94047924  0.28486257  1  0.138643  0  0.118844  0.131131  0  0.973148  0
H  H7  1  0.05952213  0.85736462  0.21513950  1  0.138537  0  0.11885  0.131198  0  0.973053  0
H  H8  1  0.85736398  0.05952521  0.71513854  1  0.138439  0  0.118846  0.131184  0  0.973016  0
H  H9  1  0.94047424  0.14263623  0.78486541  1  0.138411  0  0.118829  0.131167  0  0.973127  0
H  H10  1  0.08324189  0.96959518  0.39315361  1  0.135522  0  0.10578  0.116595  0  1.055549  0
H  H11  1  0.03040423  0.91675630  0.10684897  1  0.135534  0  0.10577  0.116555  0  1.055569  0
H  H12  1  0.91675647  0.03041159  0.60684646  1  0.135545  0  0.105719  0.116568  0  1.055602  0
H  H13  1  0.96959113  0.08324872  0.89315721  1  0.135291  0  0.10575  0.116483  0  1.055558  0
H  H14  1  0.99003018  0.15437543  0.29284462  1  0.075386  0  0.108166  0.117418  0  0.986647  0
H  H15  1  0.84562502  0.00996629  0.20715699  1  0.075434  0  0.108196  0.117445  0  0.986556  0
H  H16  1  0.00996971  0.84563225  0.70715497  1  0.075666  0  0.108218  0.117482  0  0.98655  0
H  H17  1  0.15436470  0.99002942  0.79284927  1  0.075622  0  0.10824  0.117529  0  0.986493  0
H  H18  1  0.05492195  0.12689937  0.18508566  1  0.100532  0  0.104532  0.109098  0  1.009257  0
H  H19  1  0.87310219  0.94507381  0.31491623  1  0.100494  0  0.104503  0.109092  0  1.009217  0
H  H20  1  0.94507795  0.87310781  0.81491497  1  0.10091  0  0.104587  0.109222  0  1.009193  0
H  H21  1  0.12689316  0.05492406  0.68508993  1  0.100714  0  0.104593  0.109219  0  1.009166  0
H  H22  1  0.86089115  0.99166140  0.47256358  1  0.072486  0  0.109168  0.162459  0  0.965066  0
H  H23  1  0.00834705  0.13910093  0.02743742  1  0.072658  0  0.109178  0.162545  0  0.96509  0
H  H24  1  0.13910719  0.00834791  0.52743458  1  0.072907  0  0.10925  0.162669  0  0.964956  0
H  H25  1  0.99165902  0.86088948  0.97256433  1  0.072448  0  0.109232  0.162605  0  0.965029  0
H  H26  1  0.93504291  0.95564232  0.42517892  1  0.148866  0  0.102371  0.167531  0  1.028607  0
H  H27  1  0.04436064  0.06494752  0.07482395  1  0.149219  0  0.102533  0.167859  0  1.028557  0
H  H28  1  0.06495494  0.04436450  0.57482124  1  0.149118  0  0.102501  0.167828  0  1.028485  0
H  H29  1  0.95564031  0.93504121  0.92517818  1  0.14922  0  0.102441  0.167705  0  1.02853  0
H  H30  1  0.88402655  0.02328998  0.38712974  1  0.04078  0  0.10269  0.147485  0  0.9851  0
H  H31  1  0.97671553  0.11596665  0.11287116  1  0.040757  0  0.102668  0.147547  0  0.98515  0
H  H32  1  0.11597385  0.97671715  0.61286939  1  0.040809  0  0.102699  0.147627  0  0.984974  0
H  H33  1  0.02329258  0.88402770  0.88713084  1  0.04068  0  0.10268  0.147565  0  0.985024  0
H  H34  1  0.27742892  0.50254099  0.34527964  1  0.124675  0  0.115652  0.126991  0  0.981514  0
H  H35  1  0.49745968  0.72256383  0.15471622  1  0.124761  0  0.115675  0.127019  0  0.98156  0
H  H36  1  0.72256581  0.49745476  0.65471620  1  0.12467  0  0.115667  0.126952  0  0.981611  0
H  H37  1  0.50254428  0.27743536  0.84528093  1  0.12465  0  0.115672  0.126986  0  0.981504  0
H  H38  1  0.16482895  0.47127529  0.41649168  1  0.080453  0  0.116748  0.127955  0  0.974027  0
H  H39  1  0.52872060  0.83516652  0.08350517  1  0.080515  0  0.116746  0.127946  0  0.974165  0
H  H40  1  0.83517045  0.52872069  0.58350887  1  0.080447  0  0.11673  0.127882  0  0.974065  0
H  H41  1  0.47127977  0.16483241  0.91649131  1  0.080486  0  0.116788  0.127991  0  0.974133  0
H  H42  1  0.26566837  0.28869284  0.51190209  1  0.077952  0  0.111641  0.122266  0  0.979517  0
H  H43  1  0.71130750  0.73433609  0.98809451  1  0.077873  0  0.111622  0.122336  0  0.979422  0
H  H44  1  0.73433613  0.71130684  0.48809722  1  0.077942  0  0.111648  0.12234  0  0.979478  0
H  H45  1  0.28869285  0.26566384  0.01190037  1  0.077841  0  0.111597  0.122225  0  0.979501  0
H  H46  1  0.37750588  0.32008232  0.43819718  1  0.107314  0  0.108401  0.115497  0  0.993138  0
H  H47  1  0.67992355  0.62249551  0.06179625  1  0.107256  0  0.108394  0.115521  0  0.993039  0
H  H48  1  0.62249548  0.67991599  0.56179593  1  0.107803  0  0.108378  0.115494  0  0.993114  0
H  H49  1  0.32007783  0.37750332  0.93819864  1  0.107276  0  0.108405  0.11549  0  0.993052  0
H  H50  1  0.18759201  0.42667629  0.59621700  1  0.064523  0  0.100494  0.142303  0  0.990555  0
H  H51  1  0.57331575  0.81241531  0.90378115  1  0.064607  0  0.100517  0.142385  0  0.990482  0
H  H52  1  0.81241304  0.57331676  0.40378632  1  0.064787  0  0.100524  0.142405  0  0.990572  0
H  H53  1  0.42667641  0.18759441  0.09621390  1  0.064343  0  0.100504  0.142339  0  0.990542  0
H  H54  1  0.10073783  0.44975963  0.62954204  1  0.08971  0  0.113608  0.167972  0  0.963193  0
H  H55  1  0.55023416  0.89927045  0.87045747  1  0.089568  0  0.113647  0.168065  0  0.96322  0
H  H56  1  0.89926878  0.55023485  0.37046212  1  0.089716  0  0.113635  0.168019  0  0.963152  0
H  H57  1  0.44976215  0.10074005  0.12954275  1  0.08975  0  0.11358  0.16803  0  0.963053  0
H  H58  1  0.13832409  0.48895759  0.54934512  1  0.087169  0  0.104718  0.152824  0  0.989398  0
H  H59  1  0.51103851  0.86168389  0.95065493  1  0.08734  0  0.104729  0.152803  0  0.989408  0
H  H60  1  0.86168202  0.51104052  0.45066079  1  0.087213  0  0.104703  0.152759  0  0.989487  0
H  H61  1  0.48895472  0.13832528  0.04934425  1  0.08711  0  0.104723  0.152857  0  0.989464  0
H  H62  1  0.13044099  0.13527191  0.33580618  1  0.098445  0  0.11046  0.120407  0  1.032087  0
H  H63  1  0.86472356  0.86955526  0.16419897  1  0.09841  0  0.110426  0.120371  0  1.03209  0
H  H64  1  0.86955945  0.86472606  0.66419661  1  0.098631  0  0.110455  0.120414  0  1.032164  0
H  H65  1  0.13526824  0.13044084  0.83580964  1  0.098472  0  0.110491  0.120411  0  1.032183  0
H  H66  1  0.21531833  0.22302259  0.31197770  1  0.083027  0  0.117495  0.113046  0  0.963619  0
H  H67  1  0.77697525  0.78467650  0.18802112  1  0.083047  0  0.117506  0.113077  0  0.963587  0
H  H68  1  0.78468105  0.77697748  0.68802253  1  0.082955  0  0.117491  0.113025  0  0.963575  0
H  H69  1  0.22302105  0.21531610  0.81197739  1  0.083004  0  0.117476  0.112993  0  0.963637  0
H  H70  1  0.20645943  0.30832590  0.38473937  1  0.095445  0  0.108318  0.116934  0  1.035921  0
H  H71  1  0.69167466  0.79353762  0.11525667  1  0.095342  0  0.108342  0.116985  0  1.035914  0
H  H72  1  0.79354145  0.69167555  0.61525700  1  0.095497  0  0.108318  0.116902  0  1.035873  0
H  H73  1  0.30832825  0.20645497  0.88473773  1  0.095227  0  0.108316  0.116918  0  1.035832  0
H  H74  1  0.75074856  0.29337172  0.54042175  1  0.141766  0  0.116459  0.126949  0  0.980551  0
H  H75  1  0.70663030  0.24924990  0.95957916  1  0.141752  0  0.116434  0.126908  0  0.980573  0
H  H76  1  0.24925492  0.70662907  0.45957801  1  0.141199  0  0.116426  0.126901  0  0.980499  0
H  H77  1  0.29336914  0.75075073  0.04042614  1  0.141633  0  0.116439  0.126864  0  0.98071  0
H  H78  1  0.64678877  0.35574828  0.49897745  1  0.087144  0  0.116652  0.127319  0  0.972885  0
H  H79  1  0.64424879  0.35321059  0.00101815  1  0.086939  0  0.116625  0.127269  0  0.972934  0
H  H80  1  0.35321414  0.64424329  0.50101667  1  0.086807  0  0.11667  0.127391  0  0.972945  0
H  H81  1  0.35574965  0.64678962  0.99898931  1  0.086793  0  0.116644  0.127286  0  0.973  0
H  H82  1  0.77778204  0.46465021  0.33393805  1  0.081698  0  0.110475  0.120244  0  0.981209  0
H  H83  1  0.53534856  0.22221677  0.16605978  1  0.081711  0  0.110448  0.120191  0  0.9811  0
H  H84  1  0.22222401  0.53534734  0.66606232  1  0.081691  0  0.110467  0.120177  0  0.981071  0
H  H85  1  0.46464417  0.77777764  0.83394096  1  0.081821  0  0.110525  0.120237  0  0.981063  0
H  H86  1  0.88097547  0.39839084  0.37451822  1  0.130244  0  0.108019  0.114823  0  0.994665  0
H  H87  1  0.60161267  0.11902263  0.12548427  1  0.129999  0  0.108007  0.114829  0  0.994648  0
H  H88  1  0.11902911  0.60161711  0.62548890  1  0.129861  0  0.107996  0.114871  0  0.994439  0
H  H89  1  0.39838313  0.88097514  0.87451616  1  0.130114  0  0.108021  0.114842  0  0.994575  0
H  H90  1  0.60612750  0.58197801  0.47346622  1  0.10812  0  0.10936  0.163535  0  0.974225  0
H  H91  1  0.41802711  0.39387966  0.02652468  1  0.108194  0  0.10939  0.163576  0  0.974295  0
H  H92  1  0.39387746  0.41802006  0.52652860  1  0.108014  0  0.109297  0.16342  0  0.974285  0
H  H93  1  0.58197377  0.60612843  0.97347181  1  0.108663  0  0.10936  0.163515  0  0.974341  0
H  H94  1  0.67894096  0.52195107  0.47876554  1  0.047014  0  0.099372  0.142623  0  1.009698  0
H  H95  1  0.47805255  0.32106683  0.02122704  1  0.047192  0  0.099412  0.142725  0  1.009627  0
H  H96  1  0.32106455  0.47804546  0.52123183  1  0.047194  0  0.099428  0.142669  0  1.00954  0
H  H97  1  0.52194882  0.67894274  0.97876765  1  0.046996  0  0.099366  0.142616  0  1.00967  0
H  H98  1  0.59691221  0.49915764  0.52153817  1  0.116315  0  0.111144  0.166712  0  0.968261  0
H  H99  1  0.50084660  0.40309367  0.97845461  1  0.116136  0  0.111176  0.166833  0  0.968159  0
H  H100  1  0.40309175  0.50084000  0.47845787  1  0.116274  0  0.111115  0.166746  0  0.968238  0
H  H101  1  0.49915378  0.59691395  0.02154254  1  0.116279  0  0.11111  0.166649  0  0.968286  0
H  H102  1  0.72161185  0.33475921  0.33377744  1  0.07921  0  0.107324  0.115528  0  1.036782  0
H  H103  1  0.66524174  0.27838624  0.16622137  1  0.079154  0  0.107333  0.115486  0  1.036747  0
H  H104  1  0.27839564  0.66524018  0.66621427  1  0.079248  0  0.10732  0.115452  0  1.036702  0
H  H105  1  0.33475250  0.72161314  0.83377669  1  0.079072  0  0.107311  0.115546  0  1.036734  0
H  H106  1  0.74009246  0.25991929  0.24999486  1  0.073561  0  0.116919  0.110728  0  0.965314  0
H  H107  1  0.25991343  0.74008729  0.74999057  1  0.073612  0  0.116915  0.110726  0  0.965259  0
C  C108  1  0.14151900  0.01809369  0.16434727  1  1.581304  0  0.184452  0.54517  0  4.259605  0
C  C109  1  0.98190674  0.85847596  0.33565489  1  1.581121  0  0.184538  0.545333  0  4.259576  0
C  C110  1  0.85847779  0.98191266  0.83565036  1  1.581083  0  0.184522  0.545443  0  4.259563  0
C  C111  1  0.01808760  0.14152506  0.66435227  1  1.581289  0  0.1846  0.545545  0  4.25934  0
C  C112  1  0.10261700  0.03265738  0.22909365  1  0.012783  0  -0.010168  -0.01863  0  3.949407  0
C  C113  1  0.96734340  0.89737684  0.27090701  1  0.01264  0  -0.010019  -0.01842  0  3.949075  0
C  C114  1  0.89737777  0.96734966  0.77090659  1  0.012517  0  -0.010002  -0.018408  0  3.949007  0
C  C115  1  0.03265143  0.10262310  0.72909838  1  0.012989  0  -0.010102  -0.018574  0  3.949135  0
C  C116  1  0.10994948  0.98757878  0.28724733  1  -0.009627  0  -0.067981  -0.061882  0  3.925272  0
C  C117  1  0.01242152  0.89004399  0.21275462  1  -0.009342  0  -0.068059  -0.062062  0  3.9251  0
C  C118  1  0.89004581  0.01242669  0.71275265  1  -0.009223  0  -0.068005  -0.061957  0  3.92482  0
C  C119  1  0.98757383  0.10995643  0.78725151  1  -0.008974  0  -0.067995  -0.061995  0  3.924856  0
C  C120  1  0.07617880  0.00311954  0.34729034  1  -0.065841  0  -0.08582  -0.158354  0  3.94542  0
C  C121  1  0.99687999  0.92381748  0.15271010  1  -0.065799  0  -0.08576  -0.158225  0  3.94525  0
C  C122  1  0.92381853  0.99688680  0.65270954  1  -0.066159  0  -0.085689  -0.158191  0  3.945179  0
C  C123  1  0.00311535  0.07618497  0.84729517  1  -0.066098  0  -0.085655  -0.157959  0  3.945082  0
C  C124  1  0.03375878  0.06340896  0.34811255  1  0.215221  0  0.083346  0.163617  0  4.030596  0
C  C125  1  0.93659144  0.96623807  0.15189047  1  0.215214  0  0.083294  0.163541  0  4.030756  0
C  C126  1  0.96624008  0.93659931  0.65188713  1  0.215166  0  0.083267  0.163412  0  4.030533  0
C  C127  1  0.06340442  0.03376283  0.84811547  1  0.215356  0  0.083299  0.163334  0  4.030689  0
C  C128  1  0.02377501  0.10784448  0.29045527  1  -0.025209  0  -0.094252  -0.183308  0  4.029688  0
C  C129  1  0.89215734  0.97622513  0.20954519  1  -0.025256  0  -0.094222  -0.183158  0  4.029625  0
C  C130  1  0.97622742  0.89216197  0.70954218  1  -0.025501  0  -0.094261  -0.183096  0  4.029419  0
C  C131  1  0.10783698  0.02377536  0.79046019  1  -0.025667  0  -0.094219  -0.183042  0  4.029551  0
C  C132  1  0.05924645  0.09256701  0.23104732  1  -0.044668  0  -0.084506  -0.087169  0  3.996018  0
C  C133  1  0.90743406  0.94075189  0.26895433  1  -0.044505  0  -0.084562  -0.087416  0  3.995867  0
C  C134  1  0.94075345  0.90744068  0.76895275  1  -0.044657  0  -0.084713  -0.087722  0  3.995893  0
C  C135  1  0.09256077  0.05924753  0.73105116  1  -0.044725  0  -0.084714  -0.08766  0  3.995994  0
C  C136  1  0.90399768  0.00332783  0.43251516  1  -0.050339  0  -0.231365  -0.470562  0  3.942724  0
C  C137  1  0.99667509  0.09599363  0.06748679  1  -0.050676  0  -0.231551  -0.471175  0  3.943208  0
C  C138  1  0.09600015  0.99667846  0.56748369  1  -0.050853  0  -0.231646  -0.471404  0  3.942826  0
C  C139  1  0.00332435  0.90399831  0.93251784  1  -0.050688  0  -0.231498  -0.470984  0  3.94282  0
C  C140  1  0.94245796  0.05487320  0.44841436  1  0.954734  0  0.229939  0.332964  0  3.970825  0
C  C141  1  0.94512849  0.05753741  0.05158698  1  0.954871  0  0.22991  0.333021  0  3.971078  0
C  C142  1  0.05754194  0.94513195  0.55158667  1  0.955211  0  0.230003  0.333172  0  3.970791  0
C  C143  1  0.05486891  0.94245775  0.94841837  1  0.954766  0  0.229956  0.332827  0  3.97111  0
C  C144  1  0.01794807  0.12890182  0.44145851  1  0.941602  0  0.230498  0.184741  0  3.972439  0
C  C145  1  0.87109692  0.98205065  0.05854554  1  0.942345  0  0.230361  0.184488  0  3.972685  0
C  C146  1  0.98205443  0.87110063  0.55854584  1  0.942642  0  0.230449  0.184619  0  3.972819  0
C  C147  1  0.12889947  0.01794765  0.94146081  1  0.941305  0  0.230457  0.184709  0  3.972579  0
C  C148  1  0.40007454  0.43016678  0.34332164  1  1.589822  0  0.182115  0.550644  0  4.272199  0
C  C149  1  0.56983291  0.59992306  0.15667430  1  1.589712  0  0.182201  0.550625  0  4.27222  0
C  C150  1  0.59992585  0.56983267  0.65667663  1  1.589629  0  0.182033  0.550492  0  4.272304  0
C  C151  1  0.43016636  0.40007331  0.84331488  1  1.589712  0  0.18213  0.550585  0  4.272352  0
C  C152  1  0.33320591  0.41265240  0.38775513  1  -0.036478  0  -0.008928  -0.012863  0  3.935158  0
C  C153  1  0.58734810  0.66679186  0.11224088  1  -0.03654  0  -0.008839  -0.012631  0  3.934963  0
C  C154  1  0.66679395  0.58734452  0.61224137  1  -0.036832  0  -0.008826  -0.01271  0  3.935045  0
C  C155  1  0.41265329  0.33320700  0.88775589  1  -0.036581  0  -0.008912  -0.012824  0  3.935077  0
C  C156  1  0.27383294  0.45595292  0.38192045  1  0.014231  0  -0.07312  -0.074204  0  3.953916  0
C  C157  1  0.54404732  0.72616511  0.11807558  1  0.014878  0  -0.073167  -0.074266  0  3.953915  0
C  C158  1  0.72616641  0.54404404  0.61807614  1  0.014985  0  -0.073125  -0.074207  0  3.953933  0
C  C159  1  0.45595407  0.27383579  0.88192079  1  0.014797  0  -0.07311  -0.074056  0  3.953586  0
C  C160  1  0.21169494  0.43877167  0.42153671  1  -0.032128  0  -0.086782  -0.171415  0  3.9938  0
C  C161  1  0.56122661  0.78830423  0.07845929  1  -0.032569  0  -0.086817  -0.171535  0  3.993668  0
C  C162  1  0.78830544  0.56122625  0.57846091  1  -0.032545  0  -0.086778  -0.171303  0  3.99362  0
C  C163  1  0.43877377  0.21169420  0.92153870  1  -0.032798  0  -0.086828  -0.171549  0  3.994542  0
C  C164  1  0.20971544  0.37827437  0.46754121  1  0.230898  0  0.083926  0.156581  0  4.053504  0
C  C165  1  0.62172457  0.79028487  0.03245423  1  0.230618  0  0.083941  0.156751  0  4.05334  0
C  C166  1  0.79028495  0.62172611  0.53245686  1  0.23094  0  0.083891  0.156489  0  4.053545  0
C  C167  1  0.37827680  0.20971396  0.96753973  1  0.231127  0  0.083984  0.153742  0  4.053928  0
C  C168  1  0.26883726  0.33544189  0.47532105  1  -0.040494  0  -0.09107  -0.179079  0  4.011393  0
C  C169  1  0.66455918  0.73116464  0.02467645  1  -0.040259  0  -0.091  -0.179191  0  4.011304  0
C  C170  1  0.73116314  0.66455859  0.52467796  1  -0.040266  0  -0.091037  -0.179168  0  4.011366  0
C  C171  1  0.33544321  0.26883718  0.97531766  1  -0.040242  0  -0.091  -0.179024  0  4.012047  0
C  C172  1  0.33042448  0.35263859  0.43473953  1  -0.023062  0  -0.078181  -0.082806  0  3.981269  0
C  C173  1  0.64736345  0.66957425  0.06525624  1  -0.023343  0  -0.078268  -0.082958  0  3.981199  0
C  C174  1  0.66957488  0.64735940  0.56525780  1  -0.023795  0  -0.078217  -0.082809  0  3.981232  0
C  C175  1  0.35263947  0.33042653  0.93473939  1  -0.023134  0  -0.078194  -0.082684  0  3.981049  0
C  C176  1  0.13594213  0.44091952  0.58495113  1  -0.06958  0  -0.223176  -0.461804  0  3.964507  0
C  C177  1  0.55907648  0.86406437  0.91504470  1  -0.069945  0  -0.223288  -0.461985  0  3.964667  0
C  C178  1  0.86406034  0.55907728  0.41505055  1  -0.069888  0  -0.22323  -0.461926  0  3.964631  0
C  C179  1  0.44092130  0.13594442  0.08494942  1  -0.069412  0  -0.223241  -0.461918  0  3.965105  0
C  C180  1  0.11118527  0.38586264  0.55981064  1  0.949915  0  0.227327  0.326742  0  3.968221  0
C  C181  1  0.61413324  0.88881891  0.94018580  1  0.950625  0  0.22729  0.326634  0  3.968455  0
C  C182  1  0.88881620  0.61413373  0.44019226  1  0.950077  0  0.227306  0.326733  0  3.968101  0
C  C183  1  0.38586457  0.11118583  0.05981099  1  0.950324  0  0.227445  0.324182  0  3.968145  0
C  C184  1  0.10605649  0.30925489  0.49994162  1  0.958532  0  0.231254  0.187463  0  3.959842  0
C  C185  1  0.69074222  0.89394686  0.00005673  1  0.958687  0  0.231168  0.18734  0  3.959504  0
C  C186  1  0.89394753  0.69074232  0.50006109  1  0.959375  0  0.231201  0.187391  0  3.959767  0
C  C187  1  0.30925865  0.10605356  0.99993936  1  0.958581  0  0.231311  0.184782  0  3.959562  0
C  C188  1  0.07459432  0.17361389  0.42208942  1  0.566632  0  0.137978  0.186516  0  4.00348  0
C  C189  1  0.82638258  0.92540427  0.07791468  1  0.566145  0  0.138028  0.186665  0  4.003322  0
C  C190  1  0.92540767  0.82638604  0.57791505  1  0.566508  0  0.138077  0.18667  0  4.003213  0
C  C191  1  0.17361377  0.07459247  0.92208868  1  0.566254  0  0.137966  0.186434  0  4.003287  0
C  C192  1  0.12707838  0.17258714  0.36750784  1  -0.019854  0  -0.080505  -0.162859  0  3.928864  0
C  C193  1  0.82740741  0.87291786  0.13249779  1  -0.019547  0  -0.080308  -0.162578  0  3.928858  0
C  C194  1  0.87292258  0.82741081  0.63249627  1  -0.02011  0  -0.080492  -0.162816  0  3.929208  0
C  C195  1  0.17258743  0.12707798  0.86750745  1  -0.019912  0  -0.080482  -0.162753  0  3.929045  0
C  C196  1  0.17458857  0.22167496  0.35458428  1  -0.009621  0  -0.061975  -0.014239  0  3.986457  0
C  C197  1  0.77832160  0.82540987  0.14541769  1  -0.009805  0  -0.062014  -0.014364  0  3.986578  0
C  C198  1  0.82541338  0.77832594  0.64541576  1  -0.00967  0  -0.062021  -0.01431  0  3.98656  0
C  C199  1  0.22167575  0.17458523  0.85458295  1  -0.009671  0  -0.062074  -0.014316  0  3.986599  0
C  C200  1  0.17019680  0.26927092  0.39551233  1  -0.031037  0  -0.081436  -0.164307  0  3.932764  0
C  C201  1  0.73072625  0.82980162  0.10448789  1  -0.030962  0  -0.081498  -0.164428  0  3.932654  0
C  C202  1  0.82980615  0.73072887  0.60448632  1  -0.031002  0  -0.081398  -0.164199  0  3.9328  0
C  C203  1  0.26927413  0.17019119  0.89550931  1  -0.030435  0  -0.081323  -0.164161  0  3.932438  0
C  C204  1  0.11788818  0.26483068  0.45072697  1  0.563396  0  0.137115  0.185541  0  4.003519  0
C  C205  1  0.73516734  0.88211324  0.04927182  1  0.563223  0  0.137095  0.185693  0  4.003161  0
C  C206  1  0.88211328  0.73516772  0.54927507  1  0.563384  0  0.137131  0.185623  0  4.003483  0
C  C207  1  0.26483407  0.11788410  0.95072571  1  0.563066  0  0.137111  0.185707  0  4.003439  0
C  C208  1  0.88367827  0.30441963  0.48342880  1  1.582048  0  0.181511  0.548721  0  4.274813  0
C  C209  1  0.69558819  0.11632380  0.01657202  1  1.581556  0  0.181515  0.549022  0  4.274535  0
C  C210  1  0.11632732  0.69558464  0.51657601  1  1.581743  0  0.181515  0.548998  0  4.275198  0
C  C211  1  0.30441985  0.88368173  0.98342405  1  1.581718  0  0.181611  0.548867  0  4.274664  0
C  C212  1  0.82128301  0.34256811  0.45953511  1  0.039732  0  -0.009866  -0.012871  0  3.941096  0
C  C213  1  0.65743558  0.17871595  0.04046527  1  0.039726  0  -0.009852  -0.012954  0  3.941135  0
C  C214  1  0.17872000  0.65743532  0.54046894  1  0.039799  0  -0.009832  -0.01288  0  3.941207  0
C  C215  1  0.34256379  0.82128615  0.95953363  1  0.039902  0  -0.009932  -0.012981  0  3.941248  0
C  C216  1  0.75563905  0.33046543  0.49501414  1  -0.0787  0  -0.072341  -0.072877  0  3.952709  0
C  C217  1  0.66953425  0.24436194  0.00498356  1  -0.078793  0  -0.072394  -0.072888  0  3.952685  0
C  C218  1  0.24436647  0.66953214  0.50498538  1  -0.078236  0  -0.072385  -0.072854  0  3.952454  0
C  C219  1  0.33046362  0.75563927  0.99501862  1  -0.078878  0  -0.072437  -0.072883  0  3.952792  0
C  C220  1  0.69822461  0.36520321  0.47221324  1  0.016274  0  -0.085198  -0.164033  0  3.984438  0
C  C221  1  0.63479623  0.30177431  0.02778169  1  0.016862  0  -0.085087  -0.163907  0  3.984316  0
C  C222  1  0.30177984  0.63479081  0.52778105  1  0.015819  0  -0.085203  -0.164198  0  3.984636  0
C  C223  1  0.36520116  0.69822544  0.97222324  1  0.017786  0  -0.084996  -0.16379  0  3.984515  0
C  C224  1  0.70714395  0.41306929  0.41424825  1  0.219739  0  0.084545  0.15952  0  4.055381  0
C  C225  1  0.58692797  0.29285523  0.08574972  1  0.219654  0  0.084475  0.159414  0  4.055474  0
C  C226  1  0.29286101  0.58692572  0.58574669  1  0.220583  0  0.084445  0.159424  0  4.055715  0
C  C227  1  0.41306584  0.70714223  0.91425588  1  0.218842  0  0.084351  0.159104  0  4.055966  0
C  C228  1  0.77237197  0.42657798  0.37876815  1  -0.039218  0  -0.09197  -0.181699  0  4.018628  0
C  C229  1  0.57342112  0.22762712  0.12122922  1  -0.039185  0  -0.09185  -0.181469  0  4.01852  0
C  C230  1  0.22763201  0.57342122  0.62122994  1  -0.03934  0  -0.091827  -0.181369  0  4.018565  0
C  C231  1  0.42657366  0.77236867  0.87877085  1  -0.039293  0  -0.091894  -0.181482  0  4.018627  0
C  C232  1  0.82925007  0.39038944  0.40122394  1  -0.097832  0  -0.081669  -0.085719  0  3.98691  0
C  C233  1  0.60961162  0.17074993  0.09877564  1  -0.097659  0  -0.081672  -0.085768  0  3.987033  0
C  C234  1  0.17075551  0.60961482  0.59878040  1  -0.097363  0  -0.081673  -0.085863  0  3.986991  0
C  C235  1  0.39038367  0.82924838  0.90122431  1  -0.097918  0  -0.08165  -0.08572  0  3.987043  0
C  C236  1  0.62432081  0.52799844  0.47596726  1  -0.087718  0  -0.226283  -0.469486  0  3.950882  0
C  C237  1  0.47200223  0.37568543  0.02402688  1  -0.087834  0  -0.226388  -0.469785  0  3.950977  0
C  C238  1  0.37568673  0.47199692  0.52402947  1  -0.088098  0  -0.226228  -0.46938  0  3.950735  0
C  C239  1  0.52799864  0.62432111  0.97596897  1  -0.088303  0  -0.226253  -0.469392  0  3.950925  0
C  C240  1  0.61131371  0.50418322  0.41778518  1  0.951522  0  0.230661  0.334073  0  3.956745  0
C  C241  1  0.49582012  0.38869067  0.08220601  1  0.952026  0  0.230607  0.334063  0  3.956409  0
C  C242  1  0.38869075  0.49581234  0.58221022  1  0.951449  0  0.230673  0.334066  0  3.956478  0
C  C243  1  0.50418179  0.61131223  0.91779034  1  0.951948  0  0.230576  0.333957  0  3.956444  0
C  C244  1  0.61955309  0.44501626  0.33911516  1  0.976279  0  0.22793  0.183826  0  3.963386  0
C  C245  1  0.55497996  0.38044184  0.16088474  1  0.976699  0  0.22802  0.184153  0  3.96315  0
C  C246  1  0.38044578  0.55497770  0.66088447  1  0.977206  0  0.227922  0.183986  0  3.96344  0
C  C247  1  0.44501333  0.61955207  0.83911976  1  0.975898  0  0.228038  0.183876  0  3.963346  0
C  C248  1  0.63664783  0.39526605  0.29476914  1  0.554955  0  0.138337  0.189695  0  4.001732  0
C  C249  1  0.60472586  0.36334537  0.20523269  1  0.554278  0  0.138204  0.189484  0  4.001617  0
C  C250  1  0.36335105  0.60472639  0.70523173  1  0.554303  0  0.138288  0.189474  0  4.001728  0
C  C251  1  0.39526485  0.63664666  0.79477032  1  0.554853  0  0.138376  0.189773  0  4.001741  0
C  C252  1  0.68923054  0.34260369  0.29696940  1  -0.044733  0  -0.080871  -0.162856  0  3.930415  0
C  C253  1  0.65739266  0.31076816  0.20303331  1  -0.044576  0  -0.080877  -0.162771  0  3.930233  0
C  C254  1  0.31077444  0.65739287  0.70302712  1  -0.044548  0  -0.080874  -0.162654  0  3.92993  0
C  C255  1  0.34260108  0.68923127  0.79696578  1  -0.044156  0  -0.080868  -0.162938  0  3.930317  0
C  C256  1  0.69921957  0.30078119  0.25000060  1  0.03487  0  -0.066132  -0.018286  0  3.986268  0
C  C257  1  0.30078285  0.69921862  0.74999579  1  0.034361  0  -0.066198  -0.01836  0  3.986065  0
N  N258  1  0.00061629  0.08136676  0.40966090  1  -1.235658  0  -0.212328  -0.110429  0  3.696823  0
N  N259  1  0.91863173  0.99938273  0.09034186  1  -1.235738  0  -0.212326  -0.110391  0  3.697088  0
N  N260  1  0.99938466  0.91863730  0.59034108  1  -1.235717  0  -0.212326  -0.110386  0  3.696936  0
N  N261  1  0.08136413  0.00061561  0.90966411  1  -1.2355  0  -0.212331  -0.11026  0  3.696815  0
N  N262  1  0.92548303  0.08440099  0.50079779  1  -0.668469  0  -0.22387  -0.256598  0  3.184309  0
N  N263  1  0.91560046  0.07451487  0.99920405  1  -0.66857  0  -0.223854  -0.256571  0  3.184332  0
N  N264  1  0.07451640  0.91560167  0.49920617  1  -0.669331  0  -0.223805  -0.256548  0  3.184293  0
N  N265  1  0.08439795  0.92548224  0.00080025  1  -0.668356  0  -0.223811  -0.256393  0  3.184289  0
N  N266  1  0.97252691  0.13019323  0.49617804  1  -0.712357  0  -0.219183  -0.198594  0  3.429051  0
N  N267  1  0.86980723  0.02747058  0.00382340  1  -0.712783  0  -0.219078  -0.198453  0  3.428965  0
N  N268  1  0.02747458  0.86980624  0.50382755  1  -0.712798  0  -0.219179  -0.198539  0  3.429084  0
N  N269  1  0.13019117  0.97252551  0.99618063  1  -0.712176  0  -0.219222  -0.198749  0  3.42919  0
N  N270  1  0.14549484  0.35881678  0.50630999  1  -1.248267  0  -0.215169  -0.105865  0  3.696756  0
N  N271  1  0.64118178  0.85450443  0.99368715  1  -1.248091  0  -0.215047  -0.105774  0  3.69644  0
N  N272  1  0.85450560  0.64118170  0.49369223  1  -1.248732  0  -0.215207  -0.105845  0  3.696717  0
N  N273  1  0.35882162  0.14549271  0.00630532  1  -1.248454  0  -0.215296  -0.098033  0  3.688475  0
N  N274  1  0.05435388  0.35460571  0.58481679  1  -0.658839  0  -0.230464  -0.257025  0  3.130396  0
N  N275  1  0.64539152  0.94564784  0.91518259  1  -0.659128  0  -0.230474  -0.256993  0  3.130489  0
N  N276  1  0.94564913  0.64538852  0.41518670  1  -0.658789  0  -0.230452  -0.257051  0  3.130228  0
N  N277  1  0.35460789  0.05435378  0.08481922  1  -0.658982  0  -0.230502  -0.257133  0  3.13123  0
N  N278  1  0.05149591  0.30727712  0.54733474  1  -0.694424  0  -0.214304  -0.181631  0  3.429651  0
N  N279  1  0.69271942  0.94850769  0.95266790  1  -0.694775  0  -0.214243  -0.181532  0  3.429663  0
N  N280  1  0.94850660  0.69271970  0.45266976  1  -0.695018  0  -0.214227  -0.181465  0  3.429355  0
N  N281  1  0.30727641  0.05149675  0.04733547  1  -0.694403  0  -0.214311  -0.181765  0  3.430572  0
N  N282  1  0.07188175  0.21808194  0.46250018  1  -1.158318  0  -0.299783  -0.267527  0  3.429905  0
N  N283  1  0.78191728  0.92811663  0.03750180  1  -1.158027  0  -0.299893  -0.267845  0  3.430002  0
N  N284  1  0.92812225  0.78191933  0.53750033  1  -1.158301  0  -0.299854  -0.267796  0  3.429705  0
N  N285  1  0.21808367  0.07187670  0.96250038  1  -1.157996  0  -0.299803  -0.267484  0  3.429601  0
N  N286  1  0.64849374  0.45050571  0.39155762  1  -1.22872  0  -0.213368  -0.113589  0  3.69947  0
N  N287  1  0.54949576  0.35150522  0.10844104  1  -1.228903  0  -0.213365  -0.113642  0  3.699581  0
N  N288  1  0.35150766  0.54949110  0.60843908  1  -1.229065  0  -0.213448  -0.113824  0  3.699551  0
N  N289  1  0.45049907  0.64849216  0.89156390  1  -1.227999  0  -0.213373  -0.113427  0  3.699505  0
N  N290  1  0.56304661  0.53022773  0.38311808  1  -0.656272  0  -0.233059  -0.260112  0  3.133932  0
N  N291  1  0.46977551  0.43695897  0.11687306  1  -0.65699  0  -0.233078  -0.260063  0  3.133636  0
N  N292  1  0.43695638  0.46976442  0.61688299  1  -0.656344  0  -0.232985  -0.260007  0  3.133688  0
N  N293  1  0.53022841  0.56304836  0.88312063  1  -0.656774  0  -0.232982  -0.259959  0  3.133841  0
N  N294  1  0.56849396  0.49324859  0.33460419  1  -0.695427  0  -0.215616  -0.186659  0  3.437686  0
N  N295  1  0.50675266  0.43150585  0.16539100  1  -0.695246  0  -0.215584  -0.186814  0  3.437391  0
N  N296  1  0.43150645  0.50674679  0.66539487  1  -0.695429  0  -0.215582  -0.186646  0  3.437726  0
N  N297  1  0.49324722  0.56849570  0.83460790  1  -0.695209  0  -0.215678  -0.186838  0  3.437628  0
N  N298  1  0.59597350  0.40402105  0.25000136  1  -1.162568  0  -0.296834  -0.264537  0  3.441475  0
N  N299  1  0.40402132  0.59597427  0.75000209  1  -1.162681  0  -0.296865  -0.264502  0  3.441777  0
O  O300  1  0.17464733  0.95954372  0.16368828  1  -1.141669  0  -0.336542  -0.532596  0  2.155092  0
O  O301  1  0.04045413  0.82534455  0.33631815  1  -1.14179  0  -0.336588  -0.532647  0  2.154986  0
O  O302  1  0.82535003  0.04046009  0.83631444  1  -1.14181  0  -0.336537  -0.532687  0  2.155228  0
O  O303  1  0.95954171  0.17465427  0.66368537  1  -1.141787  0  -0.33657  -0.532745  0  2.155178  0
O  O304  1  0.13989049  0.06402576  0.11400241  1  -1.187765  0  -0.347307  -0.577713  0  2.156383  0
O  O305  1  0.93597668  0.86010811  0.38599844  1  -1.187583  0  -0.347386  -0.577859  0  2.15663  0
O  O306  1  0.86010784  0.93598252  0.88599548  1  -1.18747  0  -0.347435  -0.577944  0  2.156415  0
O  O307  1  0.06401763  0.13989390  0.61400664  1  -1.187618  0  -0.347462  -0.577933  0  2.156261  0
O  O308  1  0.39900277  0.48956508  0.30641445  1  -1.140483  0  -0.34792  -0.550189  0  2.190041  0
O  O309  1  0.51043712  0.60098976  0.19358267  1  -1.140247  0  -0.347894  -0.55014  0  2.190104  0
O  O310  1  0.60099867  0.51043534  0.69358578  1  -1.140499  0  -0.347924  -0.550197  0  2.189982  0
O  O311  1  0.48956944  0.39900417  0.80641689  1  -1.140571  0  -0.347953  -0.550217  0  2.190165  0
O  O312  1  0.45093073  0.38735709  0.34465161  1  -1.166569  0  -0.356811  -0.576924  0  2.082052  0
O  O313  1  0.61264631  0.54906870  0.15534318  1  -1.16658  0  -0.356942  -0.577027  0  2.082011  0
O  O314  1  0.54906450  0.61263605  0.65534322  1  -1.166298  0  -0.356791  -0.576872  0  2.082078  0
O  O315  1  0.38735286  0.45092756  0.84463661  1  -1.166392  0  -0.356835  -0.576881  0  2.082134  0
O  O316  1  0.87284114  0.26947742  0.54180019  1  -1.137919  0  -0.345908  -0.54396  0  2.183004  0
O  O317  1  0.73052334  0.12716134  0.95819751  1  -1.137659  0  -0.345955  -0.544068  0  2.182952  0
O  O318  1  0.12715830  0.73052115  0.45820409  1  -1.137756  0  -0.345929  -0.544037  0  2.183309  0
O  O319  1  0.26948623  0.87285071  0.04179793  1  -1.137802  0  -0.346022  -0.543974  0  2.182887  0
O  O320  1  0.94071415  0.30880551  0.44598158  1  -1.174359  0  -0.355941  -0.577649  0  2.0941  0
O  O321  1  0.69121269  0.05928750  0.05402083  1  -1.174138  0  -0.355877  -0.577764  0  2.093953  0
O  O322  1  0.05929353  0.69120480  0.55402825  1  -1.174086  0  -0.355918  -0.577808  0  2.094179  0
O  O323  1  0.30880559  0.94071523  0.94597379  1  -1.17439  0  -0.355908  -0.577708  0  2.094059  0
