# generated using pymatgen
data_NaH22C17S(NO2)3
_symmetry_space_group_name_H-M   'P 1'
_cell_length_a   8.42432919
_cell_length_b   8.68667232
_cell_length_c   13.63659351
_cell_angle_alpha   100.90305825
_cell_angle_beta   101.32777024
_cell_angle_gamma   101.11514116
_symmetry_Int_Tables_number   1
_chemical_formula_structural   NaH22C17S(NO2)3
_chemical_formula_sum   'Na2 H44 C34 S2 N6 O12'
_cell_volume   933.01417816
_cell_formula_units_Z   2
loop_
 _symmetry_equiv_pos_site_id
 _symmetry_equiv_pos_as_xyz
  1  'x, y, z'
loop_
 _atom_site_type_symbol
 _atom_site_label
 _atom_site_symmetry_multiplicity
 _atom_site_fract_x
 _atom_site_fract_y
 _atom_site_fract_z
 _atom_site_occupancy
 _atom_site_pbe_bader_spin_density
 _atom_site_pbe_cm5_charge
 _atom_site_pbe_ddec_charge
 _atom_site_pbe_ddec_spin_density
 _atom_site_pbe_ddec_sum_bond_order
 _atom_site_pbe_magmom
Na  Na0  1  0.21079110  0.03388690  0.96612030  1  0  0.709956  0.836876  0  0.558982  0
Na  Na1  1  0.78920892  0.96611375  0.03387876  1  0  0.709958  0.836882  0  0.558962  0
H  H2  1  0.80352822  0.35799604  0.91890835  1  0  0.109373  0.118973  0  1.01598  0
H  H3  1  0.19646938  0.64200458  0.08109116  1  0  0.109368  0.11896  0  1.015989  0
H  H4  1  0.58696669  0.18124888  0.53948174  1  0  0.104406  0.107617  0  1.033981  0
H  H5  1  0.41303333  0.81875177  0.46051805  1  0  0.104421  0.107654  0  1.033933  0
H  H6  1  0.52256031  0.42468205  0.63657917  1  0  0.096734  0.099116  0  1.035258  0
H  H7  1  0.47743672  0.57531616  0.36341925  1  0  0.096733  0.099081  0  1.035243  0
H  H8  1  0.86039099  0.91519492  0.36323263  1  0  0.109598  0.120071  0  1.00676  0
H  H9  1  0.13961055  0.08480695  0.63676896  1  0  0.109622  0.120057  0  1.00681  0
H  H10  1  0.89872008  0.66411105  0.26939425  1  0  0.102701  0.108637  0  1.043131  0
H  H11  1  0.10128296  0.33589204  0.73060766  1  0  0.102702  0.108621  0  1.043127  0
H  H12  1  0.76172187  0.43012098  0.50620257  1  0  0.098723  0.1028  0  1.05157  0
H  H13  1  0.23828358  0.56988214  0.49379817  1  0  0.098732  0.102811  0  1.051636  0
H  H14  1  0.72898434  0.68776187  0.60007188  1  0  0.105016  0.107642  0  1.01739  0
H  H15  1  0.27101870  0.31224122  0.39993003  1  0  0.105043  0.107672  0  1.017436  0
H  H16  1  0.86561665  0.24889522  0.44303466  1  0  0.105046  0.086118  0  1.023761  0
H  H17  1  0.13438162  0.75110301  0.55696757  1  0  0.105044  0.086141  0  1.023791  0
H  H18  1  0.87178395  0.14476413  0.32041452  1  0  0.118765  0.116821  0  0.990815  0
H  H19  1  0.12821432  0.85523410  0.67958698  1  0  0.118752  0.116815  0  0.990835  0
H  H20  1  0.60783051  0.05548978  0.37396669  1  0  0.095535  0.058162  0  1.037599  0
H  H21  1  0.39216683  0.94450964  0.62603411  1  0  0.095548  0.058195  0  1.037603  0
H  H22  1  0.56054467  0.24601391  0.36898823  1  0  0.096503  0.056642  0  1.010031  0
H  H23  1  0.43945266  0.75398550  0.63101257  1  0  0.096491  0.05663  0  1.010088  0
H  H24  1  0.99969351  0.27698099  0.23845508  1  0  0.118846  0.112991  0  0.990857  0
H  H25  1  0.00030662  0.72301485  0.76154708  1  0  0.118831  0.112921  0  0.990924  0
H  H26  1  0.04214494  0.48998819  0.26276277  1  0  0.103925  0.085213  0  1.031499  0
H  H27  1  0.95785609  0.51000645  0.73723642  1  0  0.103916  0.085222  0  1.03145  0
H  H28  1  0.76316294  0.46443668  0.13979252  1  0  0.100538  0.063447  0  0.993646  0
H  H29  1  0.23683869  0.53556038  0.86020924  1  0  0.100537  0.063466  0  0.993595  0
H  H30  1  0.91099742  0.37970794  0.08353200  1  0  0.107785  0.08637  0  0.98773  0
H  H31  1  0.08900447  0.62029032  0.91646847  1  0  0.107796  0.086374  0  0.987726  0
H  H32  1  0.72641838  0.65260117  0.87836092  1  0  0.099685  0.145512  0  1.00891  0
H  H33  1  0.27357745  0.34739702  0.12163882  1  0  0.099733  0.145588  0  1.008953  0
H  H34  1  0.56597161  0.52070357  0.91013847  1  0  0.095887  0.134886  0  1.001066  0
H  H35  1  0.43402121  0.47929218  0.08986062  1  0  0.095911  0.134919  0  1.001075  0
H  H36  1  0.52236424  0.59642420  0.79751919  1  0  0.090341  0.128498  0  1.013294  0
H  H37  1  0.47762915  0.40357396  0.20247952  1  0  0.090381  0.128555  0  1.013265  0
H  H38  1  0.43587169  0.09840354  0.20989359  1  0  0.300792  0.348218  0  0.995791  0
H  H39  1  0.56413169  0.90159594  0.79010646  1  0  0.300771  0.348215  0  0.995775  0
H  H40  1  0.65405918  0.18564623  0.15022112  1  0  0.299789  0.330945  0  1.01644  0
H  H41  1  0.34594122  0.81435081  0.84977902  1  0  0.299781  0.330928  0  1.016437  0
H  H42  1  0.55144488  0.19558707  0.98824965  1  0  0.285884  0.36972  0  0.976935  0
H  H43  1  0.44855580  0.80441118  0.01174994  1  0  0.285874  0.369696  0  0.976973  0
H  H44  1  0.46084187  0.11296104  0.87177806  1  0  0.29404  0.378862  0  0.948674  0
H  H45  1  0.53915703  0.88703478  0.12822175  1  0  0.294024  0.378779  0  0.948761  0
C  C46  1  0.65751603  0.40970342  0.78491992  1  0  -0.003458  0.179886  0  3.963011  0
C  C47  1  0.34247921  0.59029235  0.21507799  1  0  -0.003426  0.179958  0  3.962938  0
C  C48  1  0.75505740  0.32107897  0.83570989  1  0  -0.087177  -0.15525  0  3.965019  0
C  C49  1  0.24494020  0.67892165  0.16429036  1  0  -0.087173  -0.155253  0  3.964995  0
C  C50  1  0.78790871  0.18310929  0.78150504  1  0  -0.018297  -0.159722  0  3.970701  0
C  C51  1  0.21209160  0.81689256  0.21849494  1  0  -0.018303  -0.159729  0  3.97069  0
C  C52  1  0.72884279  0.13103981  0.67346165  1  0  0.088648  0.154386  0  4.07982  0
C  C53  1  0.27115753  0.86896205  0.32653833  1  0  0.088598  0.154309  0  4.079821  0
C  C54  1  0.63702602  0.22348848  0.62236504  1  0  -0.087987  -0.14959  0  3.96573  0
C  C55  1  0.36297278  0.77651216  0.37763314  1  0  -0.087992  -0.149627  0  3.965765  0
C  C56  1  0.60054427  0.35903535  0.67757954  1  0  -0.090034  -0.129987  0  3.955752  0
C  C57  1  0.39945182  0.64096404  0.32241818  1  0  -0.09  -0.129922  0  3.955653  0
C  C58  1  0.78863586  0.81914445  0.48714794  1  0  0.069311  0.123269  0  4.092131  0
C  C59  1  0.21136836  0.18085866  0.51285118  1  0  0.069319  0.123289  0  4.092147  0
C  C60  1  0.83744402  0.80811087  0.39366355  1  0  -0.076159  -0.105239  0  3.972079  0
C  C61  1  0.16255777  0.19189220  0.60633528  1  0  -0.076201  -0.105242  0  3.97209  0
C  C62  1  0.86045564  0.66523127  0.34098607  1  0  -0.107887  -0.1971  0  3.994312  0
C  C63  1  0.13954496  0.33477180  0.65901409  1  0  -0.107941  -0.197136  0  3.99401  0
C  C64  1  0.83258316  0.52306795  0.37864844  1  0  0.107454  0.188891  0  4.025733  0
C  C65  1  0.16741256  0.47693505  0.62134894  1  0  0.107551  0.189003  0  4.025593  0
C  C66  1  0.78173545  0.53483128  0.47320391  1  0  -0.103419  -0.187615  0  3.983001  0
C  C67  1  0.21826906  0.46517303  0.52679612  1  0  -0.103414  -0.187599  0  3.983072  0
C  C68  1  0.76275612  0.67939008  0.52637271  1  0  -0.083218  -0.121681  0  3.973431  0
C  C69  1  0.23724933  0.32061304  0.47362802  1  0  -0.083274  -0.12177  0  3.973542  0
C  C70  1  0.81243760  0.23126872  0.36005455  1  0  -0.06726  -0.122811  0  3.911474  0
C  C71  1  0.18756151  0.76873313  0.63994675  1  0  -0.067273  -0.122866  0  3.911599  0
C  C72  1  0.62609163  0.15772480  0.33716131  1  0  -0.078655  0.051897  0  3.908664  0
C  C73  1  0.37390570  0.84227462  0.66283949  1  0  -0.078649  0.051889  0  3.908754  0
C  C74  1  0.94117002  0.37984687  0.24304746  1  0  -0.066063  -0.125647  0  3.909492  0
C  C75  1  0.05883132  0.62014898  0.75695412  1  0  -0.066017  -0.12552  0  3.909464  0
C  C76  1  0.83058969  0.36746084  0.13738535  1  0  -0.074789  0.057418  0  3.905493  0
C  C77  1  0.16941043  0.63253500  0.86261535  1  0  -0.074792  0.057409  0  3.905501  0
C  C78  1  0.61536881  0.55227134  0.84578628  1  0  -0.234889  -0.411078  0  3.924525  0
C  C79  1  0.38462550  0.44772563  0.15421167  1  0  -0.235036  -0.411289  0  3.924637  0
S  S80  1  0.89404433  0.06375719  0.85060555  1  0  0.459769  1.154723  0  6.252221  0
S  S81  1  0.10595718  0.93624468  0.14939311  1  0  0.459819  1.154801  0  6.25213  0
N  N82  1  0.75222424  0.98219299  0.62598945  1  0  -0.170485  -0.158334  0  3.3427  0
N  N83  1  0.24777542  0.01781127  0.37401074  1  0  -0.170468  -0.158283  0  3.342612  0
N  N84  1  0.77225442  0.97010675  0.53479928  1  0  -0.154661  -0.133641  0  3.332269  0
N  N85  1  0.22774710  0.02989512  0.46520084  1  0  -0.154635  -0.133627  0  3.332268  0
N  N86  1  0.85546731  0.38101231  0.32659169  1  0  -0.278754  -0.056402  0  3.601324  0
N  N87  1  0.14453451  0.61899077  0.67341008  1  0  -0.278758  -0.056492  0  3.601455  0
O  O88  1  0.96505130  0.16058955  0.95727459  1  0  -0.413178  -0.681731  0  2.214189  0
O  O89  1  0.03494994  0.83941111  0.04272462  1  0  -0.413185  -0.681762  0  2.2142  0
O  O90  1  0.76134830  0.92178609  0.84912632  1  0  -0.385291  -0.656521  0  2.274414  0
O  O91  1  0.23865350  0.07821698  0.15087251  1  0  -0.385267  -0.656519  0  2.274445  0
O  O92  1  0.02381577  0.01975449  0.80134375  1  0  -0.373227  -0.612446  0  2.204118  0
O  O93  1  0.97618454  0.98024736  0.19865550  1  0  -0.373293  -0.61251  0  2.204013  0
O  O94  1  0.55783365  0.10222354  0.22764486  1  0  -0.389419  -0.487338  0  2.362838  0
O  O95  1  0.44216732  0.89777592  0.77235563  1  0  -0.389392  -0.487321  0  2.36278  0
O  O96  1  0.71389391  0.21324125  0.09653912  1  0  -0.455043  -0.544371  0  2.382856  0
O  O97  1  0.28610649  0.78675579  0.90346102  1  0  -0.455065  -0.544393  0  2.382899  0
O  O98  1  0.44613480  0.17698521  0.93524575  1  0  -0.675713  -0.818098  0  1.918563  0
O  O99  1  0.55386588  0.82301303  0.06475383  1  0  -0.675693  -0.817988  0  1.91873  0
