# generated using pymatgen
data_CdH10C16S(NO2)2
_symmetry_space_group_name_H-M   'P 1'
_cell_length_a   9.66101180
_cell_length_b   9.67380618
_cell_length_c   19.38460000
_cell_angle_alpha   90.00000000
_cell_angle_beta   90.00000000
_cell_angle_gamma   105.13447342
_symmetry_Int_Tables_number   1
_chemical_formula_structural   CdH10C16S(NO2)2
_chemical_formula_sum   'Cd4 H40 C64 S4 N8 O16'
_cell_volume   1748.82444781
_cell_formula_units_Z   4
loop_
 _symmetry_equiv_pos_site_id
 _symmetry_equiv_pos_as_xyz
  1  'x, y, z'
loop_
 _atom_site_type_symbol
 _atom_site_label
 _atom_site_symmetry_multiplicity
 _atom_site_fract_x
 _atom_site_fract_y
 _atom_site_fract_z
 _atom_site_occupancy
 _atom_site_hle17_bader_spin_density
 _atom_site_hle17_ddec_charge
 _atom_site_hle17_ddec_spin_density
 _atom_site_hle17_ddec_sum_bond_order
 _atom_site_hle17_magmom
 _atom_site_hse06_10hf_bader_spin_density
 _atom_site_hse06_10hf_ddec_charge
 _atom_site_hse06_10hf_ddec_spin_density
 _atom_site_hse06_10hf_ddec_sum_bond_order
 _atom_site_hse06_10hf_magmom
 _atom_site_hse06_bader_spin_density
 _atom_site_hse06_ddec_charge
 _atom_site_hse06_ddec_spin_density
 _atom_site_hse06_ddec_sum_bond_order
 _atom_site_hse06_magmom
 _atom_site_pbe_bader_charge
 _atom_site_pbe_bader_spin_density
 _atom_site_pbe_cm5_charge
 _atom_site_pbe_ddec_charge
 _atom_site_pbe_ddec_spin_density
 _atom_site_pbe_ddec_sum_bond_order
 _atom_site_pbe_magmom
Cd  Cd0  1  0.89290265  0.10706900  0.55554306  1  0  1.113601  0  1.743902  0  0  0.919741  0  2.202961  0  0  0.977936  0  2.150137  0  1.284471  0  0.777127  0.878168  0  2.2403  0
Cd  Cd1  1  0.60709839  0.39293222  0.05554306  1  0  1.113611  0  1.743877  0  0  0.919755  0  2.202934  0  0  0.977952  0  2.15011  0  1.28448  0  0.777135  0.878183  0  2.240274  0
Cd  Cd2  1  0.10709820  0.89293130  0.44445694  1  0  1.113575  0  1.743893  0  0  0.919715  0  2.202949  0  0  0.977911  0  2.150125  0  1.284475  0  0.777122  0.878142  0  2.240289  0
Cd  Cd3  1  0.39290142  0.60706808  0.94445694  1  0  1.113596  0  1.743866  0  0  0.919728  0  2.202922  0  0  0.977925  0  2.150098  0  1.284475  0  0.777126  0.878156  0  2.240261  0
H  H4  1  0.75208359  0.84308806  0.65699885  1  0  0.084331  0  0.92773  0  0  0.095738  0  0.984925  0  0  0.097808  0  0.983533  0  0.097068  0  0.119284  0.094434  0  0.985765  0
H  H5  1  0.74791716  0.65691239  0.15699834  1  0  0.084337  0  0.927722  0  0  0.095742  0  0.984916  0  0  0.097812  0  0.983525  0  0.09708  0  0.119288  0.094437  0  0.985757  0
H  H6  1  0.84297532  0.75190743  0.34306099  1  0  0.084029  0  0.928336  0  0  0.095504  0  0.985485  0  0  0.097545  0  0.984121  0  0.099358  0  0.11925  0.09419  0  0.986327  0
H  H7  1  0.65702440  0.74809302  0.84306099  1  0  0.084064  0  0.928392  0  0  0.095549  0  0.985529  0  0  0.097582  0  0.984172  0  0.099361  0  0.11928  0.094234  0  0.986371  0
H  H8  1  0.24791650  0.15691331  0.34300166  1  0  0.084321  0  0.92774  0  0  0.095731  0  0.984932  0  0  0.0978  0  0.983541  0  0.097078  0  0.119287  0.094427  0  0.985772  0
H  H9  1  0.25208368  0.34308791  0.84300166  1  0  0.084318  0  0.927715  0  0  0.095723  0  0.984913  0  0  0.097792  0  0.983523  0  0.097061  0  0.119289  0.094419  0  0.985753  0
H  H10  1  0.15702525  0.24809180  0.65693901  1  0  0.084012  0  0.928345  0  0  0.095489  0  0.985496  0  0  0.097527  0  0.984132  0  0.099355  0  0.119242  0.094174  0  0.986338  0
H  H11  1  0.34297569  0.25190835  0.15693850  1  0  0.084063  0  0.928395  0  0  0.095548  0  0.98553  0  0  0.097581  0  0.984175  0  0.099359  0  0.119279  0.094233  0  0.986373  0
H  H12  1  0.54439906  0.63034111  0.66389092  1  0  0.10485  0  0.962399  0  0  0.117639  0  1.020872  0  0  0.120239  0  1.020122  0  0.088538  0  0.107528  0.115986  0  1.021169  0
H  H13  1  0.95560169  0.86965935  0.16389144  1  0  0.104846  0  0.962406  0  0  0.117635  0  1.020877  0  0  0.120235  0  1.020127  0  0.088526  0  0.107515  0.115982  0  1.021173  0
H  H14  1  0.63020542  0.54427599  0.33607709  1  0  0.104979  0  0.962125  0  0  0.117734  0  1.020688  0  0  0.120327  0  1.01994  0  0.083556  0  0.107616  0.116079  0  1.020982  0
H  H15  1  0.86979402  0.95572340  0.83607761  1  0  0.104992  0  0.962151  0  0  0.117736  0  1.020724  0  0  0.120326  0  1.019973  0  0.083572  0  0.107609  0.116051  0  1.021053  0
H  H16  1  0.45560075  0.36965919  0.33610908  1  0  0.104832  0  0.962412  0  0  0.117619  0  1.020887  0  0  0.120218  0  1.020139  0  0.088537  0  0.107517  0.115964  0  1.021187  0
H  H17  1  0.04439887  0.13033989  0.83610908  1  0  0.104854  0  0.962386  0  0  0.117642  0  1.020858  0  0  0.120241  0  1.020108  0  0.08853  0  0.107527  0.115989  0  1.021154  0
H  H18  1  0.36979439  0.45572432  0.66392291  1  0  0.104981  0  0.962138  0  0  0.117737  0  1.020701  0  0  0.120326  0  1.019951  0  0.083561  0  0.107611  0.116059  0  1.021022  0
H  H19  1  0.13020683  0.04427690  0.16392239  1  0  0.104991  0  0.962163  0  0  0.117735  0  1.020734  0  0  0.120325  0  1.019984  0  0.083574  0  0.107609  0.116051  0  1.021063  0
H  H20  1  0.42432838  0.73951757  0.45912477  1  0  0.124537  0  0.979394  0  0  0.133086  0  1.039822  0  0  0.137202  0  1.037336  0  0.148868  0  0.110785  0.13025  0  1.041703  0
H  H21  1  0.07567359  0.76048289  0.95912477  1  0  0.124536  0  0.979395  0  0  0.133086  0  1.03982  0  0  0.137201  0  1.037335  0  0.148863  0  0.110779  0.130249  0  1.041701  0
H  H22  1  0.73962036  0.42445088  0.54084789  1  0  0.124605  0  0.979233  0  0  0.133107  0  1.039755  0  0  0.13722  0  1.037272  0  0.142389  0  0.110769  0.130277  0  1.041616  0
H  H23  1  0.76037908  0.07554820  0.04084841  1  0  0.124617  0  0.97926  0  0  0.133109  0  1.039782  0  0  0.137222  0  1.0373  0  0.142379  0  0.110766  0.13028  0  1.041641  0
H  H24  1  0.57567350  0.26048274  0.54087523  1  0  0.124515  0  0.979408  0  0  0.133062  0  1.039845  0  0  0.137177  0  1.037359  0  0.148857  0  0.110772  0.130226  0  1.041725  0
H  H25  1  0.92432698  0.23951634  0.04087523  1  0  0.124517  0  0.979409  0  0  0.133061  0  1.039843  0  0  0.137176  0  1.037356  0  0.148857  0  0.110771  0.130225  0  1.041722  0
H  H26  1  0.26037945  0.57554942  0.45915211  1  0  0.124628  0  0.979201  0  0  0.133096  0  1.039753  0  0  0.137209  0  1.037271  0  0.142381  0  0.110776  0.130268  0  1.041609  0
H  H27  1  0.23962148  0.92445104  0.95915159  1  0  0.124637  0  0.979201  0  0  0.133105  0  1.039753  0  0  0.137217  0  1.037272  0  0.142378  0  0.110771  0.130277  0  1.04161  0
H  H28  1  0.63555290  0.94714901  0.46252799  1  0  0.082132  0  0.940899  0  0  0.091875  0  1.000298  0  0  0.093996  0  0.999034  0  0.114567  0  0.117645  0.09047  0  1.001111  0
H  H29  1  0.86444785  0.55285144  0.96252799  1  0  0.082119  0  0.940892  0  0  0.091864  0  1.000289  0  0  0.093985  0  0.999025  0  0.114569  0  0.117645  0.090458  0  1.001102  0
H  H30  1  0.94732546  0.63566115  0.53752154  1  0  0.082773  0  0.941015  0  0  0.092312  0  1.000513  0  0  0.094435  0  0.999246  0  0.112997  0  0.117806  0.090905  0  1.001331  0
H  H31  1  0.55267397  0.86433824  0.03752205  1  0  0.082655  0  0.941022  0  0  0.092233  0  1.000493  0  0  0.094357  0  0.999224  0  0.112995  0  0.117766  0.090826  0  1.00131  0
H  H32  1  0.36444691  0.05285129  0.53747201  1  0  0.082191  0  0.940848  0  0  0.091892  0  1.000289  0  0  0.094014  0  0.999024  0  0.114563  0  0.117655  0.090486  0  1.001102  0
H  H33  1  0.13555196  0.44714886  0.03747201  1  0  0.082191  0  0.940838  0  0  0.091897  0  1.000275  0  0  0.094018  0  0.999012  0  0.114568  0  0.117656  0.090491  0  1.001088  0
H  H34  1  0.05267510  0.36433808  0.46247846  1  0  0.082716  0  0.940995  0  0  0.092252  0  1.000505  0  0  0.094376  0  0.999237  0  0.113008  0  0.117769  0.090845  0  1.001323  0
H  H35  1  0.44732584  0.13566207  0.96247846  1  0  0.082667  0  0.941019  0  0  0.092245  0  1.000488  0  0  0.09437  0  0.999219  0  0.113002  0  0.117771  0.090838  0  1.001305  0
H  H36  1  0.51105197  0.48895529  0.78714959  1  0  0.124946  0  0.964248  0  0  0.132632  0  1.031979  0  0  0.136429  0  1.028473  0  0.100248  0  0.104196  0.129856  0  1.034622  0
H  H37  1  0.98894644  0.01104379  0.28714959  1  0  0.124942  0  0.96426  0  0  0.132628  0  1.031993  0  0  0.136425  0  1.028485  0  0.100331  0  0.1042  0.129852  0  1.034636  0
H  H38  1  0.48894653  0.51104395  0.21284989  1  0  0.124951  0  0.964248  0  0  0.132636  0  1.031979  0  0  0.136433  0  1.028474  0  0.100248  0  0.104193  0.129861  0  1.034622  0
H  H39  1  0.01105337  0.98895651  0.71285041  1  0  0.124944  0  0.96426  0  0  0.132628  0  1.031995  0  0  0.136425  0  1.02849  0  0.10033  0  0.104194  0.129852  0  1.034637  0
H  H40  1  0.59546110  0.40454571  0.66553759  1  0  0.10452  0  0.96316  0  0  0.113278  0  1.029665  0  0  0.116497  0  1.027894  0  0.062172  0  0.101772  0.110938  0  1.030912  0
H  H41  1  0.90453730  0.09545337  0.16553759  1  0  0.104522  0  0.963129  0  0  0.113289  0  1.029626  0  0  0.116506  0  1.027858  0  0.062169  0  0.101795  0.110961  0  1.03086  0
H  H42  1  0.40453739  0.59545352  0.33446241  1  0  0.104525  0  0.963149  0  0  0.113287  0  1.029645  0  0  0.116504  0  1.027878  0  0.06217  0  0.101782  0.110952  0  1.030889  0
H  H43  1  0.09546251  0.90454694  0.83446241  1  0  0.104521  0  0.963131  0  0  0.113288  0  1.029627  0  0  0.116504  0  1.02786  0  0.062167  0  0.101794  0.110959  0  1.030862  0
C  C44  1  0.67704511  0.81412662  0.61409057  1  0  0.129266  0  3.722557  0  0  0.099932  0  3.970933  0  0  0.106441  0  3.990609  0  0.497292  0  0.047616  0.095565  0  3.957386  0
C  C45  1  0.82295564  0.68587384  0.11409057  1  0  0.129288  0  3.722514  0  0  0.099969  0  3.970885  0  0  0.106476  0  3.990563  0  0.497453  0  0.047634  0.095602  0  3.957339  0
C  C46  1  0.81404567  0.67693001  0.38595328  1  0  0.130493  0  3.723265  0  0  0.101074  0  3.971595  0  0  0.107615  0  3.99128  0  0.497534  0  0.047908  0.096718  0  3.958032  0
C  C47  1  0.68595480  0.82306938  0.88595328  1  0  0.130504  0  3.723317  0  0  0.101067  0  3.971639  0  0  0.107613  0  3.991327  0  0.497648  0  0.047897  0.096713  0  3.958068  0
C  C48  1  0.32295442  0.18587262  0.38590995  1  0  0.129273  0  3.722604  0  0  0.099933  0  3.970992  0  0  0.106442  0  3.990668  0  0.497295  0  0.047594  0.095565  0  3.957445  0
C  C49  1  0.17704521  0.31412647  0.88590995  1  0  0.12927  0  3.722534  0  0  0.099936  0  3.970916  0  0  0.106445  0  3.990593  0  0.497322  0  0.047581  0.095568  0  3.95737  0
C  C50  1  0.18595414  0.32307030  0.61404723  1  0  0.130526  0  3.723248  0  0  0.101104  0  3.971581  0  0  0.107647  0  3.991267  0  0.497525  0  0.047906  0.09675  0  3.958012  0
C  C51  1  0.31404501  0.17693092  0.11404672  1  0  0.130493  0  3.723325  0  0  0.101056  0  3.971649  0  0  0.107603  0  3.991336  0  0.497646  0  0.047896  0.096702  0  3.958078  0
C  C52  1  0.56047338  0.69434114  0.61699855  1  0  -0.162921  0  3.720475  0  0  -0.183259  0  3.971877  0  0  -0.19065  0  3.993747  0  -0.046823  0  -0.082258  -0.178148  0  3.956638  0
C  C53  1  0.93952662  0.80566039  0.11699855  1  0  -0.162944  0  3.72049  0  0  -0.183279  0  3.971892  0  0  -0.190671  0  3.993758  0  -0.046832  0  -0.082256  -0.17817  0  3.956651  0
C  C54  1  0.69423668  0.56036139  0.38299320  1  0  -0.163562  0  3.720004  0  0  -0.1839  0  3.97138  0  0  -0.191295  0  3.993247  0  -0.047621  0  -0.082507  -0.178779  0  3.956138  0
C  C55  1  0.80576276  0.93963799  0.88299372  1  0  -0.163587  0  3.720104  0  0  -0.183925  0  3.971484  0  0  -0.19131  0  3.993336  0  -0.047636  0  -0.082527  -0.178779  0  3.956254  0
C  C56  1  0.43952643  0.30565917  0.38300145  1  0  -0.16293  0  3.720512  0  0  -0.183266  0  3.971917  0  0  -0.190657  0  3.993783  0  -0.046814  0  -0.082257  -0.178158  0  3.95668  0
C  C57  1  0.06047319  0.19433992  0.88300145  1  0  -0.162941  0  3.720465  0  0  -0.183278  0  3.971873  0  0  -0.190667  0  3.993737  0  -0.046794  0  -0.082254  -0.178168  0  3.956633  0
C  C58  1  0.30576210  0.43963891  0.61700680  1  0  -0.163598  0  3.720011  0  0  -0.183944  0  3.971395  0  0  -0.19133  0  3.993255  0  -0.047622  0  -0.08251  -0.178804  0  3.956164  0
C  C59  1  0.19423705  0.06036231  0.11700628  1  0  -0.163593  0  3.720112  0  0  -0.18393  0  3.971496  0  0  -0.191316  0  3.993348  0  -0.047638  0  -0.08253  -0.178787  0  3.956267  0
C  C60  1  0.46558467  0.66049657  0.56081477  1  0  0.097303  0  3.732875  0  0  0.105278  0  3.97184  0  0  0.109253  0  3.992776  0  0.071142  0  0.014561  0.102833  0  3.957325  0
C  C61  1  0.03441419  0.83950389  0.06081374  1  0  0.097305  0  3.732885  0  0  0.105276  0  3.971829  0  0  0.109254  0  3.992764  0  0.071142  0  0.014562  0.102832  0  3.957314  0
C  C62  1  0.66047470  0.46556554  0.43917491  1  0  0.097871  0  3.732736  0  0  0.106028  0  3.971477  0  0  0.109999  0  3.992406  0  -0.020169  0  0.014768  0.103577  0  3.956978  0
C  C63  1  0.83952550  0.03443248  0.93917491  1  0  0.097941  0  3.732774  0  0  0.106117  0  3.971472  0  0  0.110089  0  3.992399  0  -0.020151  0  0.014834  0.103664  0  3.956969  0
C  C64  1  0.53441513  0.33950374  0.43918575  1  0  0.097298  0  3.732913  0  0  0.105275  0  3.971861  0  0  0.109252  0  3.992797  0  0.071149  0  0.01457  0.10283  0  3.957346  0
C  C65  1  0.96558534  0.16049534  0.93918626  1  0  0.097282  0  3.732902  0  0  0.105251  0  3.971852  0  0  0.109224  0  3.992791  0  0.071086  0  0.014551  0.102806  0  3.957338  0
C  C66  1  0.33952483  0.53443370  0.56082509  1  0  0.09788  0  3.732738  0  0  0.106043  0  3.971469  0  0  0.110012  0  3.992399  0  -0.020198  0  0.014767  0.103589  0  3.956966  0
C  C67  1  0.16047535  0.96556783  0.06082509  1  0  0.097948  0  3.732738  0  0  0.106121  0  3.971434  0  0  0.110091  0  3.992362  0  -0.020059  0  0.014833  0.103669  0  3.95693  0
C  C68  1  0.49452965  0.75377716  0.50397429  1  0  -0.135934  0  3.658702  0  0  -0.155409  0  3.907596  0  0  -0.162167  0  3.92725  0  -0.057525  0  -0.074913  -0.150766  0  3.894008  0
C  C69  1  0.00547025  0.74622330  0.00397429  1  0  -0.13597  0  3.658726  0  0  -0.155432  0  3.907605  0  0  -0.162192  0  3.927259  0  -0.057534  0  -0.074918  -0.15079  0  3.894017  0
C  C70  1  0.75385696  0.49459016  0.49601746  1  0  -0.13627  0  3.659113  0  0  -0.155866  0  3.908124  0  0  -0.162633  0  3.92778  0  -0.045928  0  -0.075104  -0.151201  0  3.894517  0
C  C71  1  0.74614351  0.00540892  0.99601849  1  0  -0.136378  0  3.659127  0  0  -0.155973  0  3.908162  0  0  -0.16274  0  3.927818  0  -0.045896  0  -0.075146  -0.151307  0  3.894556  0
C  C72  1  0.50547016  0.24622315  0.49602623  1  0  -0.135914  0  3.658735  0  0  -0.155384  0  3.907616  0  0  -0.162144  0  3.927272  0  -0.057529  0  -0.074906  -0.150742  0  3.894028  0
C  C73  1  0.99452928  0.25377593  0.99602623  1  0  -0.135941  0  3.658742  0  0  -0.155403  0  3.907621  0  0  -0.162159  0  3.927272  0  -0.057545  0  -0.074928  -0.150761  0  3.894032  0
C  C74  1  0.24614388  0.50541014  0.50398203  1  0  -0.136309  0  3.659083  0  0  -0.155877  0  3.908099  0  0  -0.162642  0  3.927756  0  -0.045909  0  -0.075124  -0.151211  0  3.894493  0
C  C75  1  0.25385630  0.99459138  0.00398151  1  0  -0.136401  0  3.659088  0  0  -0.155977  0  3.908132  0  0  -0.162743  0  3.927787  0  -0.045996  0  -0.075157  -0.151312  0  3.894526  0
C  C76  1  0.61264851  0.87164901  0.50538623  1  0  0.133188  0  3.703926  0  0  0.103252  0  3.955205  0  0  0.109823  0  3.974433  0  0.489576  0  0.04809  0.098882  0  3.941779  0
C  C77  1  0.88735196  0.62835038  0.00538675  1  0  0.133205  0  3.703932  0  0  0.103272  0  3.955219  0  0  0.109841  0  3.974446  0  0.489576  0  0.048072  0.0989  0  3.941793  0
C  C78  1  0.87173760  0.61270295  0.49465761  1  0  0.132916  0  3.70432  0  0  0.103217  0  3.955497  0  0  0.109799  0  3.974716  0  0.49026  0  0.048152  0.098834  0  3.942073  0
C  C79  1  0.62826287  0.88729643  0.99465710  1  0  0.133072  0  3.704329  0  0  0.103326  0  3.955497  0  0  0.109907  0  3.974718  0  0.490273  0  0.048172  0.098943  0  3.942073  0
C  C80  1  0.38735102  0.12835023  0.49461377  1  0  0.133116  0  3.703928  0  0  0.103212  0  3.955206  0  0  0.10978  0  3.974433  0  0.489576  0  0.048069  0.098841  0  3.94178  0
C  C81  1  0.11264757  0.37164885  0.99461377  1  0  0.133138  0  3.703904  0  0  0.103224  0  3.955179  0  0  0.109792  0  3.974407  0  0.489572  0  0.048081  0.098853  0  3.941753  0
C  C82  1  0.12826325  0.38729735  0.50534290  1  0  0.132958  0  3.70434  0  0  0.103258  0  3.955499  0  0  0.10984  0  3.974719  0  0.490275  0  0.048169  0.098875  0  3.942075  0
C  C83  1  0.37173694  0.11270387  0.00534290  1  0  0.133045  0  3.704347  0  0  0.103304  0  3.955506  0  0  0.109885  0  3.974726  0  0.490274  0  0.048168  0.09892  0  3.942082  0
C  C84  1  0.62288883  0.37713916  0.90987279  1  0  0.638037  0  4.001987  0  0  0.588268  0  4.29441  0  0  0.623915  0  4.285441  0  1.564101  0  0.186033  0.563861  0  4.299727  0
C  C85  1  0.87711193  0.12286099  0.40987279  1  0  0.638048  0  4.00199  0  0  0.588282  0  4.294405  0  0  0.62393  0  4.285434  0  1.564105  0  0.186051  0.563876  0  4.299722  0
C  C86  1  0.37711098  0.62286115  0.09012721  1  0  0.638068  0  4.001978  0  0  0.588301  0  4.294395  0  0  0.623948  0  4.285425  0  1.564107  0  0.186042  0.563894  0  4.299712  0
C  C87  1  0.12288892  0.87713931  0.59012721  1  0  0.638047  0  4.001993  0  0  0.588282  0  4.294407  0  0  0.623929  0  4.285438  0  1.564104  0  0.186036  0.563875  0  4.299724  0
C  C88  1  0.63943045  0.36057293  0.83527955  1  0  -0.155008  0  3.766247  0  0  -0.136355  0  4.031905  0  0  -0.143665  0  4.051943  0  -0.181577  0  -0.032685  -0.13118  0  4.018089  0
C  C89  1  0.86056926  0.13942722  0.33527955  1  0  -0.155024  0  3.766268  0  0  -0.136371  0  4.031927  0  0  -0.143683  0  4.051965  0  -0.181579  0  -0.032695  -0.131196  0  4.01811  0
C  C90  1  0.36056935  0.63942737  0.16472045  1  0  -0.155054  0  3.76631  0  0  -0.136401  0  4.031969  0  0  -0.143714  0  4.052008  0  -0.181589  0  -0.032703  -0.131226  0  4.018152  0
C  C91  1  0.13943055  0.86057309  0.66472045  1  0  -0.155017  0  3.766263  0  0  -0.136363  0  4.031918  0  0  -0.143675  0  4.051957  0  -0.181584  0  -0.032686  -0.131188  0  4.018101  0
C  C92  1  0.58158759  0.41842622  0.78014867  1  0  -0.096848  0  3.752316  0  0  -0.12518  0  4.011391  0  0  -0.124657  0  4.029692  0  0.008426  0  -0.105196  -0.125444  0  3.998776  0
C  C93  1  0.91841185  0.08157286  0.28014867  1  0  -0.096854  0  3.752343  0  0  -0.125183  0  4.011415  0  0  -0.124661  0  4.029716  0  0.008339  0  -0.105192  -0.125448  0  3.998803  0
C  C94  1  0.41841194  0.58157302  0.21985081  1  0  -0.09686  0  3.752342  0  0  -0.125191  0  4.011416  0  0  -0.124668  0  4.029717  0  0.008427  0  -0.105192  -0.125457  0  3.998802  0
C  C95  1  0.08158768  0.91842637  0.71985133  1  0  -0.096874  0  3.752353  0  0  -0.125203  0  4.011424  0  0  -0.12468  0  4.029724  0  0.008338  0  -0.105206  -0.125467  0  3.99881  0
C  C96  1  0.62574566  0.37426068  0.71629799  1  0  -0.094366  0  3.769835  0  0  -0.123029  0  4.028348  0  0  -0.12348  0  4.047235  0  -0.038566  0  -0.106598  -0.12288  0  4.01576  0
C  C97  1  0.87425378  0.12573840  0.21629799  1  0  -0.094351  0  3.769819  0  0  -0.123026  0  4.028336  0  0  -0.123476  0  4.047223  0  -0.038571  0  -0.10663  -0.122887  0  4.015742  0
C  C98  1  0.37425387  0.62573855  0.28370201  1  0  -0.094358  0  3.769807  0  0  -0.123022  0  4.028317  0  0  -0.123472  0  4.047204  0  -0.03856  0  -0.106596  -0.122878  0  4.015728  0
C  C99  1  0.12574603  0.87426191  0.78370201  1  0  -0.094356  0  3.769828  0  0  -0.123028  0  4.02834  0  0  -0.123478  0  4.047227  0  -0.038574  0  -0.106632  -0.122889  0  4.015748  0
C  C100  1  0.71564005  0.28436080  0.72387307  1  0  -0.136569  0  3.752294  0  0  -0.115503  0  4.008816  0  0  -0.121169  0  4.027798  0  -0.224269  0  -0.027515  -0.112138  0  3.996551  0
C  C101  1  0.78436070  0.21563935  0.22387307  1  0  -0.136553  0  3.752296  0  0  -0.115479  0  4.008808  0  0  -0.121146  0  4.02779  0  -0.224058  0  -0.027494  -0.112115  0  3.996546  0
C  C102  1  0.28435948  0.71563843  0.27612693  1  0  -0.136565  0  3.752265  0  0  -0.11549  0  4.00878  0  0  -0.121157  0  4.027763  0  -0.224077  0  -0.027524  -0.112126  0  3.996517  0
C  C103  1  0.21564043  0.78436203  0.77612693  1  0  -0.136563  0  3.75231  0  0  -0.11549  0  4.008824  0  0  -0.121157  0  4.027806  0  -0.224072  0  -0.027499  -0.112127  0  3.996563  0
C  C104  1  0.78207778  0.21791386  0.66889902  1  0  0.6379  0  3.996437  0  0  0.592109  0  4.283881  0  0  0.626769  0  4.276457  0  1.572145  0  0.181789  0.568807  0  4.288228  0
C  C105  1  0.71792194  0.28208629  0.16889851  1  0  0.637849  0  3.996532  0  0  0.592057  0  4.283974  0  0  0.626716  0  4.276552  0  1.572181  0  0.18177  0.568754  0  4.288321  0
C  C106  1  0.21792278  0.78208538  0.33110149  1  0  0.637908  0  3.996227  0  0  0.592112  0  4.283679  0  0  0.626769  0  4.276259  0  1.572168  0  0.181833  0.568809  0  4.288027  0
C  C107  1  0.28207787  0.71791401  0.83110098  1  0  0.637831  0  3.996543  0  0  0.592039  0  4.283982  0  0  0.626699  0  4.276563  0  1.572147  0  0.181771  0.568737  0  4.28833  0
S  S108  1  0.74610815  0.25388302  0.80865636  1  0  0.182546  0  2.680552  0  0  0.176081  0  2.992141  0  0  0.177003  0  3.001967  0  0.295271  0  0.105642  0.17503  0  2.985893  0
S  S109  1  0.75389129  0.24611606  0.30865636  1  0  0.182559  0  2.680533  0  0  0.176092  0  2.992123  0  0  0.177016  0  3.001949  0  0.295074  0  0.105644  0.175041  0  2.985875  0
S  S110  1  0.25389138  0.74611621  0.19134364  1  0  0.182564  0  2.680543  0  0  0.176099  0  2.992129  0  0  0.177023  0  3.001954  0  0.29508  0  0.105645  0.175048  0  2.98588  0
S  S111  1  0.24610852  0.75388424  0.69134364  1  0  0.182578  0  2.680522  0  0  0.176112  0  2.992109  0  0  0.177037  0  3.001935  0  0.295093  0  0.105657  0.175061  0  2.98586  0
N  N112  1  0.70352579  0.90178197  0.55912374  1  0  -0.322466  0  3.262825  0  0  -0.245505  0  3.526408  0  0  -0.26536  0  3.545993  0  -1.23723  0  -0.32728  -0.231322  0  3.512844  0
N  N113  1  0.79647420  0.59821955  0.05912374  1  0  -0.322446  0  3.262804  0  0  -0.245516  0  3.526417  0  0  -0.265367  0  3.546003  0  -1.237399  0  -0.327269  -0.231331  0  3.512854  0
N  N114  1  0.90176240  0.70350985  0.44093352  1  0  -0.323465  0  3.263351  0  0  -0.246383  0  3.526696  0  0  -0.266234  0  3.546253  0  -1.237996  0  -0.327383  -0.232197  0  3.513141  0
N  N115  1  0.59823627  0.79649060  0.94093352  1  0  -0.323514  0  3.263491  0  0  -0.246409  0  3.52683  0  0  -0.266262  0  3.546385  0  -1.238135  0  -0.327357  -0.232225  0  3.513277  0
N  N116  1  0.29647505  0.09821833  0.44087626  1  0  -0.322419  0  3.262822  0  0  -0.24545  0  3.526381  0  0  -0.265302  0  3.545965  0  -1.237256  0  -0.327254  -0.231265  0  3.512817  0
N  N117  1  0.20352485  0.40178182  0.94087626  1  0  -0.322418  0  3.262785  0  0  -0.245441  0  3.526335  0  0  -0.265295  0  3.545921  0  -1.237223  0  -0.327244  -0.231257  0  3.512772  0
N  N118  1  0.09823665  0.29649152  0.55906648  1  0  -0.323443  0  3.263428  0  0  -0.246354  0  3.526764  0  0  -0.266208  0  3.546321  0  -1.237996  0  -0.327342  -0.23217  0  3.51321  0
N  N119  1  0.40176353  0.20350970  0.05906648  1  0  -0.323502  0  3.263513  0  0  -0.246401  0  3.526851  0  0  -0.266255  0  3.546406  0  -1.238138  0  -0.327366  -0.232216  0  3.513297  0
O  O120  1  0.68891612  0.31110985  0.94987619  1  0  -0.624643  0  1.9629  0  0  -0.567296  0  2.207557  0  0  -0.593694  0  2.198375  0  -1.160725  0  -0.328186  -0.549484  0  2.21383  0
O  O121  1  0.81108360  0.18889030  0.44987619  1  0  -0.624664  0  1.962921  0  0  -0.567315  0  2.207569  0  0  -0.593713  0  2.198387  0  -1.160722  0  -0.328201  -0.549503  0  2.213842  0
O  O122  1  0.31108369  0.68889046  0.05012381  1  0  -0.62466  0  1.962909  0  0  -0.567312  0  2.207559  0  0  -0.593709  0  2.198376  0  -1.160727  0  -0.328195  -0.549501  0  2.213832  0
O  O123  1  0.18891621  0.81111000  0.55012381  1  0  -0.624648  0  1.962921  0  0  -0.567297  0  2.207569  0  0  -0.593695  0  2.198387  0  -1.160721  0  -0.328184  -0.549486  0  2.213842  0
O  O124  1  0.54506469  0.45498328  0.93301022  1  0  -0.671536  0  2.083379  0  0  -0.601015  0  2.356737  0  0  -0.631841  0  2.344439  0  -1.183153  0  -0.340302  -0.579781  0  2.3653  0
O  O125  1  0.95493607  0.04501687  0.43301022  1  0  -0.671537  0  2.083396  0  0  -0.601017  0  2.35675  0  0  -0.631841  0  2.344453  0  -1.183157  0  -0.340301  -0.579782  0  2.365314  0
O  O126  1  0.45493588  0.54501595  0.06698978  1  0  -0.67155  0  2.083365  0  0  -0.60103  0  2.356717  0  0  -0.631855  0  2.34442  0  -1.183598  0  -0.340303  -0.579794  0  2.36528  0
O  O127  1  0.04506374  0.95498344  0.56698978  1  0  -0.671553  0  2.083393  0  0  -0.601033  0  2.356746  0  0  -0.631857  0  2.344449  0  -1.183603  0  -0.340305  -0.579797  0  2.365309  0
O  O128  1  0.86257738  0.13742792  0.68499892  1  0  -0.655053  0  1.903252  0  0  -0.606776  0  2.138983  0  0  -0.632282  0  2.127441  0  -1.173471  0  -0.347561  -0.589398  0  2.146501  0
O  O129  1  0.63742178  0.36257009  0.18499840  1  0  -0.655022  0  1.903307  0  0  -0.606747  0  2.139042  0  0  -0.632251  0  2.127498  0  -1.173489  0  -0.347547  -0.589368  0  2.14656  0
O  O130  1  0.13742291  0.86257024  0.31500160  1  0  -0.655064  0  1.903138  0  0  -0.606782  0  2.138869  0  0  -0.632289  0  2.127334  0  -1.173461  0  -0.347586  -0.589403  0  2.146387  0
O  O131  1  0.36257775  0.63742914  0.81500108  1  0  -0.655024  0  1.903295  0  0  -0.606741  0  2.139017  0  0  -0.632248  0  2.127481  0  -1.173463  0  -0.347542  -0.589363  0  2.146535  0
O  O132  1  0.75410235  0.24586227  0.60670016  1  0  -0.636152  0  1.999008  0  0  -0.572383  0  2.234336  0  0  -0.6011  0  2.225231  0  -1.164697  0  -0.33084  -0.552909  0  2.240344  0
O  O133  1  0.74589841  0.25413788  0.10670016  1  0  -0.636159  0  1.999018  0  0  -0.572391  0  2.234347  0  0  -0.601108  0  2.225244  0  -1.164724  0  -0.330857  -0.552916  0  2.240357  0
O  O134  1  0.24589925  0.75413697  0.39329984  1  0  -0.636131  0  1.998911  0  0  -0.572372  0  2.234257  0  0  -0.601087  0  2.225155  0  -1.164728  0  -0.330844  -0.552898  0  2.240266  0
O  O135  1  0.25410140  0.74586242  0.89329984  1  0  -0.63612  0  1.998992  0  0  -0.572365  0  2.234347  0  0  -0.601081  0  2.225246  0  -1.164703  0  -0.33085  -0.552889  0  2.240354  0
