# generated using pymatgen
data_CdH9C9S2N3O
_symmetry_space_group_name_H-M   'P 1'
_cell_length_a   10.87772292
_cell_length_b   10.87779155
_cell_length_c   11.65558028
_cell_angle_alpha   73.20709669
_cell_angle_beta   73.20703797
_cell_angle_gamma   87.21625742
_symmetry_Int_Tables_number   1
_chemical_formula_structural   CdH9C9S2N3O
_chemical_formula_sum   'Cd4 H36 C36 S8 N12 O4'
_cell_volume   1263.11706174
_cell_formula_units_Z   4
loop_
 _symmetry_equiv_pos_site_id
 _symmetry_equiv_pos_as_xyz
  1  'x, y, z'
loop_
 _atom_site_type_symbol
 _atom_site_label
 _atom_site_symmetry_multiplicity
 _atom_site_fract_x
 _atom_site_fract_y
 _atom_site_fract_z
 _atom_site_occupancy
 _atom_site_hle17_bader_spin_density
 _atom_site_hle17_ddec_charge
 _atom_site_hle17_ddec_spin_density
 _atom_site_hle17_ddec_sum_bond_order
 _atom_site_hle17_magmom
 _atom_site_hse06_10hf_bader_spin_density
 _atom_site_hse06_10hf_ddec_charge
 _atom_site_hse06_10hf_ddec_spin_density
 _atom_site_hse06_10hf_ddec_sum_bond_order
 _atom_site_hse06_10hf_magmom
 _atom_site_hse06_bader_spin_density
 _atom_site_hse06_ddec_charge
 _atom_site_hse06_ddec_spin_density
 _atom_site_hse06_ddec_sum_bond_order
 _atom_site_hse06_magmom
 _atom_site_pbe_bader_spin_density
 _atom_site_pbe_cm5_charge
 _atom_site_pbe_ddec_charge
 _atom_site_pbe_ddec_spin_density
 _atom_site_pbe_ddec_sum_bond_order
 _atom_site_pbe_magmom
Cd  Cd0  1  0.57491599  0.26935139  0.42908962  1  0  1.048059  0  1.950995  0  0  0.878423  0  2.433316  0  0  0.924683  0  2.387489  0  0  0.714206  0.846265  0  2.462592  0
Cd  Cd1  1  0.73065364  0.42508347  0.07090838  1  0  1.047971  0  1.951045  0  0  0.878337  0  2.433337  0  0  0.924596  0  2.387505  0  0  0.714159  0.84618  0  2.4626  0
Cd  Cd2  1  0.42508178  0.73064887  0.57091014  1  0  1.048014  0  1.950995  0  0  0.87838  0  2.433316  0  0  0.924639  0  2.387484  0  0  0.714189  0.846222  0  2.462579  0
Cd  Cd3  1  0.26935638  0.57491191  0.92909205  1  0  1.047984  0  1.951021  0  0  0.87836  0  2.433324  0  0  0.924617  0  2.387496  0  0  0.714176  0.846205  0  2.462579  0
H  H4  1  0.36410915  0.25117146  0.20837724  1  0  0.122005  0  0.938288  0  0  0.133686  0  0.996661  0  0  0.136633  0  0.994339  0  0  0.133236  0.131531  0  0.998439  0
H  H5  1  0.74882738  0.63588896  0.29162436  1  0  0.121964  0  0.938295  0  0  0.133681  0  0.996625  0  0  0.13663  0  0.994304  0  0  0.13324  0.131529  0  0.998404  0
H  H6  1  0.63588966  0.74883072  0.79162089  1  0  0.122032  0  0.938271  0  0  0.133715  0  0.996616  0  0  0.136655  0  0.994319  0  0  0.133248  0.131559  0  0.998396  0
H  H7  1  0.25116953  0.36411417  0.70837573  1  0  0.122035  0  0.938285  0  0  0.133738  0  0.996615  0  0  0.136677  0  0.994319  0  0  0.13326  0.131585  0  0.998399  0
H  H8  1  0.40182618  0.87722249  0.14220427  1  0  0.105839  0  0.975714  0  0  0.111221  0  1.047948  0  0  0.11466  0  1.045803  0  0  0.094229  0.10885  0  1.049202  0
H  H9  1  0.12278017  0.59817548  0.35779780  1  0  0.105836  0  0.97569  0  0  0.111218  0  1.047925  0  0  0.114656  0  1.045782  0  0  0.094237  0.10885  0  1.049177  0
H  H10  1  0.59817458  0.12278064  0.85779396  1  0  0.105832  0  0.975667  0  0  0.11122  0  1.047901  0  0  0.114662  0  1.045756  0  0  0.094222  0.108845  0  1.049164  0
H  H11  1  0.87721655  0.40182469  0.64220826  1  0  0.105931  0  0.975736  0  0  0.111358  0  1.047903  0  0  0.11481  0  1.045744  0  0  0.094285  0.108974  0  1.049176  0
H  H12  1  0.70643570  0.07053183  0.20297730  1  0  0.117851  0  0.945945  0  0  0.126641  0  1.010343  0  0  0.129825  0  1.007488  0  0  0.120569  0.124178  0  1.012608  0
H  H13  1  0.92946942  0.29356555  0.29702476  1  0  0.117839  0  0.94588  0  0  0.126612  0  1.010309  0  0  0.129804  0  1.00745  0  0  0.120542  0.12415  0  1.01257  0
H  H14  1  0.29356308  0.92947032  0.79702342  1  0  0.117843  0  0.945941  0  0  0.126643  0  1.010339  0  0  0.129824  0  1.007487  0  0  0.120575  0.124183  0  1.012604  0
H  H15  1  0.07052464  0.70643761  0.70297435  1  0  0.117789  0  0.945858  0  0  0.12657  0  1.010279  0  0  0.129755  0  1.007426  0  0  0.120529  0.124105  0  1.012539  0
H  H16  1  0.20888182  0.00384133  0.11758429  1  0  0.11714  0  0.937031  0  0  0.140401  0  0.992173  0  0  0.141978  0  0.991815  0  0  0.095053  0.139163  0  0.992628  0
H  H17  1  0.99615793  0.79111804  0.38241764  1  0  0.117151  0  0.937004  0  0  0.140422  0  0.992134  0  0  0.142  0  0.991774  0  0  0.095046  0.139184  0  0.992587  0
H  H18  1  0.79112175  0.99615895  0.88241052  1  0  0.117162  0  0.937041  0  0  0.140434  0  0.992174  0  0  0.142011  0  0.991814  0  0  0.095066  0.139193  0  0.992627  0
H  H19  1  0.00384063  0.20887929  0.61758611  1  0  0.117133  0  0.937063  0  0  0.140413  0  0.992192  0  0  0.141992  0  0.991831  0  0  0.095036  0.139175  0  0.992648  0
H  H20  1  0.19273176  0.15979854  0.14021495  1  0  0.118867  0  0.959172  0  0  0.138608  0  1.020846  0  0  0.139531  0  1.021829  0  0  0.092658  0.137959  0  1.020096  0
H  H21  1  0.84019919  0.80726768  0.35978571  1  0  0.118832  0  0.959178  0  0  0.138569  0  1.020857  0  0  0.13949  0  1.021839  0  0  0.092644  0.13792  0  1.020108  0
H  H22  1  0.80726705  0.84020272  0.85978084  1  0  0.118802  0  0.959243  0  0  0.138584  0  1.020872  0  0  0.139504  0  1.021853  0  0  0.092646  0.137935  0  1.020122  0
H  H23  1  0.15979964  0.19273636  0.64021708  1  0  0.11885  0  0.959197  0  0  0.138609  0  1.020854  0  0  0.139531  0  1.021837  0  0  0.092667  0.137959  0  1.020112  0
H  H24  1  0.16154943  0.02027346  0.27107568  1  0  0.114924  0  0.940858  0  0  0.134293  0  1.004564  0  0  0.135699  0  1.004197  0  0  0.093172  0.133408  0  1.00445  0
H  H25  1  0.97972543  0.83845122  0.22892527  1  0  0.114902  0  0.940829  0  0  0.134259  0  1.004565  0  0  0.135667  0  1.004198  0  0  0.093174  0.133376  0  1.004452  0
H  H26  1  0.83845313  0.97972586  0.72892051  1  0  0.114987  0  0.940817  0  0  0.134332  0  1.004568  0  0  0.135737  0  1.004202  0  0  0.093198  0.133449  0  1.004451  0
H  H27  1  0.02027325  0.16154898  0.77107770  1  0  0.114924  0  0.940776  0  0  0.134301  0  1.004503  0  0  0.135708  0  1.004135  0  0  0.093187  0.133422  0  1.004382  0
H  H28  1  0.74964951  0.86788777  0.13962371  1  0  0.112748  0  0.93788  0  0  0.136426  0  0.992752  0  0  0.137766  0  0.992709  0  0  0.094345  0.135556  0  0.992517  0
H  H29  1  0.13211483  0.25035474  0.36037526  1  0  0.112724  0  0.93791  0  0  0.136401  0  0.992786  0  0  0.137742  0  0.992741  0  0  0.094325  0.13553  0  0.992554  0
H  H30  1  0.25035319  0.13211444  0.86037084  1  0  0.112725  0  0.937903  0  0  0.136405  0  0.99278  0  0  0.137742  0  0.99274  0  0  0.094345  0.135541  0  0.99254  0
H  H31  1  0.86788379  0.74964448  0.63962970  1  0  0.112709  0  0.937916  0  0  0.136394  0  0.992792  0  0  0.137731  0  0.99275  0  0  0.094329  0.135527  0  0.992551  0
H  H32  1  0.63314623  0.79932989  0.09249580  1  0  0.12552  0  0.949931  0  0  0.147336  0  1.007868  0  0  0.148007  0  1.009457  0  0  0.09552  0.146604  0  1.007204  0
H  H33  1  0.20067428  0.36685592  0.40750328  1  0  0.125489  0  0.949974  0  0  0.14731  0  1.007905  0  0  0.147981  0  1.009496  0  0  0.095511  0.146574  0  1.007248  0
H  H34  1  0.36685547  0.20067230  0.90750072  1  0  0.125507  0  0.949916  0  0  0.147317  0  1.007869  0  0  0.147988  0  1.009459  0  0  0.095505  0.146582  0  1.007209  0
H  H35  1  0.79931967  0.63314622  0.59250040  1  0  0.125478  0  0.949939  0  0  0.147325  0  1.007846  0  0  0.147998  0  1.009432  0  0  0.095505  0.146592  0  1.007184  0
H  H36  1  0.61715247  0.76998779  0.25281060  1  0  0.114074  0  0.95816  0  0  0.132767  0  1.025887  0  0  0.133518  0  1.026217  0  0  0.092742  0.132096  0  1.025702  0
H  H37  1  0.23001324  0.38285311  0.24718842  1  0  0.114058  0  0.958131  0  0  0.132774  0  1.025828  0  0  0.133529  0  1.026153  0  0  0.092753  0.132091  0  1.02565  0
H  H38  1  0.38285400  0.23001342  0.74718494  1  0  0.114023  0  0.958151  0  0  0.132711  0  1.025891  0  0  0.133463  0  1.026217  0  0  0.092731  0.132031  0  1.025715  0
H  H39  1  0.76998351  0.61714709  0.75281591  1  0  0.114076  0  0.958161  0  0  0.132766  0  1.025886  0  0  0.133516  0  1.026217  0  0  0.092743  0.132086  0  1.025712  0
C  C40  1  0.39657787  0.53739962  0.40862507  1  0  0.315883  0  3.973558  0  0  0.294353  0  4.275086  0  0  0.315156  0  4.290737  0  0  0.153065  0.280067  0  4.264315  0
C  C41  1  0.46259705  0.60341545  0.09138255  1  0  0.315947  0  3.97364  0  0  0.294416  0  4.275176  0  0  0.315222  0  4.290821  0  0  0.153047  0.280128  0  4.264405  0
C  C42  1  0.60341680  0.46259584  0.59137759  1  0  0.31594  0  3.973446  0  0  0.294409  0  4.27498  0  0  0.315215  0  4.29063  0  0  0.153075  0.28012  0  4.264214  0
C  C43  1  0.53741295  0.39657992  0.90861874  1  0  0.31574  0  3.973682  0  0  0.294195  0  4.275247  0  0  0.315004  0  4.2909  0  0  0.152946  0.279906  0  4.264473  0
C  C44  1  0.33742855  0.03939963  0.52743069  1  0  0.30746  0  4.032724  0  0  0.28978  0  4.3306  0  0  0.310909  0  4.346953  0  0  0.145486  0.275416  0  4.319162  0
C  C45  1  0.96059461  0.66256570  0.97257096  1  0  0.307654  0  4.03269  0  0  0.28998  0  4.330552  0  0  0.311107  0  4.346899  0  0  0.145595  0.275626  0  4.319104  0
C  C46  1  0.66256885  0.96059104  0.47256993  1  0  0.307535  0  4.032559  0  0  0.289862  0  4.330424  0  0  0.310987  0  4.34677  0  0  0.145546  0.275502  0  4.318982  0
C  C47  1  0.03941449  0.33743064  0.02742945  1  0  0.307553  0  4.032406  0  0  0.289874  0  4.330281  0  0  0.310999  0  4.346628  0  0  0.145541  0.275522  0  4.318831  0
C  C48  1  0.36166944  0.06191522  0.17627894  1  0  0.133619  0  3.771497  0  0  0.16356  0  4.015361  0  0  0.161395  0  4.039351  0  0  0.004507  0.164564  0  3.999047  0
C  C49  1  0.93808309  0.63833103  0.32372226  1  0  0.133618  0  3.771555  0  0  0.163574  0  4.015403  0  0  0.161412  0  4.039394  0  0  0.004505  0.164577  0  3.999094  0
C  C50  1  0.63833419  0.93808696  0.82371709  1  0  0.13363  0  3.771487  0  0  0.16357  0  4.015347  0  0  0.161409  0  4.039339  0  0  0.004458  0.164571  0  3.999036  0
C  C51  1  0.06191085  0.36167018  0.67627996  1  0  0.133644  0  3.771461  0  0  0.16369  0  4.015219  0  0  0.161487  0  4.039272  0  0  0.004527  0.164732  0  3.998858  0
C  C52  1  0.41400012  0.16469211  0.19728680  1  0  -0.038227  0  3.54579  0  0  -0.090131  0  3.8031  0  0  -0.085202  0  3.817197  0  0  0.042562  -0.093129  0  3.793787  0
C  C53  1  0.83530692  0.58600152  0.30271474  1  0  -0.038155  0  3.545762  0  0  -0.090093  0  3.803069  0  0  -0.085157  0  3.817146  0  0  0.042596  -0.093092  0  3.793757  0
C  C54  1  0.58600066  0.83531103  0.80271057  1  0  -0.038246  0  3.545774  0  0  -0.090125  0  3.803057  0  0  -0.085193  0  3.817129  0  0  0.042559  -0.093125  0  3.793752  0
C  C55  1  0.16468890  0.41399872  0.69728724  1  0  -0.038199  0  3.545726  0  0  -0.090151  0  3.803015  0  0  -0.085203  0  3.817097  0  0  0.042545  -0.093177  0  3.793723  0
C  C56  1  0.43969937  0.95852390  0.16037554  1  0  -0.141505  0  3.650492  0  0  -0.179323  0  3.898088  0  0  -0.177995  0  3.915752  0  0  -0.077972  -0.179188  0  3.885069  0
C  C57  1  0.04147508  0.56030195  0.33962498  1  0  -0.141512  0  3.65046  0  0  -0.179327  0  3.898068  0  0  -0.178001  0  3.915733  0  0  -0.077994  -0.179201  0  3.885056  0
C  C58  1  0.56030139  0.04147831  0.83962036  1  0  -0.141495  0  3.650436  0  0  -0.179328  0  3.897963  0  0  -0.178005  0  3.915632  0  0  -0.077926  -0.179194  0  3.884957  0
C  C59  1  0.95851683  0.43969640  0.66037765  1  0  -0.141668  0  3.650715  0  0  -0.17954  0  3.898265  0  0  -0.178211  0  3.915932  0  0  -0.078065  -0.179413  0  3.885256  0
C  C60  1  0.61156273  0.06205388  0.19192696  1  0  -0.056072  0  3.572314  0  0  -0.107968  0  3.832805  0  0  -0.103335  0  3.847392  0  0  0.035006  -0.110443  0  3.82292  0
C  C61  1  0.93794635  0.38843920  0.30807602  1  0  -0.056049  0  3.572265  0  0  -0.107929  0  3.832771  0  0  -0.103308  0  3.847372  0  0  0.035029  -0.11041  0  3.822888  0
C  C62  1  0.38843700  0.93794733  0.80807204  1  0  -0.056055  0  3.572398  0  0  -0.108011  0  3.832906  0  0  -0.103376  0  3.847493  0  0  0.034993  -0.110494  0  3.823028  0
C  C63  1  0.06205044  0.61156104  0.69192572  1  0  -0.055956  0  3.572124  0  0  -0.107821  0  3.832598  0  0  -0.103193  0  3.847194  0  0  0.035031  -0.110296  0  3.822707  0
C  C64  1  0.56553037  0.95725040  0.16907695  1  0  0.139935  0  3.775945  0  0  0.169287  0  4.019405  0  0  0.167162  0  4.043409  0  0  0.00531  0.170147  0  4.002882  0
C  C65  1  0.04275073  0.43447101  0.33092391  1  0  0.139949  0  3.775868  0  0  0.169259  0  4.019393  0  0  0.167136  0  4.043397  0  0  0.005309  0.17013  0  4.002858  0
C  C66  1  0.43447034  0.04275083  0.83092008  1  0  0.139853  0  3.776114  0  0  0.169282  0  4.019481  0  0  0.167158  0  4.043484  0  0  0.005266  0.170152  0  4.002946  0
C  C67  1  0.95724407  0.56552732  0.66907798  1  0  0.13989  0  3.775988  0  0  0.169197  0  4.019524  0  0  0.167073  0  4.043526  0  0  0.005357  0.17006  0  4.002995  0
C  C68  1  0.22393239  0.06223456  0.17530971  1  0  -0.336741  0  3.71461  0  0  -0.417178  0  3.943606  0  0  -0.419485  0  3.953663  0  0  -0.234672  -0.415377  0  3.936795  0
C  C69  1  0.93776403  0.77606587  0.32469194  1  0  -0.336704  0  3.714552  0  0  -0.41715  0  3.943563  0  0  -0.419458  0  3.953618  0  0  -0.234667  -0.415348  0  3.936756  0
C  C70  1  0.77606833  0.93776669  0.82468645  1  0  -0.336755  0  3.714713  0  0  -0.417232  0  3.94373  0  0  -0.419537  0  3.953786  0  0  -0.234676  -0.415432  0  3.936922  0
C  C71  1  0.06223274  0.22393435  0.67531066  1  0  -0.336735  0  3.714574  0  0  -0.41726  0  3.943567  0  0  -0.419556  0  3.953637  0  0  -0.23469  -0.415472  0  3.936749  0
C  C72  1  0.64720928  0.84344378  0.16146727  1  0  -0.33319  0  3.700949  0  0  -0.414669  0  3.931821  0  0  -0.417056  0  3.942888  0  0  -0.236123  -0.412811  0  3.924432  0
C  C73  1  0.15655874  0.35279408  0.33853278  1  0  -0.333145  0  3.700895  0  0  -0.414614  0  3.931751  0  0  -0.417002  0  3.942813  0  0  -0.236091  -0.412738  0  3.924371  0
C  C74  1  0.35279343  0.15655936  0.83852875  1  0  -0.333051  0  3.700904  0  0  -0.414544  0  3.931744  0  0  -0.416925  0  3.94281  0  0  -0.236077  -0.412681  0  3.924356  0
C  C75  1  0.84343510  0.64720518  0.66147169  1  0  -0.333097  0  3.70093  0  0  -0.414603  0  3.931805  0  0  -0.416983  0  3.942869  0  0  -0.236125  -0.412739  0  3.924424  0
S  S76  1  0.34081430  0.68163916  0.39761731  1  0  -0.357655  0  2.252011  0  0  -0.314144  0  2.591299  0  0  -0.334446  0  2.587002  0  0  -0.13657  -0.300052  0  2.593644  0
S  S77  1  0.31835722  0.65917974  0.10239013  1  0  -0.357634  0  2.252114  0  0  -0.314135  0  2.591426  0  0  -0.334442  0  2.587128  0  0  -0.136549  -0.300049  0  2.593772  0
S  S78  1  0.65918053  0.31836014  0.60238432  1  0  -0.357621  0  2.25215  0  0  -0.314131  0  2.591458  0  0  -0.334436  0  2.587168  0  0  -0.136556  -0.30004  0  2.593807  0
S  S79  1  0.68165255  0.34081079  0.89761505  1  0  -0.357578  0  2.252212  0  0  -0.314035  0  2.591452  0  0  -0.334339  0  2.587156  0  0  -0.136529  -0.299946  0  2.593793  0
S  S80  1  0.24117914  0.91891728  0.55074274  1  0  -0.374464  0  2.120178  0  0  -0.341815  0  2.427668  0  0  -0.359486  0  2.42084  0  0  -0.161753  -0.329766  0  2.431285  0
S  S81  1  0.08108913  0.75882349  0.94926013  1  0  -0.374628  0  2.119664  0  0  -0.341991  0  2.427161  0  0  -0.359666  0  2.420329  0  0  -0.161827  -0.32995  0  2.430772  0
S  S82  1  0.75882445  0.08108486  0.44925674  1  0  -0.374584  0  2.119771  0  0  -0.341938  0  2.427259  0  0  -0.359611  0  2.420429  0  0  -0.161797  -0.329884  0  2.430875  0
S  S83  1  0.91891411  0.24117094  0.05074315  1  0  -0.374563  0  2.119592  0  0  -0.341935  0  2.427097  0  0  -0.359612  0  2.420266  0  0  -0.161775  -0.329897  0  2.430709  0
N  N84  1  0.53582901  0.16268316  0.20532251  1  0  0.280172  0  3.743353  0  0  0.329651  0  4.009762  0  0  0.328683  0  4.032702  0  0  -0.121577  0.329433  0  3.994374  0
N  N85  1  0.83731559  0.46417284  0.29468081  1  0  0.280159  0  3.743328  0  0  0.329649  0  4.009734  0  0  0.328682  0  4.032685  0  0  -0.121582  0.32943  0  3.994352  0
N  N86  1  0.46417075  0.83731901  0.79467623  1  0  0.280145  0  3.743369  0  0  0.32962  0  4.009777  0  0  0.328652  0  4.03272  0  0  -0.121585  0.329398  0  3.994397  0
N  N87  1  0.16268021  0.53582738  0.70532290  1  0  0.280104  0  3.743235  0  0  0.329601  0  4.009626  0  0  0.328637  0  4.032567  0  0  -0.121581  0.329385  0  3.994239  0
N  N88  1  0.43454452  0.43275141  0.41653428  1  0  -0.514031  0  2.867981  0  0  -0.459743  0  3.145217  0  0  -0.48051  0  3.151902  0  0  -0.383677  -0.445567  0  3.140223  0
N  N89  1  0.56724925  0.56544582  0.08347055  1  0  -0.514098  0  2.868009  0  0  -0.459802  0  3.145225  0  0  -0.480574  0  3.151914  0  0  -0.383655  -0.445623  0  3.140227  0
N  N90  1  0.56544941  0.56724886  0.58346647  1  0  -0.514112  0  2.867768  0  0  -0.459819  0  3.144996  0  0  -0.480594  0  3.151697  0  0  -0.383685  -0.445638  0  3.14  0
N  N91  1  0.43275991  0.43455150  0.91652787  1  0  -0.513946  0  2.867948  0  0  -0.459652  0  3.145185  0  0  -0.480418  0  3.151867  0  0  -0.383589  -0.445473  0  3.140183  0
N  N92  1  0.40583620  0.12698660  0.51374816  1  0  -0.54047  0  2.891852  0  0  -0.483236  0  3.168963  0  0  -0.505453  0  3.176479  0  0  -0.397351  -0.467839  0  3.162897  0
N  N93  1  0.87302116  0.59416672  0.98625117  1  0  -0.540488  0  2.892349  0  0  -0.483252  0  3.169439  0  0  -0.505462  0  3.176946  0  0  -0.397384  -0.467865  0  3.163372  0
N  N94  1  0.59416919  0.87301264  0.48625160  1  0  -0.540445  0  2.892125  0  0  -0.483205  0  3.169202  0  0  -0.505415  0  3.176709  0  0  -0.397362  -0.467811  0  3.163134  0
N  N95  1  0.12698989  0.40582965  0.01374615  1  0  -0.540439  0  2.892155  0  0  -0.483178  0  3.169204  0  0  -0.505384  0  3.176712  0  0  -0.397356  -0.467791  0  3.163137  0
O  O96  1  0.58170058  0.26263945  0.22693221  1  0  -0.5817  0  1.957241  0  0  -0.518189  0  2.232589  0  0  -0.542594  0  2.227262  0  0  -0.261961  -0.501019  0  2.235449  0
O  O97  1  0.73735880  0.41830104  0.27306871  1  0  -0.581702  0  1.957182  0  0  -0.518197  0  2.232525  0  0  -0.542617  0  2.227211  0  0  -0.261981  -0.501029  0  2.23539  0
O  O98  1  0.41829910  0.73736078  0.77306791  1  0  -0.581692  0  1.957274  0  0  -0.518168  0  2.232613  0  0  -0.542572  0  2.227285  0  0  -0.261949  -0.500998  0  2.235474  0
O  O99  1  0.26263615  0.58170113  0.72693301  1  0  -0.581644  0  1.957161  0  0  -0.518208  0  2.232603  0  0  -0.542625  0  2.227284  0  0  -0.261954  -0.501037  0  2.235458  0
