# generated using pymatgen
data_CuPH5C7O5
_symmetry_space_group_name_H-M   'P 1'
_cell_length_a   5.24608683
_cell_length_b   8.12354445
_cell_length_c   18.76039585
_cell_angle_alpha   89.99933535
_cell_angle_beta   90.02846593
_cell_angle_gamma   89.99929078
_symmetry_Int_Tables_number   1
_chemical_formula_structural   CuPH5C7O5
_chemical_formula_sum   'Cu4 P4 H20 C28 O20'
_cell_volume   799.50830518
_cell_formula_units_Z   4
loop_
 _symmetry_equiv_pos_site_id
 _symmetry_equiv_pos_as_xyz
  1  'x, y, z'
loop_
 _atom_site_type_symbol
 _atom_site_label
 _atom_site_symmetry_multiplicity
 _atom_site_fract_x
 _atom_site_fract_y
 _atom_site_fract_z
 _atom_site_occupancy
 _atom_site_pbe_cm5_charge
 _atom_site_pbe_ddec_charge
 _atom_site_pbe_ddec_spin_density
 _atom_site_pbe_ddec_sum_bond_order
 _atom_site_pbe_magmom
Cu  Cu0  1  0.49599814  0.81348319  0.99927630  1  0.738687  1.008612  -0.695065  2.206769  -0.578
Cu  Cu1  1  0.00399942  0.31347890  0.00072281  1  0.738653  1.008525  0.695076  2.206757  0.578
Cu  Cu2  1  0.50400165  0.18652372  0.00072544  1  0.738661  1.008608  0.695063  2.206725  0.578
Cu  Cu3  1  0.99599950  0.68651939  0.99927251  1  0.738705  1.008727  -0.695073  2.206569  -0.578
P  P4  1  0.91655759  0.99848450  0.90714288  1  0.352906  1.313842  -0.000333  5.240054  0.0
P  P5  1  0.58343900  0.49848084  0.09285616  1  0.352864  1.313767  0.000332  5.240017  0.0
P  P6  1  0.08342705  0.00151872  0.09285813  1  0.352889  1.313891  0.000332  5.239871  0.0
P  P7  1  0.41658598  0.50152361  0.90714323  1  0.352986  1.313904  -0.000334  5.239956  0.0
H  H8  1  0.39001411  0.15059095  0.70127344  1  0.103943  0.102991  -5.8e-05  1.042164  0.0
H  H9  1  0.10997925  0.65058356  0.29872482  1  0.103939  0.102952  5.9e-05  1.042222  0.0
H  H10  1  0.60999961  0.84939381  0.29871301  1  0.103931  0.103021  5.9e-05  1.042167  0.0
H  H11  1  0.89001336  0.34942335  0.70128590  1  0.103912  0.103013  -5.8e-05  1.042165  0.0
H  H12  1  0.50580408  0.14517982  0.83013595  1  0.105935  0.122182  5.5e-05  1.017874  0.0
H  H13  1  0.99419441  0.64517155  0.16986004  1  0.105932  0.122227  -5.5e-05  1.017825  0.0
H  H14  1  0.49418272  0.85482709  0.16985175  1  0.105913  0.122223  -5.5e-05  1.017778  0.0
H  H15  1  0.00586191  0.35482674  0.83014617  1  0.10586  0.122145  5.5e-05  1.017836  0.0
H  H16  1  0.16669401  0.85065220  0.78045215  1  0.103738  0.108198  -9.6e-05  1.018693  0.0
H  H17  1  0.33331444  0.35064691  0.21954586  1  0.103721  0.108181  9.6e-05  1.018643  0.0
H  H18  1  0.83329341  0.14934856  0.21955531  1  0.103699  0.10818  9.6e-05  1.018578  0.0
H  H19  1  0.66670777  0.64937108  0.78044709  1  0.103697  0.108147  -9.6e-05  1.018653  0.0
H  H20  1  0.05050979  0.85921097  0.65150240  1  0.10724  0.109697  2.6e-05  1.017476  0.0
H  H21  1  0.44948109  0.35920258  0.34849694  1  0.107211  0.109633  -2.5e-05  1.017519  0.0
H  H22  1  0.94951588  0.14077255  0.34850447  1  0.107194  0.109628  -2.5e-05  1.017564  0.0
H  H23  1  0.55049265  0.64081294  0.65150073  1  0.107211  0.109654  2.6e-05  1.017482  0.0
H  H24  1  0.68767647  0.92189123  0.49843256  1  0.305188  0.363611  0.0  0.976834  0.0
H  H25  1  0.81231208  0.42191190  0.50156676  1  0.305186  0.36364  -0.0  0.976827  0.0
H  H26  1  0.31233397  0.07807259  0.50156238  1  0.305262  0.363836  0.0  0.976631  0.0
H  H27  1  0.18764937  0.57810363  0.49843610  1  0.305275  0.363774  0.0  0.976632  0.0
C  C28  1  0.84434835  0.99843186  0.81328665  1  -0.012359  -0.161583  0.000541  3.925969  0.001
C  C29  1  0.65564789  0.49843131  0.18671453  1  -0.012309  -0.161505  -0.000542  3.92611  -0.001
C  C30  1  0.15564434  0.00157135  0.18671180  1  -0.012352  -0.1615  -0.000541  3.926163  -0.001
C  C31  1  0.34437839  0.50158053  0.81328862  1  -0.012335  -0.161541  0.000541  3.926307  0.001
C  C32  1  0.56031906  0.08638776  0.71922953  1  -0.075635  -0.085397  -0.000454  3.956318  -0.001
C  C33  1  0.93967857  0.58637331  0.28076726  1  -0.075645  -0.085387  0.000454  3.956378  0.001
C  C34  1  0.43968211  0.91359699  0.28076370  1  -0.075678  -0.085619  0.000454  3.956206  0.001
C  C35  1  0.06032693  0.41363483  0.71923455  1  -0.07567  -0.085777  -0.000454  3.956064  -0.001
C  C36  1  0.62525423  0.08334478  0.79097042  1  -0.076979  -0.056235  0.001201  3.929922  0.001
C  C37  1  0.87474511  0.58334259  0.20902801  1  -0.076989  -0.056284  -0.001201  3.929984  -0.001
C  C38  1  0.37474141  0.91665474  0.20902167  1  -0.076934  -0.056182  -0.001201  3.929762  -0.001
C  C39  1  0.12528282  0.41667171  0.79097676  1  -0.076751  -0.055803  0.001201  3.929372  0.001
C  C40  1  0.99785604  0.91749311  0.76305675  1  -0.076078  -0.061033  0.001769  3.956684  0.002
C  C41  1  0.50213268  0.41749860  0.23694206  1  -0.076044  -0.061007  -0.001769  3.956672  -0.002
C  C42  1  0.00213969  0.08249780  0.23694654  1  -0.07615  -0.061193  -0.001769  3.956553  -0.002
C  C43  1  0.49788147  0.58250831  0.76305346  1  -0.076088  -0.061163  0.001769  3.956727  0.002
C  C44  1  0.93205484  0.92087708  0.69100808  1  -0.074744  -0.08495  -0.00022  3.933881  0.0
C  C45  1  0.56794499  0.42087030  0.30899245  1  -0.074711  -0.084821  0.00022  3.933757  0.0
C  C46  1  0.06795630  0.07910890  0.30899434  1  -0.074526  -0.084645  0.00022  3.933909  0.0
C  C47  1  0.43204182  0.57914892  0.69100699  1  -0.074672  -0.084744  -0.00022  3.933647  0.0
C  C48  1  0.71174145  0.00449870  0.66897397  1  -0.011175  -0.044532  0.002255  3.976156  0.002
C  C49  1  0.78824807  0.50449396  0.33102418  1  -0.011234  -0.044706  -0.002255  3.976193  -0.002
C  C50  1  0.28826119  0.99547867  0.33102194  1  -0.011193  -0.044602  -0.002255  3.976047  -0.002
C  C51  1  0.21173805  0.49552280  0.66897952  1  -0.011299  -0.044624  0.002255  3.976177  0.002
C  C52  1  0.62460995  0.00469700  0.59352780  1  0.2436  0.588688  7.3e-05  4.101858  0.0
C  C53  1  0.87537169  0.50470928  0.40647185  1  0.243584  0.588629  -7.3e-05  4.101759  0.0
C  C54  1  0.37539590  0.99526191  0.40647188  1  0.243707  0.588807  -7.3e-05  4.101933  0.0
C  C55  1  0.12458759  0.49531610  0.59353258  1  0.243743  0.588706  7.3e-05  4.101939  0.0
O  O56  1  0.65035679  0.00017081  0.94616172  1  -0.389879  -0.754827  0.000287  2.527472  0.0
O  O57  1  0.84964034  0.50016553  0.05383709  1  -0.389878  -0.754798  -0.000281  2.527466  0.0
O  O58  1  0.34962794  0.99983363  0.05383876  1  -0.389938  -0.754983  -0.000283  2.527592  0.0
O  O59  1  0.15038290  0.49983154  0.94616122  1  -0.389912  -0.754918  0.000279  2.527597  0.0
O  O60  1  0.06961484  0.84237351  0.92444991  1  -0.373953  -0.75183  -0.039014  2.405047  -0.056
O  O61  1  0.43037827  0.34237494  0.07554954  1  -0.373856  -0.751715  0.039011  2.404876  0.056
O  O62  1  0.93036859  0.15762725  0.07554682  1  -0.373839  -0.751686  0.039012  2.40482  0.057
O  O63  1  0.56963624  0.65763320  0.92445559  1  -0.373894  -0.751767  -0.03901  2.404806  -0.056
O  O64  1  0.06545184  0.15701629  0.92425308  1  -0.371122  -0.761439  0.038431  2.415558  0.056
O  O65  1  0.43453966  0.65701467  0.07574405  1  -0.371131  -0.761492  -0.038434  2.415625  -0.056
O  O66  1  0.93454128  0.84298816  0.07574270  1  -0.37112  -0.761464  -0.038426  2.415391  -0.056
O  O67  1  0.56548099  0.34298978  0.92425850  1  -0.371229  -0.761511  0.038429  2.415448  0.056
O  O68  1  0.76659194  0.91872784  0.54918156  1  -0.317847  -0.462451  0.000138  2.298192  0.0
O  O69  1  0.73341208  0.41872585  0.45081690  1  -0.317834  -0.462443  -0.000138  2.298352  0.0
O  O70  1  0.23343373  0.08124337  0.45081358  1  -0.317863  -0.462679  -0.000138  2.298713  0.0
O  O71  1  0.26655932  0.58127860  0.54918341  1  -0.317988  -0.462592  0.000138  2.298465  0.0
O  O72  1  0.42631550  0.07989548  0.57617290  1  -0.281486  -0.493606  0.000345  2.192911  0.0
O  O73  1  0.07363517  0.57992816  0.42382675  1  -0.281499  -0.493501  -0.000345  2.192726  0.0
O  O74  1  0.57367339  0.92004496  0.42382551  1  -0.281649  -0.493573  -0.000345  2.19279  0.0
O  O75  1  0.92629079  0.42011445  0.57618311  1  -0.281506  -0.493528  0.000345  2.19286  0.0
