# generated using pymatgen
data_Zr3H10(C9O8)2
_symmetry_space_group_name_H-M   'P 1'
_cell_length_a   12.92186417
_cell_length_b   15.14753321
_cell_length_c   15.11206866
_cell_angle_alpha   89.95625015
_cell_angle_beta   89.94757769
_cell_angle_gamma   90.08790379
_symmetry_Int_Tables_number   1
_chemical_formula_structural   Zr3H10(C9O8)2
_chemical_formula_sum   'Zr6 H20 C36 O32'
_cell_volume   2957.94560379
_cell_formula_units_Z   2
loop_
 _symmetry_equiv_pos_site_id
 _symmetry_equiv_pos_as_xyz
  1  'x, y, z'
loop_
 _atom_site_type_symbol
 _atom_site_label
 _atom_site_symmetry_multiplicity
 _atom_site_fract_x
 _atom_site_fract_y
 _atom_site_fract_z
 _atom_site_occupancy
 _atom_site_pbe_bader_charge
 _atom_site_pbe_bader_spin_density
 _atom_site_pbe_cm5_charge
 _atom_site_pbe_ddec_charge
 _atom_site_pbe_ddec_spin_density
 _atom_site_pbe_ddec_sum_bond_order
 _atom_site_pbe_magmom
Zr  Zr0  1  0.00696864  0.16461920  0.98819609  1  2.60912  0  1.566168  2.360018  0  2.807735  0
Zr  Zr1  1  0.00755123  0.99233448  0.83088991  1  2.625896  0  1.582786  2.385552  0  2.748552  0
Zr  Zr2  1  0.00974116  0.01132640  0.16635546  1  2.611491  0  1.558106  2.36485  0  2.819583  0
Zr  Zr3  1  0.00358642  0.83763475  0.00689108  1  2.617185  0  1.571132  2.370349  0  2.767188  0
Zr  Zr4  1  0.81182718  0.00279814  0.99868156  1  2.633958  0  1.611263  2.362917  0  2.75046  0
Zr  Zr5  1  0.20178908  0.00144825  0.99699023  1  2.637634  0  1.614181  2.358589  0  2.746404  0
H  H6  1  0.15626053  0.13254507  0.85965955  1  0.616935  0  0.336721  0.437547  0  0.833472  0
H  H7  1  0.85515208  0.86544599  0.86996660  1  0.613627  0  0.329548  0.422588  0  0.859837  0
H  H8  1  0.15656912  0.87105896  0.13325473  1  0.613639  0  0.334913  0.434491  0  0.837324  0
H  H9  1  0.86880839  0.14365153  0.13440235  1  0.605398  0  0.330141  0.436427  0  0.844718  0
H  H10  1  0.95247728  0.86604968  0.71063311  1  0.585636  0  0.30371  0.398062  0  0.89723  0
H  H11  1  0.00671576  0.79899393  0.82321824  1  0.641631  0  0.282192  0.408554  0  0.930021  0
H  H12  1  0.95092584  0.72245370  0.13021852  1  0.581067  0  0.296113  0.389234  0  0.914247  0
H  H13  1  0.00359929  0.82957308  0.20231927  1  0.650368  0  0.281985  0.402749  0  0.938579  0
H  H14  1  0.05424136  0.12741378  0.28828920  1  0.576673  0  0.294027  0.401538  0  0.896724  0
H  H15  1  0.95250433  0.32599671  0.07196915  1  0.639762  0  0.341135  0.426385  0  0.854654  0
H  H16  1  0.95315489  0.28116839  0.86516822  1  0.593813  0  0.294261  0.38688  0  0.917661  0
H  H17  1  0.00220707  0.17484703  0.79507598  1  0.64246  0  0.281609  0.40559  0  0.935332  0
H  H18  1  0.93738640  0.88508415  0.27509908  1  0.627672  0  0.322244  0.410269  0  0.88543  0
H  H19  1  0.07447824  0.30883365  0.07739931  1  0.643212  0  0.331098  0.422315  0  0.87322  0
H  H20  1  0.93349239  0.12089745  0.72166808  1  0.637979  0  0.323897  0.411554  0  0.878927  0
H  H21  1  0.07524570  0.72766454  0.87843117  1  0.613625  0  0.322838  0.413182  0  0.879518  0
H  H22  1  0.69859963  0.50454333  0.99822935  1  0.085091  0  0.11976  0.130183  0  0.970441  0
H  H23  1  0.31456425  0.50095966  0.99807359  1  0.131951  0  0.121229  0.132067  0  0.969513  0
H  H24  1  0.69832894  0.00102930  0.49732781  1  0.092593  0  0.122002  0.13455  0  0.96592  0
H  H25  1  0.31385230  0.00267716  0.49727354  1  0.126904  0  0.125256  0.138738  0  0.961984  0
C  C26  1  0.75747571  0.21232485  0.98692290  1  1.661139  0  0.238421  0.708705  0  4.188654  0
C  C27  1  0.25537304  0.99244560  0.78876559  1  1.68539  0  0.240715  0.704102  0  4.187172  0
C  C28  1  0.75578255  0.00287343  0.78908852  1  1.665449  0  0.23849  0.707073  0  4.188354  0
C  C29  1  0.25964999  0.20922944  0.00146713  1  1.621263  0  0.241753  0.709825  0  4.179224  0
C  C30  1  0.26007783  0.01238355  0.20356997  1  1.616174  0  0.240353  0.703835  0  4.189438  0
C  C31  1  0.75538746  0.79448513  0.01008415  1  1.635896  0  0.240012  0.705259  0  4.184046  0
C  C32  1  0.25494480  0.79297245  0.99367843  1  1.666933  0  0.240465  0.70565  0  4.190404  0
C  C33  1  0.75344736  0.99725419  0.20369479  1  1.662852  0  0.240496  0.706074  0  4.190684  0
C  C34  1  0.56265467  0.42216255  0.99700756  1  0.102198  0  0.017406  0.097407  0  4.067364  0
C  C35  1  0.45225612  0.42114471  0.99843886  1  0.037317  0  0.0189  0.098302  0  4.065113  0
C  C36  1  0.39880187  0.50167072  0.99820926  1  0.004076  0  -0.055621  -0.139417  0  3.863286  0
C  C37  1  0.45045932  0.58321057  0.99821022  1  0.053882  0  0.020423  0.100645  0  4.063513  0
C  C38  1  0.56087102  0.58415156  0.99985142  1  0.209011  0  0.018197  0.096991  0  4.067465  0
C  C39  1  0.61434761  0.50362173  0.99834733  1  0.039619  0  -0.057216  -0.141042  0  3.867071  0
C  C40  1  0.56116546  0.00124699  0.57839978  1  0.198505  0  0.016187  0.09232  0  4.069659  0
C  C41  1  0.45071445  0.00049723  0.57838549  1  0.05776  0  0.019596  0.100228  0  4.065032  0
C  C42  1  0.39811595  0.00237023  0.49722574  1  -0.003215  0  -0.053431  -0.138541  0  3.855511  0
C  C43  1  0.45107594  0.00370206  0.41618442  1  0.049701  0  0.019162  0.099675  0  4.064725  0
C  C44  1  0.56145119  0.00180894  0.41615848  1  0.246643  0  0.017802  0.097687  0  4.070726  0
C  C45  1  0.61406254  0.00129592  0.49728103  1  -0.050931  0  -0.056123  -0.141429  0  3.864872  0
C  C46  1  0.39341447  0.00696597  0.33696390  1  -0.010054  0  -0.020313  -0.034102  0  4.089128  0
C  C47  1  0.33730261  0.01064903  0.27237658  1  -0.183636  0  -0.025201  -0.156998  0  3.912204  0
C  C48  1  0.67578743  0.99778968  0.27240725  1  0.323677  0  -0.027369  -0.161747  0  3.914297  0
C  C49  1  0.61940049  0.00023584  0.33697382  1  -0.594067  0  -0.022459  -0.035755  0  4.098021  0
C  C50  1  0.39183136  0.99757136  0.65714220  1  -0.271713  0  -0.021183  -0.036151  0  4.08803  0
C  C51  1  0.33279968  0.99404122  0.71991944  1  -0.008021  0  -0.023181  -0.153906  0  3.910309  0
C  C52  1  0.67835318  0.00340864  0.72043315  1  -0.130429  0  -0.034959  -0.17668  0  3.925862  0
C  C53  1  0.61982426  0.00209490  0.65726719  1  -0.146782  0  -0.019326  -0.026056  0  4.090351  0
C  C54  1  0.39088180  0.66131726  0.99643255  1  -0.084722  0  -0.021808  -0.036014  0  4.088343  0
C  C55  1  0.33191924  0.72393814  0.99396604  1  -0.173342  0  -0.025704  -0.157634  0  3.910387  0
C  C56  1  0.61911295  0.66303760  0.00341808  1  -0.484795  0  -0.021263  -0.033119  0  4.089832  0
C  C57  1  0.67784183  0.72585259  0.00782320  1  0.231622  0  -0.027396  -0.160853  0  3.914306  0
C  C58  1  0.33675332  0.27827105  0.00214944  1  -0.065714  0  -0.027348  -0.164755  0  3.915384  0
C  C59  1  0.39440053  0.34194745  0.00000361  1  -0.109988  0  -0.020576  -0.031213  0  4.089189  0
C  C60  1  0.68032897  0.28102309  0.98974089  1  0.055593  0  -0.032007  -0.170048  0  3.924788  0
C  C61  1  0.62197252  0.34398298  0.99389677  1  -0.317382  0  -0.022031  -0.033167  0  4.096268  0
O  O62  1  0.85130126  0.24021428  0.98349455  1  -1.175394  0  -0.352646  -0.65728  0  2.263991  0
O  O63  1  0.72770120  0.13258015  0.98893500  1  -1.143759  0  -0.333232  -0.583675  0  2.222141  0
O  O64  1  0.16197826  0.99112833  0.76176579  1  -1.142091  0  -0.344102  -0.604908  0  2.233513  0
O  O65  1  0.28630430  0.99365766  0.86896601  1  -1.153366  0  -0.347126  -0.604338  0  2.227006  0
O  O66  1  0.84965693  0.00383489  0.76116491  1  -1.176616  0  -0.351949  -0.655882  0  2.250519  0
O  O67  1  0.72594150  0.00031247  0.86923510  1  -1.153556  0  -0.33694  -0.586012  0  2.21531  0
O  O68  1  0.16586165  0.23614982  0.00705751  1  -1.170222  0  -0.342204  -0.638562  0  2.255933  0
O  O69  1  0.28959591  0.12982386  0.99370828  1  -1.144287  0  -0.333394  -0.583909  0  2.216499  0
O  O70  1  0.01039657  0.23974198  0.86932912  1  -1.239728  0  -0.658988  -0.932284  0  1.888886  0
O  O71  1  0.00562492  0.28342386  0.08835995  1  -1.230597  0  -0.575832  -0.77675  0  2.031751  0
O  O72  1  0.00061588  0.12068312  0.75112107  1  -1.267288  0  -0.607694  -0.815338  0  2.007005  0
O  O73  1  0.00290728  0.87389815  0.75752317  1  -1.226556  0  -0.65722  -0.934754  0  1.882198  0
O  O74  1  0.92413301  0.06788446  0.92584949  1  -1.21423  0  -0.792323  -1.177274  0  2.122309  0
O  O75  1  0.11562120  0.09474631  0.89834882  1  -1.249092  0  -0.684379  -1.038519  0  2.241051  0
O  O76  1  0.16714286  0.01734079  0.23150699  1  -1.153524  0  -0.342756  -0.61853  0  2.258003  0
O  O77  1  0.28994763  0.00777964  0.12322814  1  -1.150338  0  -0.346318  -0.600379  0  2.221209  0
O  O78  1  0.84881046  0.76693805  0.01442311  1  -1.163525  0  -0.349826  -0.631409  0  2.242512  0
O  O79  1  0.72529248  0.87438573  0.00626032  1  -1.143679  0  -0.339192  -0.592497  0  2.216059  0
O  O80  1  0.16110455  0.76649854  0.98960654  1  -1.161416  0  -0.342194  -0.635118  0  2.24629  0
O  O81  1  0.28631276  0.87246187  0.99886651  1  -1.15224  0  -0.338877  -0.591161  0  2.224809  0
O  O82  1  0.84582514  0.98689050  0.23043131  1  -1.162995  0  -0.327913  -0.607831  0  2.259681  0
O  O83  1  0.72395563  0.00860759  0.12377526  1  -1.154505  0  -0.353797  -0.608037  0  2.224709  0
O  O84  1  0.00513256  0.88280869  0.24642136  1  -1.265195  0  -0.60849  -0.812217  0  2.004909  0
O  O85  1  0.99462428  0.11067410  0.25302733  1  -1.191899  0  -0.705384  -0.956528  0  1.767104  0
O  O86  1  0.00786764  0.76429943  0.12576995  1  -1.222296  0  -0.659083  -0.930547  0  1.878946  0
O  O87  1  0.00751038  0.75611786  0.87794211  1  -1.246857  0  -0.609869  -0.820973  0  1.995665  0
O  O88  1  0.11513597  0.90958886  0.09608964  1  -1.250628  0  -0.680606  -1.035271  0  2.226003  0
O  O89  1  0.92414202  0.93871618  0.06787459  1  -1.209532  0  -0.790827  -1.178619  0  2.134064  0
O  O90  1  0.09150306  0.07377851  0.06370951  1  -1.216537  0  -0.786566  -1.174474  0  2.092899  0
O  O91  1  0.89622597  0.90374121  0.90757167  1  -1.254648  0  -0.688885  -1.056989  0  2.299212  0
O  O92  1  0.90268121  0.10497433  0.09201527  1  -1.24747  0  -0.676105  -1.046535  0  2.197077  0
O  O93  1  0.08795620  0.93154278  0.93079618  1  -1.211164  0  -0.787464  -1.16373  0  2.089808  0
