# generated using pymatgen
data_Cu2H7C9S2N7
_symmetry_space_group_name_H-M   'P 1'
_cell_length_a   5.72426099
_cell_length_b   9.47410569
_cell_length_c   11.38879347
_cell_angle_alpha   90.00110406
_cell_angle_beta   89.99898899
_cell_angle_gamma   93.46868103
_symmetry_Int_Tables_number   1
_chemical_formula_structural   Cu2H7C9S2N7
_chemical_formula_sum   'Cu4 H14 C18 S4 N14'
_cell_volume   616.50843155
_cell_formula_units_Z   2
loop_
 _symmetry_equiv_pos_site_id
 _symmetry_equiv_pos_as_xyz
  1  'x, y, z'
loop_
 _atom_site_type_symbol
 _atom_site_label
 _atom_site_symmetry_multiplicity
 _atom_site_fract_x
 _atom_site_fract_y
 _atom_site_fract_z
 _atom_site_occupancy
 _atom_site_hle17_bader_spin_density
 _atom_site_hle17_ddec_charge
 _atom_site_hle17_ddec_spin_density
 _atom_site_hle17_ddec_sum_bond_order
 _atom_site_hle17_magmom
 _atom_site_hse06_10hf_bader_spin_density
 _atom_site_hse06_10hf_ddec_charge
 _atom_site_hse06_10hf_ddec_spin_density
 _atom_site_hse06_10hf_ddec_sum_bond_order
 _atom_site_hse06_10hf_magmom
 _atom_site_hse06_bader_spin_density
 _atom_site_hse06_ddec_charge
 _atom_site_hse06_ddec_spin_density
 _atom_site_hse06_ddec_sum_bond_order
 _atom_site_hse06_magmom
 _atom_site_pbe_bader_spin_density
 _atom_site_pbe_cm5_charge
 _atom_site_pbe_ddec_charge
 _atom_site_pbe_ddec_spin_density
 _atom_site_pbe_ddec_sum_bond_order
 _atom_site_pbe_magmom
Cu  Cu0  1  0.32293427  0.46809957  0.79020827  1  0  0.430603  0  2.083814  0  0  0.324863  0  2.594546  0  0  0.329567  0  2.543013  0  0  0.487632  0.325163  0  2.626692  0
Cu  Cu1  1  0.67704599  0.53188813  0.29020191  1  0  0.430577  0  2.084051  0  0  0.324895  0  2.594816  0  0  0.329598  0  2.543302  0  0  0.487693  0.32521  0  2.626974  0
Cu  Cu2  1  0.47269756  0.43857849  0.55249268  1  0  0.420844  0  2.162228  0  0  0.321715  0  2.671991  0  0  0.324324  0  2.622123  0  0  0.497041  0.321967  0  2.704012  0
Cu  Cu3  1  0.52729141  0.56142297  0.05248787  1  0  0.420814  0  2.162313  0  0  0.321656  0  2.672045  0  0  0.324277  0  2.622264  0  0  0.497036  0.321932  0  2.704093  0
H  H4  1  0.45210122  0.11184832  0.14619221  1  0  0.306448  0  0.937014  0  0  0.290691  0  1.007703  0  0  0.295999  0  1.004664  0  0  0.282997  0.286782  0  1.010007  0
H  H5  1  0.54789842  0.88815511  0.64619888  1  0  0.30639  0  0.937063  0  0  0.290638  0  1.007745  0  0  0.295947  0  1.004706  0  0  0.282971  0.286727  0  1.010053  0
H  H6  1  0.60180283  0.97183493  0.09230575  1  0  0.312853  0  0.91754  0  0  0.299736  0  0.979993  0  0  0.304913  0  0.977134  0  0  0.288074  0.295865  0  0.98226  0
H  H7  1  0.39818821  0.02816477  0.59231625  1  0  0.312841  0  0.917333  0  0  0.299745  0  0.979757  0  0  0.304922  0  0.976897  0  0  0.288088  0.295873  0  0.982014  0
H  H8  1  0.86155403  0.01037072  0.74754217  1  0  0.118233  0  0.989501  0  0  0.124164  0  1.058575  0  0  0.127847  0  1.057715  0  0  0.10053  0.120979  0  1.060647  0
H  H9  1  0.13845054  0.98961844  0.24754906  1  0  0.118307  0  0.989388  0  0  0.124179  0  1.058517  0  0  0.127861  0  1.05766  0  0  0.100494  0.120996  0  1.060589  0
H  H10  1  0.16409832  0.83105933  0.75454292  1  0  0.091268  0  0.944336  0  0  0.10653  0  0.997897  0  0  0.108204  0  0.99673  0  0  0.101663  0.105121  0  0.998981  0
H  H11  1  0.83591659  0.16893362  0.25455243  1  0  0.091286  0  0.944386  0  0  0.106575  0  0.997905  0  0  0.108249  0  0.996737  0  0  0.101607  0.105159  0  0.999001  0
H  H12  1  0.45687083  0.83823359  0.91689378  1  0  0.108459  0  0.998184  0  0  0.111704  0  1.073195  0  0  0.115673  0  1.072084  0  0  0.090018  0.108888  0  1.073972  0
H  H13  1  0.54313083  0.16176535  0.41690584  1  0  0.108503  0  0.998163  0  0  0.111732  0  1.073178  0  0  0.115713  0  1.072033  0  0  0.090021  0.108916  0  1.073948  0
H  H14  1  0.60036569  0.16774508  0.76199940  1  0  0.111244  0  0.947305  0  0  0.119944  0  1.011662  0  0  0.122706  0  1.009123  0  0  0.139839  0.117702  0  1.013969  0
H  H15  1  0.39965049  0.83224853  0.26200094  1  0  0.111189  0  0.947428  0  0  0.119884  0  1.011795  0  0  0.122645  0  1.009256  0  0  0.13984  0.117663  0  1.014081  0
H  H16  1  0.94428273  0.33498717  0.06586617  1  0  0.122539  0  0.938619  0  0  0.12768  0  1.007526  0  0  0.130567  0  1.003492  0  0  0.146354  0.12528  0  1.010836  0
H  H17  1  0.05572992  0.66501650  0.56587313  1  0  0.122554  0  0.938624  0  0  0.127717  0  1.007494  0  0  0.130603  0  1.003466  0  0  0.146351  0.125313  0  1.010806  0
C  C18  1  0.98773528  0.10545828  0.91141500  1  0  0.346207  0  3.840168  0  0  0.320489  0  4.108704  0  0  0.335849  0  4.123852  0  0  0.212958  0.310149  0  4.098247  0
C  C19  1  0.01226663  0.89453911  0.41142034  1  0  0.346147  0  3.840241  0  0  0.320509  0  4.108668  0  0  0.33587  0  4.123823  0  0  0.213028  0.310168  0  4.098209  0
C  C20  1  0.98639506  0.00923334  0.81937515  1  0  -0.23957  0  3.751952  0  0  -0.264157  0  4.014348  0  0  -0.274994  0  4.035876  0  0  -0.113629  -0.257652  0  4.001831  0
C  C21  1  0.01360829  0.99076221  0.31938275  1  0  -0.239792  0  3.752068  0  0  -0.264325  0  4.014397  0  0  -0.275161  0  4.035918  0  0  -0.113686  -0.257819  0  4.001888  0
C  C22  1  0.15906322  0.91090273  0.82317054  1  0  0.030295  0  3.757805  0  0  0.015246  0  4.001509  0  0  0.021522  0  4.020576  0  0  -0.077072  0.010876  0  3.98985  0
C  C23  1  0.84094164  0.08909316  0.32318079  1  0  0.030435  0  3.757907  0  0  0.015359  0  4.001577  0  0  0.021636  0  4.020644  0  0  -0.076973  0.010989  0  3.989909  0
C  C24  1  0.32119028  0.91396839  0.91347865  1  0  -0.237446  0  3.698016  0  0  -0.249914  0  3.940144  0  0  -0.262056  0  3.961966  0  0  -0.106128  -0.242646  0  3.926541  0
C  C25  1  0.67880811  0.08603025  0.41348795  1  0  -0.237657  0  3.698157  0  0  -0.25011  0  3.940284  0  0  -0.262248  0  3.962109  0  0  -0.106222  -0.242846  0  3.926672  0
C  C26  1  0.30162690  0.01521523  0.00338922  1  0  0.477836  0  3.835681  0  0  0.459154  0  4.092389  0  0  0.4768  0  4.106128  0  0  0.218081  0.447337  0  4.08304  0
C  C27  1  0.69837117  0.98478819  0.50339743  1  0  0.477749  0  3.835895  0  0  0.459094  0  4.092548  0  0  0.476735  0  4.106297  0  0  0.218054  0.447283  0  4.083193  0
C  C28  1  0.64249662  0.23293100  0.83824705  1  0  0.187738  0  3.573506  0  0  0.128331  0  3.833974  0  0  0.141501  0  3.845508  0  0  0.164364  0.11881  0  3.827237  0
C  C29  1  0.35751270  0.76706834  0.33824970  1  0  0.187614  0  3.57365  0  0  0.128181  0  3.834176  0  0  0.141348  0  3.845715  0  0  0.164275  0.118645  0  3.827445  0
C  C30  1  0.81799326  0.31890167  0.99565141  1  0  0.194484  0  3.569955  0  0  0.130328  0  3.841048  0  0  0.145451  0  3.848412  0  0  0.168419  0.120578  0  3.83622  0
C  C31  1  0.18201885  0.68110320  0.49565568  1  0  0.194474  0  3.57001  0  0  0.1303  0  3.841036  0  0  0.145422  0  3.848397  0  0  0.168434  0.120557  0  3.836196  0
C  C32  1  0.84771680  0.59254782  0.76811560  1  0  0.302471  0  3.95808  0  0  0.288123  0  4.247606  0  0  0.305305  0  4.264823  0  0  0.14715  0.276684  0  4.235587  0
C  C33  1  0.15227878  0.40745376  0.26811871  1  0  0.302411  0  3.958042  0  0  0.288065  0  4.247585  0  0  0.30525  0  4.2648  0  0  0.147173  0.276627  0  4.235557  0
C  C34  1  0.95657700  0.32810628  0.58317833  1  0  0.315593  0  3.926896  0  0  0.303445  0  4.210606  0  0  0.319635  0  4.227919  0  0  0.150173  0.292611  0  4.198498  0
C  C35  1  0.04341268  0.67189050  0.08317571  1  0  0.315573  0  3.927149  0  0  0.303428  0  4.210851  0  0  0.319622  0  4.22817  0  0  0.1502  0.292596  0  4.198759  0
S  S36  1  0.59236342  0.65513987  0.74497068  1  0  -0.344835  0  2.481684  0  0  -0.315805  0  2.891805  0  0  -0.32295  0  2.868628  0  0  -0.155246  -0.31032  0  2.907376  0
S  S37  1  0.40762134  0.34485861  0.24497162  1  0  -0.344712  0  2.482017  0  0  -0.315674  0  2.892132  0  0  -0.322821  0  2.868954  0  0  -0.155189  -0.310205  0  2.907704  0
S  S38  1  0.21186287  0.26714465  0.61290196  1  0  -0.344928  0  2.546733  0  0  -0.311857  0  2.962797  0  0  -0.319593  0  2.942201  0  0  -0.176801  -0.305988  0  2.975782  0
S  S39  1  0.78812159  0.73285689  0.11289735  1  0  -0.344977  0  2.546745  0  0  -0.311898  0  2.962789  0  0  -0.31962  0  2.942161  0  0  -0.176823  -0.306031  0  2.975803  0
N  N40  1  0.44819090  0.01996031  0.09925451  1  0  -0.679816  0  3.092118  0  0  -0.642514  0  3.3167  0  0  -0.662373  0  3.316633  0  0  -0.587672  -0.62826  0  3.316765  0
N  N41  1  0.55180723  0.98004529  0.59926535  1  0  -0.679626  0  3.092057  0  0  -0.642358  0  3.316654  0  0  -0.662216  0  3.316588  0  0  -0.587608  -0.628099  0  3.316714  0
N  N42  1  0.13426524  0.10905600  0.00228219  1  0  -0.479079  0  3.017963  0  0  -0.447752  0  3.289872  0  0  -0.463962  0  3.301181  0  0  -0.336199  -0.437365  0  3.282484  0
N  N43  1  0.86573269  0.89094521  0.50228824  1  0  -0.478945  0  3.01787  0  0  -0.447665  0  3.289743  0  0  -0.463875  0  3.301057  0  0  -0.336132  -0.437282  0  3.282354  0
N  N44  1  0.82313825  0.21309197  0.91419580  1  0  -0.138741  0  3.539197  0  0  -0.051187  0  3.759229  0  0  -0.068207  0  3.778405  0  0  -0.20733  -0.039543  0  3.745752  0
N  N45  1  0.17686730  0.78690884  0.41420115  1  0  -0.138611  0  3.539162  0  0  -0.051081  0  3.759166  0  0  -0.068104  0  3.778347  0  0  -0.207319  -0.03944  0  3.745695  0
N  N46  1  0.52985798  0.34346881  0.87237355  1  0  -0.212589  0  3.274928  0  0  -0.156378  0  3.592458  0  0  -0.164318  0  3.596585  0  0  -0.278427  -0.152423  0  3.590824  0
N  N47  1  0.47015424  0.65653250  0.37237274  1  0  -0.212256  0  3.274849  0  0  -0.156074  0  3.592359  0  0  -0.164015  0  3.596492  0  0  -0.278336  -0.152122  0  3.590742  0
N  N48  1  0.64111953  0.39751751  0.97253878  1  0  -0.211471  0  3.309654  0  0  -0.152482  0  3.624165  0  0  -0.161215  0  3.629268  0  0  -0.280053  -0.147467  0  3.621681  0
N  N49  1  0.35889617  0.60248847  0.47253954  1  0  -0.211717  0  3.309831  0  0  -0.152674  0  3.624305  0  0  -0.161398  0  3.629377  0  0  -0.280124  -0.147654  0  3.621802  0
N  N50  1  0.02860548  0.54214120  0.78521346  1  0  -0.496497  0  3.169857  0  0  -0.441497  0  3.504968  0  0  -0.455988  0  3.50574  0  0  -0.441169  -0.432064  0  3.503371  0
N  N51  1  0.97137173  0.45786404  0.28521762  1  0  -0.496578  0  3.169638  0  0  -0.441607  0  3.504841  0  0  -0.456119  0  3.505653  0  0  -0.441299  -0.432179  0  3.503245  0
N  N52  1  0.77347886  0.37404121  0.56418604  1  0  -0.492097  0  3.182836  0  0  -0.43859  0  3.518323  0  0  -0.4502  0  3.515114  0  0  -0.435571  -0.431062  0  3.520195  0
N  N53  1  0.22650716  0.62595706  0.06418680  1  0  -0.492039  0  3.183096  0  0  -0.438502  0  3.518512  0  0  -0.450128  0  3.515335  0  0  -0.43555  -0.430978  0  3.520411  0
