# generated using pymatgen
data_DyH6C8NO8
_symmetry_space_group_name_H-M   'P 1'
_cell_length_a   6.32863338
_cell_length_b   9.41179179
_cell_length_c   9.77527124
_cell_angle_alpha   72.50351934
_cell_angle_beta   80.57931517
_cell_angle_gamma   82.44527246
_symmetry_Int_Tables_number   1
_chemical_formula_structural   DyH6C8NO8
_chemical_formula_sum   'Dy2 H12 C16 N2 O16'
_cell_volume   545.72708945
_cell_formula_units_Z   2
loop_
 _symmetry_equiv_pos_site_id
 _symmetry_equiv_pos_as_xyz
  1  'x, y, z'
loop_
 _atom_site_type_symbol
 _atom_site_label
 _atom_site_symmetry_multiplicity
 _atom_site_fract_x
 _atom_site_fract_y
 _atom_site_fract_z
 _atom_site_occupancy
 _atom_site_hle17_bader_spin_density
 _atom_site_hle17_ddec_charge
 _atom_site_hle17_ddec_spin_density
 _atom_site_hle17_ddec_sum_bond_order
 _atom_site_hle17_magmom
 _atom_site_hse06_10hf_bader_spin_density
 _atom_site_hse06_10hf_ddec_charge
 _atom_site_hse06_10hf_ddec_spin_density
 _atom_site_hse06_10hf_ddec_sum_bond_order
 _atom_site_hse06_10hf_magmom
 _atom_site_hse06_bader_spin_density
 _atom_site_hse06_ddec_charge
 _atom_site_hse06_ddec_spin_density
 _atom_site_hse06_ddec_sum_bond_order
 _atom_site_hse06_magmom
 _atom_site_pbe_bader_spin_density
 _atom_site_pbe_cm5_charge
 _atom_site_pbe_ddec_charge
 _atom_site_pbe_ddec_spin_density
 _atom_site_pbe_ddec_sum_bond_order
 _atom_site_pbe_magmom
Dy  Dy0  1  0.59168914  0.78983669  0.80341581  1  0  2.159523  0  1.808336  0  0  2.088915  0  2.137014  0  0  2.216097  0  1.944773  0  0  1.497234  2.053938  0  2.168478  0
Dy  Dy1  1  0.40830825  0.21016191  0.19658464  1  0  2.159452  0  1.808518  0  0  2.08883  0  2.137252  0  0  2.216037  0  1.94496  0  0  1.497203  2.053874  0  2.168739  0
H  H2  1  0.71118282  0.52170675  0.45766818  1  0  0.316008  0  0.831748  0  0  0.306375  0  0.874374  0  0  0.313385  0  0.870014  0  0  0.344556  0.301221  0  0.877755  0
H  H3  1  0.28881724  0.47829523  0.54232993  1  0  0.316059  0  0.831723  0  0  0.306414  0  0.874354  0  0  0.313426  0  0.869992  0  0  0.344585  0.30126  0  0.877729  0
H  H4  1  0.94291333  0.17286750  0.89057486  1  0  0.118336  0  0.910222  0  0  0.131676  0  0.96202  0  0  0.134953  0  0.958242  0  0  0.124378  0.129078  0  0.964799  0
H  H5  1  0.05709127  0.82713677  0.10942407  1  0  0.118326  0  0.910195  0  0  0.13164  0  0.96202  0  0  0.134919  0  0.958247  0  0  0.1244  0.129083  0  0.964745  0
H  H6  1  0.88960916  0.29439033  0.43395624  1  0  0.105778  0  0.9439  0  0  0.115395  0  1.005419  0  0  0.11903  0  1.001342  0  0  0.13687  0.112749  0  1.008411  0
H  H7  1  0.11039286  0.70560943  0.56604331  1  0  0.105836  0  0.943858  0  0  0.115425  0  1.005407  0  0  0.119061  0  1.00133  0  0  0.136868  0.112775  0  1.008394  0
H  H8  1  0.02329582  0.10799321  0.65399581  1  0  0.133407  0  0.954778  0  0  0.140422  0  1.015471  0  0  0.14473  0  1.013576  0  0  0.119219  0.137426  0  1.016874  0
H  H9  1  0.97670332  0.89200429  0.34600476  1  0  0.133328  0  0.954874  0  0  0.140411  0  1.015477  0  0  0.144719  0  1.013582  0  0  0.119212  0.137418  0  1.016881  0
H  H10  1  0.05282505  0.73164431  0.85672370  1  0  0.451874  0  0.83866  0  0  0.424732  0  0.893997  0  0  0.435352  0  0.878796  0  0  0.30994  0.417491  0  0.90452  0
H  H11  1  0.94717811  0.26835883  0.14327575  1  0  0.451892  0  0.838621  0  0  0.424745  0  0.893967  0  0  0.435364  0  0.878767  0  0  0.309947  0.417511  0  0.904482  0
H  H12  1  0.06515748  0.84623371  0.70557409  1  0  0.445846  0  0.84844  0  0  0.416511  0  0.909304  0  0  0.428421  0  0.891758  0  0  0.307502  0.408544  0  0.921146  0
H  H13  1  0.93483961  0.15376713  0.29442675  1  0  0.44581  0  0.848479  0  0  0.416474  0  0.909347  0  0  0.428383  0  0.891803  0  0  0.30749  0.408508  0  0.921188  0
C  C14  1  0.71451819  0.49335161  0.67309282  1  0  0.555229  0  3.834119  0  0  0.510105  0  4.118562  0  0  0.538325  0  4.125036  0  0  0.23266  0.490987  0  4.115934  0
C  C15  1  0.28547797  0.50665480  0.32690238  1  0  0.555258  0  3.834136  0  0  0.510142  0  4.118519  0  0  0.538363  0  4.124991  0  0  0.23272  0.491025  0  4.115899  0
C  C16  1  0.43879679  0.05868691  0.94214222  1  0  0.551154  0  3.967538  0  0  0.509085  0  4.276677  0  0  0.537543  0  4.277445  0  0  0.203713  0.489469  0  4.281443  0
C  C17  1  0.56121711  0.94130734  0.05785348  1  0  0.551212  0  3.967555  0  0  0.509178  0  4.276649  0  0  0.537636  0  4.277414  0  0  0.203785  0.489562  0  4.281418  0
C  C18  1  0.38102960  0.98306249  0.51587505  1  0  0.575931  0  3.899533  0  0  0.528941  0  4.20076  0  0  0.559655  0  4.196868  0  0  0.226397  0.508311  0  4.207565  0
C  C19  1  0.61897601  0.01692504  0.48413488  1  0  0.575794  0  3.899737  0  0  0.528982  0  4.200764  0  0  0.559698  0  4.196867  0  0  0.226421  0.508341  0  4.207591  0
C  C20  1  0.73506535  0.42107891  0.94248859  1  0  0.752675  0  3.842958  0  0  0.698743  0  4.141025  0  0  0.736271  0  4.133875  0  0  0.241247  0.673699  0  4.148525  0
C  C21  1  0.26492166  0.57892520  0.05751247  1  0  0.752674  0  3.842706  0  0  0.698646  0  4.140939  0  0  0.736175  0  4.133792  0  0  0.241222  0.673602  0  4.14844  0
C  C22  1  0.78219062  0.38646364  0.80081831  1  0  -0.250635  0  3.683644  0  0  -0.229418  0  3.925761  0  0  -0.248566  0  3.945509  0  0  -0.016121  -0.216926  0  3.911808  0
C  C23  1  0.21780935  0.61353947  0.19918151  1  0  -0.250601  0  3.683677  0  0  -0.229354  0  3.92577  0  0  -0.248503  0  3.945519  0  0  -0.016102  -0.216868  0  3.911837  0
C  C24  1  0.89074357  0.25074165  0.79210330  1  0  0.06253  0  3.654761  0  0  0.027562  0  3.909211  0  0  0.040542  0  3.920332  0  0  -0.039075  0.019731  0  3.900617  0
C  C25  1  0.10926414  0.74926264  0.20789220  1  0  0.062549  0  3.654777  0  0  0.027613  0  3.909224  0  0  0.040587  0  3.92035  0  0  -0.039093  0.019757  0  3.900626  0
C  C26  1  0.86514866  0.31345791  0.53997313  1  0  0.177537  0  3.628242  0  0  0.129751  0  3.896496  0  0  0.142365  0  3.908869  0  0  0.064259  0.121701  0  3.887795  0
C  C27  1  0.13485770  0.68654526  0.46002593  1  0  0.177496  0  3.628203  0  0  0.129715  0  3.89647  0  0  0.142329  0  3.908839  0  0  0.064253  0.12167  0  3.887756  0
C  C28  1  0.93660831  0.21341829  0.66103746  1  0  -0.145785  0  3.7129  0  0  -0.16478  0  3.985094  0  0  -0.175961  0  4.00391  0  0  -0.087957  -0.157665  0  3.97247  0
C  C29  1  0.06339816  0.78658375  0.33895987  1  0  -0.145759  0  3.713076  0  0  -0.164818  0  3.985259  0  0  -0.175999  0  4.004076  0  0  -0.087977  -0.157708  0  3.972652  0
N  N30  1  0.75812095  0.44596418  0.54888638  1  0  -0.355468  0  3.370009  0  0  -0.291036  0  3.60717  0  0  -0.309672  0  3.615341  0  0  -0.366902  -0.278149  0  3.600901  0
N  N31  1  0.24188705  0.55403785  0.45110873  1  0  -0.355535  0  3.370073  0  0  -0.291071  0  3.607188  0  0  -0.309706  0  3.615354  0  0  -0.366933  -0.278179  0  3.600909  0
O  O32  1  0.32527849  0.88840289  0.63598181  1  0  -0.654089  0  2.108784  0  0  -0.605808  0  2.347976  0  0  -0.638953  0  2.335148  0  0  -0.345988  -0.58847  0  2.35464  0
O  O33  1  0.67471848  0.11159792  0.36401496  1  0  -0.654003  0  2.108511  0  0  -0.605794  0  2.347635  0  0  -0.638944  0  2.334806  0  0  -0.34602  -0.588454  0  2.354314  0
O  O34  1  0.71242961  0.55447500  0.94659743  1  0  -0.669821  0  2.045304  0  0  -0.626831  0  2.287221  0  0  -0.661361  0  2.272207  0  0  -0.371749  -0.609588  0  2.294756  0
O  O35  1  0.28756712  0.44551687  0.05340408  1  0  -0.669837  0  2.045008  0  0  -0.626816  0  2.286984  0  0  -0.661351  0  2.271972  0  0  -0.371771  -0.609574  0  2.294521  0
O  O36  1  0.43726988  0.02784991  0.82471134  1  0  -0.668392  0  2.039122  0  0  -0.633988  0  2.276645  0  0  -0.667176  0  2.266145  0  0  -0.38562  -0.617787  0  2.281262  0
O  O37  1  0.56273069  0.97214987  0.17529350  1  0  -0.668555  0  2.038875  0  0  -0.634165  0  2.276392  0  0  -0.66736  0  2.265888  0  0  -0.385723  -0.617965  0  2.281019  0
O  O38  1  0.61811945  0.62238246  0.66175587  1  0  -0.691516  0  2.041609  0  0  -0.661734  0  2.294008  0  0  -0.696102  0  2.28217  0  0  -0.388838  -0.645904  0  2.300259  0
O  O39  1  0.38187487  0.37761499  0.33824427  1  0  -0.691447  0  2.041461  0  0  -0.661678  0  2.293853  0  0  -0.696053  0  2.282012  0  0  -0.388821  -0.645846  0  2.300109  0
O  O40  1  0.35087437  0.17493321  0.97487436  1  0  -0.65116  0  2.039839  0  0  -0.618783  0  2.280039  0  0  -0.650656  0  2.268201  0  0  -0.378743  -0.603108  0  2.286241  0
O  O41  1  0.64912208  0.82506207  0.02513333  1  0  -0.651098  0  2.040152  0  0  -0.618733  0  2.280325  0  0  -0.650601  0  2.268488  0  0  -0.378723  -0.603058  0  2.286526  0
O  O42  1  0.26096370  0.05138594  0.42159536  1  0  -0.636073  0  2.068846  0  0  -0.598931  0  2.32052  0  0  -0.633085  0  2.311493  0  0  -0.36421  -0.583014  0  2.32665  0
O  O43  1  0.73903209  0.94861265  0.57840529  1  0  -0.63605  0  2.069171  0  0  -0.598978  0  2.320787  0  0  -0.633123  0  2.311758  0  0  -0.364232  -0.583057  0  2.326921  0
O  O44  1  0.72213498  0.30813838  0.05691201  1  0  -0.761075  0  2.050404  0  0  -0.712746  0  2.296442  0  0  -0.750026  0  2.279352  0  0  -0.399954  -0.694215  0  2.305286  0
O  O45  1  0.27785745  0.69186130  0.94308871  1  0  -0.761072  0  2.050403  0  0  -0.712736  0  2.296509  0  0  -0.750008  0  2.279412  0  0  -0.399935  -0.694206  0  2.305351  0
O  O46  1  0.96237271  0.78300139  0.77936216  1  0  -0.921788  0  1.910185  0  0  -0.88412  0  2.106575  0  0  -0.915087  0  2.067015  0  0  -0.662805  -0.869505  0  2.129243  0
O  O47  1  0.03762437  0.21700061  0.22064345  1  0  -0.921754  0  1.910201  0  0  -0.884108  0  2.106646  0  0  -0.915072  0  2.067079  0  0  -0.662792  -0.869485  0  2.129306  0
