# generated using pymatgen
data_AlH39(C13O2)3
_symmetry_space_group_name_H-M   'P 1'
_cell_length_a   4.23661254
_cell_length_b   16.19602770
_cell_length_c   16.19708308
_cell_angle_alpha   120.68093024
_cell_angle_beta   89.71759384
_cell_angle_gamma   89.72233378
_symmetry_Int_Tables_number   1
_chemical_formula_structural   AlH39(C13O2)3
_chemical_formula_sum   'Al1 H39 C39 O6'
_cell_volume   955.76807340
_cell_formula_units_Z   1
loop_
 _symmetry_equiv_pos_site_id
 _symmetry_equiv_pos_as_xyz
  1  'x, y, z'
loop_
 _atom_site_type_symbol
 _atom_site_label
 _atom_site_symmetry_multiplicity
 _atom_site_fract_x
 _atom_site_fract_y
 _atom_site_fract_z
 _atom_site_occupancy
 _atom_site_pbe_bader_charge
 _atom_site_pbe_bader_spin_density
 _atom_site_pbe_cm5_charge
 _atom_site_pbe_ddec_charge
 _atom_site_pbe_ddec_spin_density
 _atom_site_pbe_ddec_sum_bond_order
 _atom_site_pbe_magmom
Al  Al0  1  0.00006894  0.50075621  0.49917990  1  2.516153  0  0.45256  1.639765  0  2.509952  0
H  H1  1  0.50002577  0.91971756  0.08020072  1  0.04362  0  0.102784  0.107881  0  1.048381  0
H  H2  1  0.43174244  0.65569269  0.07931764  1  0.023081  0  0.104029  0.111188  0  1.023822  0
H  H3  1  0.56812290  0.92053466  0.34416740  1  0.024828  0  0.10415  0.111463  0  1.024025  0
H  H4  1  0.28102880  0.22380650  0.55655605  1  0.030363  0  0.087527  0.120347  0  0.996499  0
H  H5  1  0.27307756  0.32948902  0.54936478  1  0.053452  0  0.094654  0.132738  0  1.021736  0
H  H6  1  0.95061301  0.25028404  0.50713245  1  0.064146  0  0.092744  0.133667  0  1.019627  0
H  H7  1  0.72816952  0.21811225  0.16411251  1  0.011763  0  0.08802  0.121525  0  0.993792  0
H  H8  1  0.74175750  0.32463384  0.27829072  1  0.05723  0  0.093952  0.12855  0  1.03686  0
H  H9  1  0.06574301  0.24467344  0.23753479  1  0.058461  0  0.092835  0.134412  0  1.016305  0
H  H10  1  0.93015450  0.09523217  0.43371273  1  0.06774  0  0.089474  0.1243  0  1.03014  0
H  H11  1  0.06943019  0.98051648  0.34537431  1  0.043883  0  0.08757  0.117746  0  1.077964  0
H  H12  1  0.26116903  0.04425106  0.45779532  1  0.002069  0  0.085802  0.114711  0  1.013302  0
H  H13  1  0.09851114  0.09139643  0.15838238  1  0.038577  0  0.089439  0.123097  0  1.030654  0
H  H14  1  0.98281218  0.97826461  0.13849033  1  0.015826  0  0.087662  0.117036  0  1.080435  0
H  H15  1  0.77347675  0.03247180  0.08350042  1  0.001118  0  0.087847  0.120792  0  0.995732  0
H  H16  1  0.27187828  0.83577052  0.78178247  1  0.014524  0  0.087978  0.121581  0  0.99391  0
H  H17  1  0.25831004  0.72156816  0.67527218  1  0.056494  0  0.094029  0.128678  0  1.036805  0
H  H18  1  0.93428234  0.76231914  0.75522509  1  0.058359  0  0.09276  0.13432  0  1.016114  0
H  H19  1  0.90157199  0.84151802  0.90849612  1  0.040985  0  0.089352  0.12299  0  1.030378  0
H  H20  1  0.01721806  0.86140333  0.02161873  1  0.017171  0  0.087498  0.116813  0  1.080605  0
H  H21  1  0.22663025  0.91639211  0.96742304  1  0.003219  0  0.087797  0.120783  0  0.995894  0
H  H22  1  0.71899470  0.44332853  0.77613155  1  0.030177  0  0.087531  0.120335  0  0.996658  0
H  H23  1  0.72700867  0.45050822  0.67043890  1  0.052562  0  0.094693  0.132772  0  1.021328  0
H  H24  1  0.04943871  0.49275627  0.74966144  1  0.06336  0  0.092692  0.1336  0  1.019755  0
H  H25  1  0.06989461  0.56622376  0.90469211  1  0.067193  0  0.089357  0.124075  0  1.030756  0
H  H26  1  0.93061865  0.65456432  0.01940103  1  0.045655  0  0.08766  0.117899  0  1.077922  0
H  H27  1  0.73890493  0.54211367  0.95566978  1  0.00161  0  0.085727  0.114711  0  1.012957  0
H  H28  1  0.76167701  0.54402801  0.08353837  1  0.012476  0  0.086425  0.11535  0  1.019065  0
H  H29  1  0.95241276  0.65662535  0.13776066  1  0.040305  0  0.087794  0.117648  0  1.07767  0
H  H30  1  0.08703334  0.56643979  0.15998342  1  0.03935  0  0.090075  0.126464  0  1.022436  0
H  H31  1  0.01625364  0.47870239  0.24426540  1  0.056878  0  0.095218  0.138378  0  0.99601  0
H  H32  1  0.63653924  0.43788018  0.24970882  1  0.049895  0  0.092285  0.128906  0  1.030531  0
H  H33  1  0.74296916  0.45145351  0.15134567  1  -0.00475  0  0.08635  0.118389  0  1.014055  0
H  H34  1  0.23792476  0.91629826  0.45573338  1  0.015235  0  0.086529  0.115585  0  1.018934  0
H  H35  1  0.04734625  0.86202219  0.34312092  1  0.038253  0  0.087949  0.117758  0  1.077314  0
H  H36  1  0.91255323  0.83983452  0.43331892  1  0.038789  0  0.090308  0.127221  0  1.021635  0
H  H37  1  0.98353210  0.75565378  0.52117649  1  0.056662  0  0.095322  0.138485  0  0.996428  0
H  H38  1  0.36323984  0.75022988  0.56199288  1  0.051666  0  0.092326  0.128839  0  1.030817  0
H  H39  1  0.25685791  0.84856257  0.54837335  1  -0.004617  0  0.086471  0.118559  0  1.013839  0
C  C40  1  0.49523863  0.57381819  0.64596516  1  1.571002  0  0.279543  0.683496  0  4.055916  0
C  C41  1  0.50008828  0.57326556  0.42669045  1  1.533525  0  0.27635  0.676724  0  4.025344  0
C  C42  1  0.50492204  0.35394751  0.42605947  1  1.572143  0  0.279254  0.683163  0  4.056533  0
C  C43  1  0.47941300  0.78036558  0.06521283  1  -0.125945  0  -0.005628  0.089806  0  3.931862  0
C  C44  1  0.50002141  0.88123001  0.11867325  1  0.113567  0  -0.088226  -0.17561  0  3.913286  0
C  C45  1  0.52062535  0.93467109  0.21952700  1  -0.129175  0  -0.005606  0.089561  0  3.932488  0
C  C46  1  0.53261462  0.88196618  0.26701411  1  0.041231  0  -0.086463  -0.172987  0  3.904196  0
C  C47  1  0.49994633  0.78124464  0.21860969  1  -0.015462  0  -0.006526  0.083113  0  3.931943  0
C  C48  1  0.46736036  0.73285411  0.11789617  1  -0.030503  0  -0.086268  -0.172661  0  3.902998  0
C  C49  1  0.66326892  0.19541749  0.28364686  1  -0.013885  0  -0.012032  0.084083  0  3.956034  0
C  C50  1  0.68430831  0.09457455  0.23674083  1  0.005788  0  -0.011707  0.064262  0  3.916746  0
C  C51  1  0.52186646  0.04299272  0.27313077  1  0.000439  0  -0.007508  -0.042745  0  3.865449  0
C  C52  1  0.35128907  0.09697794  0.36083881  1  0.06973  0  -0.011527  0.065718  0  3.916676  0
C  C53  1  0.36113061  0.19807921  0.41335340  1  -0.067044  0  -0.011888  0.083336  0  3.955433  0
C  C54  1  0.50978473  0.24613529  0.37283093  1  -0.035338  0  -0.015472  -0.154318  0  3.957389  0
C  C55  1  0.31571258  0.76314117  0.90531640  1  0.0085  0  -0.011628  0.064632  0  3.91602  0
C  C56  1  0.33676273  0.71622783  0.80447972  1  -0.014928  0  -0.012188  0.083897  0  3.956162  0
C  C57  1  0.49026497  0.62706615  0.75379028  1  -0.040876  0  -0.015677  -0.153995  0  3.956404  0
C  C58  1  0.63895461  0.58652621  0.80183693  1  -0.059617  0  -0.012256  0.082628  0  3.955899  0
C  C59  1  0.64876506  0.63904880  0.90291901  1  0.068646  0  -0.011253  0.066215  0  3.916435  0
C  C60  1  0.47817676  0.72676844  0.95690518  1  -0.002201  0  -0.007607  -0.043263  0  3.865313  0
C  C61  1  0.66351847  0.63887530  0.23597407  1  -0.023882  0  -0.012001  0.059944  0  3.915822  0
C  C62  1  0.64211999  0.58499379  0.28187763  1  0.027029  0  -0.004103  0.100831  0  3.922192  0
C  C63  1  0.49991529  0.62631164  0.37359507  1  0.005892  0  -0.018552  -0.17295  0  3.926679  0
C  C64  1  0.35768136  0.71801251  0.41487611  1  0.036689  0  -0.004146  0.100288  0  3.922642  0
C  C65  1  0.33622064  0.76389251  0.36096522  1  -0.025398  0  -0.012091  0.06037  0  3.915955  0
C  C66  1  0.49987603  0.72759028  0.27224895  1  -0.087535  0  -0.001535  -0.029394  0  3.862523  0
C  C67  1  0.20948991  0.25339668  0.51152097  1  -0.083937  0  -0.240483  -0.401149  0  3.953786  0
C  C68  1  0.80652134  0.24837014  0.23872009  1  -0.076344  0  -0.240525  -0.402179  0  3.958804  0
C  C69  1  0.14327468  0.05158001  0.40140994  1  -0.062225  0  -0.248298  -0.41287  0  4.003118  0
C  C70  1  0.89399246  0.04649742  0.14957909  1  -0.018292  0  -0.247882  -0.41498  0  4.005213  0
C  C71  1  0.19353542  0.76115106  0.75152489  1  -0.077995  0  -0.240299  -0.402175  0  3.959083  0
C  C72  1  0.10609197  0.85031968  0.95340319  1  -0.023662  0  -0.24758  -0.414638  0  4.004479  0
C  C73  1  0.79059003  0.48836412  0.74653693  1  -0.083907  0  -0.240334  -0.400921  0  3.954051  0
C  C74  1  0.85680987  0.59851216  0.94833827  1  -0.062873  0  -0.248249  -0.412916  0  4.003047  0
C  C75  1  0.87579754  0.59927346  0.14951747  1  -0.047257  0  -0.248995  -0.414957  0  4.004718  0
C  C76  1  0.76568510  0.48305278  0.22917727  1  -0.055718  0  -0.243777  -0.403938  0  3.972832  0
C  C77  1  0.12382325  0.85030472  0.40049915  1  -0.046186  0  -0.249362  -0.416131  0  4.004319  0
C  C78  1  0.23409102  0.77073895  0.51681312  1  -0.057119  0  -0.244125  -0.404082  0  3.972915  0
O  O79  1  0.26895366  0.39460780  0.41246617  1  -1.259613  0  -0.235133  -0.599289  0  2.351304  0
O  O80  1  0.26222040  0.51892697  0.60360199  1  -1.264788  0  -0.23585  -0.608208  0  2.375056  0
O  O81  1  0.26376666  0.58560463  0.48142626  1  -1.265969  0  -0.23828  -0.613592  0  2.409278  0
O  O82  1  0.73790556  0.39631281  0.48095953  1  -1.263187  0  -0.23574  -0.608362  0  2.375609  0
O  O83  1  0.73651451  0.51856683  0.41435235  1  -1.268035  0  -0.238347  -0.613258  0  2.409143  0
O  O84  1  0.73120173  0.58743114  0.60532843  1  -1.259047  0  -0.235177  -0.599858  0  2.352124  0
