# generated using pymatgen
data_Hg2H10C12I4N4O
_symmetry_space_group_name_H-M   'P 1'
_cell_length_a   8.01454340
_cell_length_b   9.37569923
_cell_length_c   14.32701941
_cell_angle_alpha   90.00027785
_cell_angle_beta   88.90403264
_cell_angle_gamma   90.00023155
_symmetry_Int_Tables_number   1
_chemical_formula_structural   Hg2H10C12I4N4O
_chemical_formula_sum   'Hg4 H20 C24 I8 N8 O2'
_cell_volume   1076.36320818
_cell_formula_units_Z   2
loop_
 _symmetry_equiv_pos_site_id
 _symmetry_equiv_pos_as_xyz
  1  'x, y, z'
loop_
 _atom_site_type_symbol
 _atom_site_label
 _atom_site_symmetry_multiplicity
 _atom_site_fract_x
 _atom_site_fract_y
 _atom_site_fract_z
 _atom_site_occupancy
 _atom_site_hle17_bader_spin_density
 _atom_site_hle17_ddec_charge
 _atom_site_hle17_ddec_spin_density
 _atom_site_hle17_ddec_sum_bond_order
 _atom_site_hle17_magmom
 _atom_site_hse06_10hf_bader_spin_density
 _atom_site_hse06_10hf_ddec_charge
 _atom_site_hse06_10hf_ddec_spin_density
 _atom_site_hse06_10hf_ddec_sum_bond_order
 _atom_site_hse06_10hf_magmom
 _atom_site_hse06_bader_spin_density
 _atom_site_hse06_ddec_charge
 _atom_site_hse06_ddec_spin_density
 _atom_site_hse06_ddec_sum_bond_order
 _atom_site_hse06_magmom
 _atom_site_pbe_bader_spin_density
 _atom_site_pbe_cm5_charge
 _atom_site_pbe_ddec_charge
 _atom_site_pbe_ddec_spin_density
 _atom_site_pbe_ddec_sum_bond_order
 _atom_site_pbe_magmom
Hg  Hg0  1  0.56419291  0.74415447  0.84612792  1  0  0.61827  0  2.103116  0  0  0.478882  0  2.59354  0  0  0.527622  0  2.564037  0  0  0.433585  0.446087  0  2.612976  0
Hg  Hg1  1  0.56418808  0.25585409  0.34612457  1  0  0.618306  0  2.103107  0  0  0.478927  0  2.593534  0  0  0.527662  0  2.564032  0  0  0.433614  0.446128  0  2.612972  0
Hg  Hg2  1  0.44453842  0.90274787  0.15655009  1  0  0.484931  0  2.279579  0  0  0.375597  0  2.781056  0  0  0.416817  0  2.756761  0  0  0.32356  0.347996  0  2.797073  0
Hg  Hg3  1  0.44453778  0.09725141  0.65655002  1  0  0.484919  0  2.279599  0  0  0.375577  0  2.781091  0  0  0.416795  0  2.756796  0  0  0.323563  0.347974  0  2.79711  0
H  H4  1  0.79044867  0.41111847  0.01528580  1  0  0.267785  0  0.923492  0  0  0.252041  0  0.992685  0  0  0.259909  0  0.986357  0  0  0.300231  0.246362  0  0.997333  0
H  H5  1  0.79044754  0.58887240  0.51529282  1  0  0.267693  0  0.92345  0  0  0.251952  0  0.992646  0  0  0.259819  0  0.98632  0  0  0.300225  0.246273  0  0.997298  0
H  H6  1  0.15608763  0.69775170  0.79170069  1  0  0.079424  0  0.973208  0  0  0.087419  0  1.040329  0  0  0.090442  0  1.037072  0  0  0.098408  0.085152  0  1.042815  0
H  H7  1  0.15609663  0.30225401  0.29169967  1  0  0.079461  0  0.973082  0  0  0.087414  0  1.040301  0  0  0.090436  0  1.037047  0  0  0.098406  0.085163  0  1.04277  0
H  H8  1  0.95034166  0.50233819  0.76658689  1  0  0.105586  0  0.957612  0  0  0.110988  0  1.028226  0  0  0.114609  0  1.026691  0  0  0.092879  0.108392  0  1.029451  0
H  H9  1  0.95034908  0.49766362  0.26658646  1  0  0.105529  0  0.957702  0  0  0.110936  0  1.028304  0  0  0.114575  0  1.02675  0  0  0.092848  0.108339  0  1.029527  0
H  H10  1  0.03519111  0.24851678  0.80401608  1  0  0.099196  0  0.967056  0  0  0.110565  0  1.026746  0  0  0.114075  0  1.023515  0  0  0.092333  0.107988  0  1.029148  0
H  H11  1  0.03520097  0.75148647  0.30401645  1  0  0.099176  0  0.967005  0  0  0.110562  0  1.026692  0  0  0.114073  0  1.02346  0  0  0.092299  0.107982  0  1.0291  0
H  H12  1  0.31710976  0.20674036  0.87089644  1  0  0.101721  0  0.989452  0  0  0.109797  0  1.057232  0  0  0.113325  0  1.055875  0  0  0.087812  0.107266  0  1.058344  0
H  H13  1  0.31711830  0.79326435  0.37090182  1  0  0.101733  0  0.98945  0  0  0.109777  0  1.057259  0  0  0.113322  0  1.055883  0  0  0.087803  0.107248  0  1.058369  0
H  H14  1  0.57258061  0.30046951  0.93566613  1  0  0.091725  0  0.952392  0  0  0.101285  0  1.020835  0  0  0.105266  0  1.015193  0  0  0.106092  0.098372  0  1.024993  0
H  H15  1  0.57258996  0.69953228  0.43567123  1  0  0.091651  0  0.952522  0  0  0.101242  0  1.02091  0  0  0.105219  0  1.015278  0  0  0.106073  0.098378  0  1.025022  0
H  H16  1  0.04035212  0.34453236  0.03212014  1  0  0.094056  0  0.945639  0  0  0.106332  0  1.005293  0  0  0.109401  0  1.00242  0  0  0.10251  0.103977  0  1.007571  0
H  H17  1  0.04035275  0.65546143  0.53212389  1  0  0.094122  0  0.945693  0  0  0.106376  0  1.00535  0  0  0.109441  0  1.002478  0  0  0.102546  0.104035  0  1.007612  0
H  H18  1  0.31605059  0.32260940  0.10647146  1  0  0.096315  0  0.985462  0  0  0.100427  0  1.057849  0  0  0.103627  0  1.057385  0  0  0.08747  0.098081  0  1.058388  0
H  H19  1  0.31605276  0.67738694  0.60647180  1  0  0.096316  0  0.985389  0  0  0.100422  0  1.057796  0  0  0.103613  0  1.057357  0  0  0.087452  0.098076  0  1.058335  0
H  H20  1  0.47813163  0.54482150  0.14186688  1  0  0.064603  0  0.9802  0  0  0.064326  0  1.064444  0  0  0.067714  0  1.060982  0  0  0.088437  0.061836  0  1.066909  0
H  H21  1  0.47813766  0.45517778  0.64186796  1  0  0.06469  0  0.98018  0  0  0.064378  0  1.064447  0  0  0.067769  0  1.060988  0  0  0.088459  0.061888  0  1.066913  0
H  H22  1  0.10286701  0.80338360  0.04016925  1  0  0.09096  0  0.940771  0  0  0.095372  0  1.010521  0  0  0.099214  0  1.006011  0  0  0.10878  0.092543  0  1.013825  0
H  H23  1  0.10286274  0.19661152  0.54017575  1  0  0.090912  0  0.940776  0  0  0.095318  0  1.010543  0  0  0.099158  0  1.006031  0  0  0.108777  0.092493  0  1.013834  0
C  C24  1  0.18703994  0.58740698  0.80858437  1  0  0.139203  0  3.691578  0  0  0.110336  0  3.941381  0  0  0.117851  0  3.958991  0  0  0.048735  0.105525  0  3.929302  0
C  C25  1  0.18704571  0.41259576  0.30858367  1  0  0.139236  0  3.691289  0  0  0.110341  0  3.941212  0  0  0.117852  0  3.958829  0  0  0.048719  0.105517  0  3.929126  0
C  C26  1  0.07256735  0.47723575  0.79451874  1  0  -0.10353  0  3.692147  0  0  -0.118983  0  3.945567  0  0  -0.124942  0  3.966018  0  0  -0.086424  -0.115268  0  3.932003  0
C  C27  1  0.07257629  0.52276649  0.29451561  1  0  -0.103394  0  3.692136  0  0  -0.118811  0  3.945542  0  0  -0.124785  0  3.965986  0  0  -0.086302  -0.115096  0  3.931974  0
C  C28  1  0.11916260  0.33804842  0.81574768  1  0  0.000621  0  3.699687  0  0  -0.017027  0  3.945331  0  0  -0.013493  0  3.962432  0  0  -0.072092  -0.019153  0  3.933843  0
C  C29  1  0.11917197  0.66195520  0.31574916  1  0  0.000613  0  3.699749  0  0  -0.017055  0  3.945385  0  0  -0.013521  0  3.962496  0  0  -0.072065  -0.01918  0  3.933889  0
C  C30  1  0.27645220  0.31402822  0.85233357  1  0  -0.136148  0  3.690377  0  0  -0.15223  0  3.930835  0  0  -0.160072  0  3.952836  0  0  -0.081995  -0.147138  0  3.91606  0
C  C31  1  0.27645778  0.68597942  0.35233790  1  0  -0.136294  0  3.690363  0  0  -0.152326  0  3.93086  0  0  -0.160183  0  3.952856  0  0  -0.082042  -0.147239  0  3.916081  0
C  C32  1  0.38308748  0.43001020  0.86623832  1  0  0.192791  0  3.820353  0  0  0.194894  0  4.060103  0  0  0.19988  0  4.082786  0  0  0.110155  0.191604  0  4.0447  0
C  C33  1  0.38308889  0.56999150  0.36624017  1  0  0.192842  0  3.820254  0  0  0.19486  0  4.060145  0  0  0.199845  0  4.082829  0  0  0.110073  0.191563  0  4.04476  0
C  C34  1  0.54288558  0.40815840  0.91102774  1  0  0.028669  0  3.667568  0  0  -0.014187  0  3.930437  0  0  -0.004684  0  3.939523  0  0  0.060009  -0.02106  0  3.925629  0
C  C35  1  0.54288943  0.59184631  0.41103246  1  0  0.028774  0  3.667582  0  0  -0.014048  0  3.930456  0  0  -0.00454  0  3.93954  0  0  0.060088  -0.020932  0  3.925555  0
C  C36  1  0.89574372  0.60808459  0.97589830  1  0  0.512797  0  3.856863  0  0  0.462141  0  4.146423  0  0  0.491849  0  4.14822  0  0  0.238366  0.442003  0  4.144978  0
C  C37  1  0.89575056  0.39191752  0.47589894  1  0  0.512559  0  3.856734  0  0  0.46198  0  4.146266  0  0  0.491688  0  4.148072  0  0  0.238309  0.441851  0  4.144799  0
C  C38  1  0.04978231  0.57753365  0.02873217  1  0  -0.113906  0  3.769272  0  0  -0.086796  0  4.003877  0  0  -0.098579  0  4.027989  0  0  -0.014473  -0.079421  0  3.987968  0
C  C39  1  0.04978824  0.42245908  0.52873245  1  0  -0.113639  0  3.769025  0  0  -0.086753  0  4.003877  0  0  -0.098539  0  4.027992  0  0  -0.014489  -0.079379  0  3.987963  0
C  C40  1  0.10963166  0.44080483  0.04931948  1  0  -0.021653  0  3.70293  0  0  -0.051652  0  3.949017  0  0  -0.046112  0  3.966903  0  0  -0.066933  -0.054913  0  3.936886  0
C  C41  1  0.10963445  0.55919252  0.54932086  1  0  -0.021791  0  3.702837  0  0  -0.051706  0  3.948972  0  0  -0.046158  0  3.966847  0  0  -0.066956  -0.054979  0  3.936834  0
C  C42  1  0.26498912  0.42731931  0.09044391  1  0  -0.119762  0  3.744032  0  0  -0.124947  0  3.988596  0  0  -0.134071  0  4.011669  0  0  -0.090941  -0.119113  0  3.973097  0
C  C43  1  0.26499084  0.57267567  0.59044323  1  0  -0.119754  0  3.744014  0  0  -0.124908  0  3.988558  0  0  -0.134028  0  4.011626  0  0  -0.090945  -0.119079  0  3.97307  0
C  C44  1  0.35481656  0.55015518  0.11058972  1  0  0.134134  0  3.695073  0  0  0.101797  0  3.948552  0  0  0.109393  0  3.967567  0  0  0.037974  0.097048  0  3.935507  0
C  C45  1  0.35482011  0.44984345  0.61059006  1  0  0.133975  0  3.695094  0  0  0.101628  0  3.948625  0  0  0.109214  0  3.967652  0  0  0.037911  0.096876  0  3.935587  0
C  C46  1  0.14736477  0.69531499  0.05347754  1  0  0.134373  0  3.658684  0  0  0.093378  0  3.909635  0  0  0.10246  0  3.925768  0  0  0.054529  0.08764  0  3.898618  0
C  C47  1  0.14736503  0.30468145  0.55347951  1  0  0.134372  0  3.658781  0  0  0.093444  0  3.909757  0  0  0.102529  0  3.925887  0  0  0.054583  0.087704  0  3.898742  0
I  I48  1  0.70694323  0.74533903  0.66904027  1  0  -0.38809  0  1.110797  0  0  -0.347327  0  1.455877  0  0  -0.366157  0  1.433592  0  0  -0.200322  -0.333961  0  1.471145  0
I  I49  1  0.70692971  0.25465910  0.16903615  1  0  -0.388114  0  1.110806  0  0  -0.347354  0  1.455899  0  0  -0.366191  0  1.433627  0  0  -0.200338  -0.333992  0  1.471171  0
I  I50  1  0.51933379  0.98352893  0.95050448  1  0  -0.30359  0  1.365776  0  0  -0.259464  0  1.741951  0  0  -0.280825  0  1.718824  0  0  -0.141038  -0.245006  0  1.757515  0
I  I51  1  0.51934128  0.01648133  0.45050536  1  0  -0.303569  0  1.365721  0  0  -0.259439  0  1.741877  0  0  -0.280802  0  1.718753  0  0  -0.141049  -0.24499  0  1.757455  0
I  I52  1  0.72314229  0.76778580  0.20824295  1  0  -0.330041  0  1.212323  0  0  -0.29541  0  1.560352  0  0  -0.314229  0  1.544135  0  0  -0.174354  -0.282107  0  1.571266  0
I  I53  1  0.72314482  0.23221267  0.70824261  1  0  -0.330053  0  1.212361  0  0  -0.295409  0  1.560382  0  0  -0.314229  0  1.544164  0  0  -0.174345  -0.282104  0  1.571293  0
I  I54  1  0.15967298  0.04692014  0.18923693  1  0  -0.324637  0  1.195535  0  0  -0.282165  0  1.523658  0  0  -0.299548  0  1.504504  0  0  -0.162895  -0.270371  0  1.537022  0
I  I55  1  0.15967532  0.95307308  0.68923602  1  0  -0.32463  0  1.195568  0  0  -0.282166  0  1.523703  0  0  -0.299547  0  1.504548  0  0  -0.1629  -0.270373  0  1.537065  0
N  N56  1  0.33872215  0.56447787  0.84297777  1  0  -0.31528  0  3.20757  0  0  -0.244895  0  3.46378  0  0  -0.265386  0  3.486303  0  0  -0.303446  -0.230853  0  3.448088  0
N  N57  1  0.33872667  0.43552670  0.34297922  1  0  -0.315314  0  3.207466  0  0  -0.244877  0  3.463685  0  0  -0.265367  0  3.486204  0  0  -0.303435  -0.230842  0  3.448  0
N  N58  1  0.64124955  0.51519383  0.92316040  1  0  -0.095272  0  3.263247  0  0  -0.043829  0  3.537876  0  0  -0.053126  0  3.556588  0  0  -0.198672  -0.037787  0  3.524937  0
N  N59  1  0.64125430  0.48480490  0.42316200  1  0  -0.09531  0  3.26322  0  0  -0.043898  0  3.537845  0  0  -0.053197  0  3.556555  0  0  -0.198671  -0.03786  0  3.524928  0
N  N60  1  0.78289723  0.49676575  0.97068661  1  0  -0.294813  0  3.410704  0  0  -0.245239  0  3.653467  0  0  -0.267292  0  3.669241  0  0  -0.287938  -0.229731  0  3.642232  0
N  N61  1  0.78289961  0.50322848  0.47068756  1  0  -0.294671  0  3.410777  0  0  -0.24508  0  3.653538  0  0  -0.267129  0  3.669313  0  0  -0.287955  -0.229586  0  3.642305  0
N  N62  1  0.29538715  0.68134310  0.09367146  1  0  -0.29361  0  3.240427  0  0  -0.222096  0  3.505562  0  0  -0.24224  0  3.52777  0  0  -0.31677  -0.208526  0  3.490087  0
N  N63  1  0.29538245  0.31865414  0.59367413  1  0  -0.293525  0  3.240442  0  0  -0.221986  0  3.505536  0  0  -0.24213  0  3.527756  0  0  -0.31676  -0.208417  0  3.490062  0
O  O64  1  0.87409208  0.72256547  0.93524274  1  0  -0.496829  0  1.968807  0  0  -0.449333  0  2.193739  0  0  -0.472694  0  2.188923  0  0  -0.273561  -0.43346  0  2.196751  0
O  O65  1  0.87409121  0.27742667  0.43523739  1  0  -0.496815  0  1.968592  0  0  -0.449316  0  2.193494  0  0  -0.472667  0  2.188653  0  0  -0.273506  -0.433444  0  2.196495  0
