# generated using pymatgen
data_NiH9C9NO5
_symmetry_space_group_name_H-M   'P 1'
_cell_length_a   7.45098907
_cell_length_b   7.52156516
_cell_length_c   17.60580050
_cell_angle_alpha   90.00072107
_cell_angle_beta   89.99962698
_cell_angle_gamma   89.99996812
_symmetry_Int_Tables_number   1
_chemical_formula_structural   NiH9C9NO5
_chemical_formula_sum   'Ni4 H36 C36 N4 O20'
_cell_volume   986.68363427
_cell_formula_units_Z   4
loop_
 _symmetry_equiv_pos_site_id
 _symmetry_equiv_pos_as_xyz
  1  'x, y, z'
loop_
 _atom_site_type_symbol
 _atom_site_label
 _atom_site_symmetry_multiplicity
 _atom_site_fract_x
 _atom_site_fract_y
 _atom_site_fract_z
 _atom_site_occupancy
 _atom_site_hle17_ddec_charge
 _atom_site_hle17_ddec_spin_density
 _atom_site_hle17_ddec_sum_bond_order
 _atom_site_hle17_magmom
 _atom_site_hse06_10hf_bader_charge
 _atom_site_hse06_10hf_bader_spin_density
 _atom_site_hse06_10hf_ddec_charge
 _atom_site_hse06_10hf_ddec_spin_density
 _atom_site_hse06_10hf_ddec_sum_bond_order
 _atom_site_hse06_10hf_magmom
 _atom_site_hse06_ddec_charge
 _atom_site_hse06_ddec_spin_density
 _atom_site_hse06_ddec_sum_bond_order
 _atom_site_hse06_magmom
 _atom_site_pbe_cm5_charge
 _atom_site_pbe_ddec_charge
 _atom_site_pbe_ddec_spin_density
 _atom_site_pbe_ddec_sum_bond_order
 _atom_site_pbe_magmom
Ni  Ni0  1  0.73512230  0.25000213  0.71073305  1  0.92814  1.774143  1.856852  1.529  1.277459  1.668955  0.93562  1.831295  2.239865  1.656  1.022893  1.88268  2.173122  1.74  0.622551  0.861473  1.784265  2.301932  1.58
Ni  Ni1  1  0.76488063  0.24999475  0.21073756  1  0.928053  1.774163  1.857003  1.529  1.277292  1.668958  0.935537  1.83131  2.240018  1.656  1.022823  1.882698  2.173254  1.74  0.622462  0.861412  1.784272  2.302058  1.58
Ni  Ni2  1  0.23512484  0.75000043  0.78926260  1  0.927982  1.774135  1.857032  1.529  1.277333  1.668953  0.935459  1.831293  2.240049  1.656  1.022749  1.88268  2.173284  1.74  0.622456  0.86133  1.784248  2.302096  1.58
Ni  Ni3  1  0.26487781  0.75000102  0.28926655  1  0.928035  1.774128  1.856895  1.529  1.277484  1.668952  0.935538  1.831289  2.239945  1.656  1.022806  1.882679  2.173219  1.74  0.622545  0.861414  1.78425  2.301976  1.58
H  H4  1  0.33036146  0.24999925  0.68768949  1  0.085611  0.000835  0.933748  0.002  0.134479  0.001815  0.092045  0.000596  0.996755  0.001  0.094283  0.000391  0.994785  0.001  0.117335  0.090154  0.000796  0.998667  0.002
H  H5  1  0.16963769  0.24999324  0.18768518  1  0.085763  0.000834  0.933741  0.002  0.134514  0.001814  0.092104  0.000595  0.996842  0.001  0.094335  0.000391  0.994876  0.001  0.117354  0.090208  0.000795  0.998763  0.002
H  H6  1  0.83036644  0.75000193  0.81230930  1  0.08558  0.000835  0.933847  0.002  0.13448  0.001814  0.092019  0.000596  0.996845  0.001  0.094259  0.000391  0.994873  0.001  0.117329  0.090124  0.000796  0.998759  0.002
H  H7  1  0.66963194  0.75000258  0.31231124  1  0.085668  0.000836  0.93382  0.002  0.134531  0.001815  0.09204  0.000596  0.996855  0.001  0.094278  0.000391  0.994885  0.001  0.117349  0.090148  0.000796  0.99877  0.002
H  H8  1  0.77188649  0.25000236  0.54626390  1  0.079092  0.000872  0.960485  0.002  0.065373  0.001787  0.084965  0.000609  1.030333  0.001  0.087499  0.000386  1.026481  0.001  0.114454  0.082984  0.000836  1.033315  0.002
H  H9  1  0.72811096  0.24999898  0.04626568  1  0.079066  0.000871  0.96046  0.002  0.065364  0.001786  0.084962  0.000609  1.030308  0.001  0.0875  0.000386  1.026444  0.001  0.114438  0.082986  0.000836  1.033279  0.002
H  H10  1  0.27189318  0.75000151  0.95373334  1  0.079017  0.000872  0.960489  0.002  0.065305  0.001787  0.084896  0.000609  1.030339  0.001  0.087432  0.000386  1.02648  0.001  0.114425  0.082918  0.000836  1.033319  0.002
H  H11  1  0.22810020  0.74999947  0.45373512  1  0.078966  0.000872  0.960517  0.002  0.066134  0.001786  0.08483  0.000609  1.030401  0.001  0.087365  0.000386  1.026548  0.001  0.11438  0.082851  0.000836  1.033382  0.002
H  H12  1  0.24440294  0.24999569  0.44513261  1  0.092055  0.000324  0.966225  0.001  0.127503  0.000212  0.103684  0.000102  1.025083  0.0  0.105887  3e-05  1.023573  0.0  0.101394  0.101807  0.000181  1.026649  0.0
H  H13  1  0.25559891  0.25000173  0.94512861  1  0.09208  0.000325  0.966228  0.001  0.127549  0.000212  0.103626  0.000102  1.025157  0.0  0.105902  3e-05  1.023565  0.0  0.101384  0.101746  0.000181  1.026717  0.0
H  H14  1  0.74440389  0.75001206  0.05486474  1  0.092101  0.000324  0.966243  0.001  0.127503  0.000212  0.103735  0.000102  1.025085  0.0  0.105947  3e-05  1.023563  0.0  0.101425  0.101851  0.000181  1.026653  0.0
H  H15  1  0.75559046  0.75000082  0.55486584  1  0.092054  0.000325  0.96634  0.001  0.127701  0.000212  0.103752  0.000102  1.025091  0.0  0.105952  3e-05  1.023585  0.0  0.101406  0.101863  0.000181  1.026668  0.0
H  H16  1  0.11761606  0.24999503  0.57815826  1  0.105385  0.000261  0.971124  0.0  0.117023  0.000755  0.1148  0.000318  1.031205  0.0  0.1175  0.000211  1.0317  0.0  0.104476  0.112584  0.000429  1.031384  0.001
H  H17  1  0.38238077  0.24999423  0.07815280  1  0.105349  0.000262  0.971197  0.0  0.117016  0.000755  0.114777  0.000318  1.031262  0.0  0.117564  0.000211  1.031647  0.0  0.104472  0.112557  0.000429  1.031446  0.001
H  H18  1  0.61762068  0.75000494  0.92184168  1  0.105309  0.00026  0.971327  0.0  0.117063  0.000755  0.114774  0.000318  1.03137  0.0  0.117562  0.000211  1.031757  0.0  0.104443  0.112558  0.000429  1.031547  0.001
H  H19  1  0.88237332  0.75000680  0.42184303  1  0.105316  0.000261  0.971325  0.0  0.117093  0.000755  0.114798  0.000318  1.031348  0.0  0.117586  0.000211  1.031735  0.0  0.104476  0.112583  0.000429  1.031526  0.001
H  H20  1  0.57712803  0.24999934  0.42855012  1  0.11393  0.000547  0.986622  0.0  0.141158  0.000939  0.122134  0.000561  1.047815  0.0  0.124984  0.000396  1.047829  0.0  0.102245  0.119868  0.000734  1.048184  0.001
H  H21  1  0.92286615  0.25000264  0.92854737  1  0.113868  0.000545  0.986719  0.0  0.141113  0.000939  0.122078  0.000562  1.047916  0.0  0.124925  0.000396  1.047938  0.0  0.102204  0.119808  0.000734  1.048281  0.001
H  H22  1  0.07712993  0.75000849  0.07144825  1  0.11388  0.000549  0.986632  0.0  0.141182  0.000939  0.122114  0.000561  1.0478  0.0  0.12496  0.000396  1.047823  0.0  0.102247  0.119846  0.000734  1.048163  0.001
H  H23  1  0.42286403  0.74999716  0.57145231  1  0.113851  0.000548  0.986691  0.0  0.141118  0.000939  0.122077  0.000561  1.047893  0.0  0.124918  0.000396  1.047911  0.0  0.102248  0.119812  0.000734  1.048262  0.001
H  H24  1  0.00141112  0.14253111  0.78452762  1  0.416842  -0.000473  0.881723  -0.001  0.650216  4.6e-05  0.38982  0.000133  0.942521  0.0  0.402125  -8.6e-05  0.924836  0.0  0.291821  0.380982  0.000377  0.95508  0.0
H  H25  1  0.49857182  0.14251695  0.28452468  1  0.416759  -0.000473  0.881691  -0.001  0.650213  4.5e-05  0.389738  0.000134  0.942621  0.0  0.402036  -8.6e-05  0.924953  0.0  0.291822  0.380887  0.000378  0.955185  0.0
H  H26  1  0.00141776  0.35747706  0.78452592  1  0.41687  -0.000473  0.881586  -0.001  0.650287  4.5e-05  0.389794  0.000133  0.94256  0.0  0.402103  -8.6e-05  0.924878  0.0  0.291796  0.380935  0.000378  0.955126  0.0
H  H27  1  0.50143372  0.64251898  0.71547604  1  0.416728  -0.000472  0.881765  -0.001  0.650209  4.5e-05  0.389736  0.000133  0.942621  0.0  0.402032  -8.5e-05  0.924954  0.0  0.291846  0.380891  0.000378  0.955188  0.0
H  H28  1  0.99858094  0.85747869  0.21547652  1  0.416721  -0.000473  0.88179  -0.001  0.650275  4.5e-05  0.389762  0.000133  0.942566  0.0  0.402056  -8.6e-05  0.924899  0.0  0.291839  0.380923  0.000378  0.955128  0.0
H  H29  1  0.50143231  0.85746626  0.71547434  1  0.416857  -0.000472  0.881642  -0.001  0.650173  4.5e-05  0.3898  0.000133  0.942564  0.0  0.402104  -8.6e-05  0.924886  0.0  0.291836  0.38094  0.000378  0.955133  0.0
H  H30  1  0.99858503  0.64253407  0.21547367  1  0.416835  -0.000473  0.881759  -0.001  0.650367  4.4e-05  0.389813  0.000133  0.942538  0.0  0.402112  -8.6e-05  0.924863  0.0  0.291829  0.380972  0.000377  0.955096  0.0
H  H31  1  0.49857579  0.35746557  0.28452753  1  0.416812  -0.000474  0.881755  -0.001  0.65021  4.5e-05  0.389787  0.000133  0.94257  0.0  0.40209  -8.6e-05  0.924889  0.0  0.291815  0.380948  0.000378  0.95513  0.0
H  H32  1  0.61059614  0.08951637  0.94195942  1  0.114237  0.000126  0.948693  0.0  0.122142  0.000459  0.123912  0.000201  1.011448  0.0  0.12734  0.000111  1.009938  0.0  0.109464  0.121558  0.00032  1.012676  0.0
H  H33  1  0.88939121  0.08951557  0.44196189  1  0.114296  0.000126  0.948629  0.0  0.12206  0.000459  0.123973  0.000201  1.011372  0.0  0.127401  0.000111  1.009862  0.0  0.109476  0.121624  0.000321  1.012601  0.0
H  H34  1  0.61059874  0.41048415  0.94195971  1  0.11423  0.000126  0.948745  0.0  0.12211  0.000459  0.12391  0.000201  1.011473  0.0  0.127338  0.000111  1.009963  0.0  0.109485  0.121555  0.00032  1.012704  0.0
H  H35  1  0.11061973  0.58950918  0.55803854  1  0.114242  0.000126  0.948667  0.0  0.122018  0.000459  0.12393  0.000201  1.011408  0.0  0.127359  0.000111  1.009896  0.0  0.109471  0.121581  0.000321  1.012637  0.0
H  H36  1  0.38940128  0.91047348  0.05804244  1  0.114334  0.000126  0.948727  0.0  0.122232  0.000459  0.123994  0.000201  1.011471  0.0  0.127422  0.000111  1.009958  0.0  0.1095  0.121641  0.00032  1.012702  0.0
H  H37  1  0.11061158  0.91048359  0.55803940  1  0.114272  0.000124  0.948664  0.0  0.122101  0.000459  0.123964  0.000201  1.011394  0.0  0.127393  0.000111  1.009882  0.0  0.109489  0.121609  0.000321  1.012623  0.0
H  H38  1  0.38940540  0.58950438  0.05803988  1  0.114222  0.000125  0.948661  0.0  0.12205  0.000459  0.123888  0.000201  1.01142  0.0  0.127317  0.000111  1.009908  0.0  0.109462  0.121535  0.00032  1.012645  0.0
H  H39  1  0.88939112  0.41049132  0.44196446  1  0.114338  0.000127  0.948607  0.0  0.121944  0.000459  0.123994  0.000201  1.011369  0.0  0.127421  0.000111  1.009859  0.0  0.109478  0.121637  0.00032  1.012605  0.0
C  C40  1  0.37929098  0.25000103  0.62941033  1  0.135346  -0.017419  3.667768  -0.011  0.433738  -0.003797  0.107824  -0.004774  3.923519  -0.003  0.116857  -0.005701  3.941996  -0.003  0.047519  0.101175  -0.004656  3.911314  -0.002
C  C41  1  0.12071578  0.24999506  0.12940729  1  0.135034  -0.017414  3.667761  -0.011  0.433881  -0.003797  0.107576  -0.004774  3.923519  -0.003  0.11661  -0.0057  3.942012  -0.003  0.04737  0.100931  -0.004656  3.911318  -0.002
C  C42  1  0.87928970  0.75000544  0.87058889  1  0.135408  -0.017426  3.667705  -0.011  0.433723  -0.003797  0.107913  -0.004774  3.923481  -0.003  0.116943  -0.005701  3.941983  -0.003  0.047518  0.101267  -0.004656  3.911276  -0.002
C  C43  1  0.62070242  0.75000079  0.37059096  1  0.135289  -0.017419  3.667854  -0.011  0.433808  -0.003798  0.107873  -0.004774  3.923619  -0.003  0.116903  -0.0057  3.94212  -0.003  0.047532  0.101227  -0.004656  3.911417  -0.002
C  C44  1  0.62605348  0.25000112  0.54959539  1  0.124085  -0.017611  3.692101  -0.011  0.494825  -0.004111  0.098423  -0.005046  3.945719  -0.003  0.107593  -0.006016  3.963624  -0.004  0.046549  0.091889  -0.004826  3.933442  -0.003
C  C45  1  0.87394660  0.24999766  0.04959393  1  0.124178  -0.01761  3.691818  -0.011  0.494894  -0.004112  0.09846  -0.005047  3.945515  -0.003  0.107631  -0.006015  3.963419  -0.004  0.046561  0.091923  -0.004826  3.933242  -0.003
C  C46  1  0.12605753  0.75000549  0.95040339  1  0.124157  -0.01762  3.691536  -0.011  0.494919  -0.004112  0.09852  -0.005047  3.945203  -0.003  0.107694  -0.006017  3.963103  -0.004  0.046583  0.091983  -0.004827  3.932926  -0.003
C  C47  1  0.37393590  0.74999938  0.45040420  1  0.124074  -0.017614  3.691924  -0.011  0.494316  -0.004112  0.098469  -0.005048  3.945592  -0.003  0.107638  -0.006015  3.963498  -0.004  0.046646  0.091936  -0.004827  3.933313  -0.003
C  C48  1  0.33245798  0.24999905  0.49444579  1  0.000665  -0.01897  3.720691  -0.012  -0.038195  -0.005525  -0.018057  -0.006285  3.964347  -0.003  -0.01273  -0.006244  3.982052  -0.003  -0.069127  -0.022123  -0.007267  3.953451  -0.004
C  C49  1  0.16754176  0.24999850  0.99444202  1  0.000556  -0.018969  3.721141  -0.012  -0.038319  -0.005525  -0.018047  -0.006286  3.964717  -0.003  -0.012782  -0.006243  3.982421  -0.003  -0.069128  -0.022108  -0.007267  3.953806  -0.004
C  C50  1  0.83245835  0.75001264  0.00555416  1  0.000658  -0.018975  3.720731  -0.012  -0.038155  -0.005525  -0.018062  -0.006286  3.964404  -0.003  -0.012747  -0.006244  3.982127  -0.003  -0.06914  -0.022127  -0.007268  3.953502  -0.004
C  C51  1  0.66753273  0.75000011  0.50555437  1  0.000509  -0.018968  3.721016  -0.012  -0.038352  -0.005525  -0.018224  -0.006286  3.96467  -0.003  -0.012901  -0.006241  3.982396  -0.003  -0.069092  -0.022278  -0.007266  3.953769  -0.004
C  C52  1  0.26185739  0.24999750  0.56781204  1  -0.143126  0.009583  3.749419  0.012  -0.074049  0.005382  -0.150174  0.002895  3.995019  0.004  -0.159839  0.002735  4.018313  0.004  -0.091  -0.144026  0.003306  3.980527  0.005
C  C53  1  0.23813960  0.24999810  0.06780641  1  -0.14293  0.009577  3.749759  0.012  -0.074233  0.005382  -0.149972  0.002894  3.995181  0.004  -0.159705  0.002734  4.018461  0.004  -0.090944  -0.143824  0.003305  3.980683  0.005
C  C54  1  0.76186185  0.75000904  0.93218864  1  -0.143121  0.009585  3.749771  0.012  -0.074104  0.005382  -0.150217  0.002895  3.995345  0.004  -0.159948  0.002735  4.018603  0.004  -0.091003  -0.144069  0.003305  3.980847  0.005
C  C55  1  0.73813333  0.75000034  0.43218982  1  -0.143122  0.00958  3.749984  0.012  -0.074013  0.005383  -0.15024  0.002895  3.995521  0.004  -0.159969  0.002734  4.018775  0.004  -0.09113  -0.144091  0.003306  3.981025  0.005
C  C56  1  0.51808442  0.25000020  0.48517756  1  -0.125982  0.01022  3.73386  0.013  -0.024946  0.005916  -0.136035  0.003273  3.975747  0.005  -0.144852  0.003016  3.9987  0.004  -0.086693  -0.130269  0.003813  3.961053  0.005
C  C57  1  0.98191828  0.25000080  0.98517408  1  -0.12586  0.010223  3.733854  0.013  -0.024996  0.005916  -0.135936  0.003273  3.97572  0.005  -0.144758  0.003015  3.998699  0.004  -0.086566  -0.130164  0.003813  3.961005  0.005
C  C58  1  0.01807915  0.75001033  0.01482210  1  -0.125987  0.01022  3.733618  0.013  -0.024936  0.005916  -0.136062  0.003273  3.975499  0.005  -0.144879  0.003016  3.998452  0.004  -0.086748  -0.130288  0.003813  3.960788  0.005
C  C59  1  0.48191167  0.74999764  0.51482430  1  -0.125716  0.010219  3.733553  0.013  -0.025227  0.005918  -0.135834  0.003274  3.975475  0.005  -0.144639  0.003015  3.998421  0.004  -0.086686  -0.130062  0.003814  3.96077  0.005
C  C60  1  0.50802677  0.04404679  0.82814922  1  0.690077  -0.010011  3.866214  -0.008  1.609727  -0.000938  0.655114  -0.001508  4.159376  -0.001  0.693603  -0.001452  4.149888  -0.001  0.218491  0.6273  -0.001944  4.16461  -0.001
C  C61  1  0.99198252  0.04404859  0.32815652  1  0.690209  -0.01001  3.866219  -0.008  1.609846  -0.000937  0.655232  -0.001507  4.15943  -0.001  0.693686  -0.001452  4.149988  -0.001  0.218463  0.627422  -0.001943  4.164665  -0.001
C  C62  1  0.50802799  0.45595042  0.82815032  1  0.690135  -0.01001  3.86629  -0.008  1.609632  -0.000937  0.655201  -0.001507  4.159394  -0.001  0.69368  -0.001452  4.149919  -0.001  0.218531  0.62739  -0.001944  4.164626  -0.001
C  C63  1  0.00802308  0.54404960  0.67184480  1  0.690329  -0.010009  3.866079  -0.008  1.609918  -0.000938  0.6553  -0.001508  4.15933  -0.001  0.693753  -0.001452  4.149892  -0.001  0.218504  0.627496  -0.001944  4.16455  -0.001
C  C64  1  0.49197200  0.95594307  0.17185094  1  0.690308  -0.010013  3.866296  -0.008  1.609556  -0.000937  0.655337  -0.001507  4.159464  -0.001  0.693806  -0.001452  4.150001  -0.001  0.218644  0.627534  -0.001944  4.164693  -0.001
C  C65  1  0.00802296  0.95595589  0.67184534  1  0.690301  -0.010005  3.866123  -0.008  1.609914  -0.000938  0.655387  -0.001507  4.159204  -0.001  0.693844  -0.001452  4.149756  -0.001  0.218511  0.627575  -0.001944  4.164435  -0.001
C  C66  1  0.49197212  0.54404209  0.17185211  1  0.690112  -0.010014  3.866442  -0.008  1.609716  -0.000938  0.655301  -0.001508  4.159357  -0.001  0.693776  -0.001453  4.149891  -0.001  0.218537  0.627489  -0.001945  4.164588  -0.001
C  C67  1  0.99198240  0.45595887  0.32815877  1  0.690111  -0.010008  3.866415  -0.008  1.609891  -0.000937  0.655306  -0.001506  4.15931  -0.001  0.693774  -0.001452  4.149842  -0.001  0.218427  0.627486  -0.001942  4.164556  -0.001
C  C68  1  0.57538107  0.16115895  0.89010289  1  -0.17019  0.005731  3.682245  0.008  -0.180742  0.00693  -0.194332  0.003573  3.946094  0.005  -0.1983  0.002022  3.957307  0.003  -0.086356  -0.191772  0.005483  3.938789  0.007
C  C69  1  0.92461913  0.16116744  0.39010810  1  -0.170192  0.005726  3.682497  0.008  -0.180844  0.006928  -0.194323  0.003572  3.946327  0.005  -0.198276  0.00202  3.957538  0.003  -0.086193  -0.191769  0.005481  3.939029  0.007
C  C70  1  0.57538370  0.33885202  0.89010223  1  -0.170171  0.005735  3.682432  0.008  0.019849  0.006794  -0.194291  0.00357  3.94625  0.005  -0.198256  0.002021  3.957465  0.003  -0.086277  -0.191743  0.005481  3.938953  0.007
C  C71  1  0.07539042  0.66116392  0.60989442  1  -0.170274  0.005733  3.682627  0.008  -0.180922  0.006926  -0.194397  0.003571  3.946515  0.005  -0.198348  0.002021  3.957726  0.003  -0.086317  -0.191847  0.00548  3.939219  0.007
C  C72  1  0.42461904  0.83884154  0.10989955  1  -0.170334  0.005729  3.682576  0.008  -0.180884  0.006926  -0.194469  0.003571  3.946401  0.005  -0.198426  0.002021  3.957606  0.003  -0.086386  -0.191926  0.005481  3.939106  0.007
C  C73  1  0.07538366  0.83883572  0.60989433  1  -0.170182  0.005734  3.682572  0.008  0.019842  0.006796  -0.194343  0.003572  3.946427  0.005  -0.198295  0.002023  3.957636  0.003  -0.08628  -0.191781  0.005482  3.939127  0.007
C  C74  1  0.42462044  0.66115113  0.10989850  1  -0.170202  0.005736  3.682408  0.008  0.02002  0.006798  -0.194339  0.003573  3.946175  0.005  -0.198299  0.002022  3.957381  0.003  -0.086324  -0.191782  0.005483  3.938873  0.007
C  C75  1  0.92462042  0.33884189  0.39011029  1  -0.170269  0.005739  3.682615  0.008  0.019917  0.006795  -0.194391  0.003571  3.94636  0.005  -0.198348  0.002023  3.957568  0.003  -0.086307  -0.191825  0.005482  3.93906  0.007
N  N76  1  0.55865919  0.25000085  0.62054483  1  -0.281133  0.061792  3.284518  0.096  -1.248156  0.065827  -0.241737  0.037071  3.569246  0.06  -0.269679  0.029073  3.588772  0.05  -0.324559  -0.220868  0.04361  3.555772  0.067
N  N77  1  0.94133979  0.24999736  0.12054546  1  -0.281101  0.061786  3.284267  0.096  -1.248032  0.065821  -0.241712  0.037068  3.569022  0.06  -0.269655  0.029071  3.588542  0.05  -0.324562  -0.220857  0.043609  3.555555  0.067
N  N78  1  0.05866569  0.75000313  0.87945186  1  -0.280953  0.061796  3.283938  0.096  -1.248213  0.065827  -0.241675  0.037071  3.568814  0.06  -0.269624  0.029073  3.588341  0.05  -0.324474  -0.220813  0.043611  3.555349  0.067
N  N79  1  0.44133287  0.74999831  0.37945533  1  -0.280871  0.061797  3.284451  0.096  -1.248379  0.065831  -0.241627  0.037073  3.569292  0.06  -0.269571  0.029074  3.588823  0.05  -0.324515  -0.220764  0.043612  3.55582  0.067
O  O80  1  0.93043394  0.25000604  0.79879978  1  -0.793978  0.037888  1.937506  0.063  -1.270233  0.049052  -0.759001  0.026303  2.124266  0.044  -0.789072  0.019449  2.090401  0.035  -0.565693  -0.73462  0.032627  2.148269  0.052
O  O81  1  0.56956091  0.24998946  0.29879801  1  -0.793858  0.037891  1.937517  0.063  -1.270096  0.049056  -0.758915  0.026303  2.124335  0.044  -0.788988  0.019448  2.09051  0.035  -0.565703  -0.734548  0.032625  2.148314  0.052
O  O82  1  0.43044859  0.74999110  0.70120158  1  -0.793927  0.037886  1.93746  0.063  -1.270075  0.049053  -0.758977  0.026301  2.12431  0.044  -0.78905  0.019448  2.090484  0.035  -0.565794  -0.734589  0.032622  2.148327  0.052
O  O83  1  0.06955946  0.75000642  0.20119981  1  -0.793861  0.037887  1.937599  0.063  -1.270368  0.049051  -0.758933  0.026301  2.124313  0.044  -0.788992  0.019448  2.0905  0.035  -0.565761  -0.734582  0.032625  2.148256  0.052
O  O84  1  0.38453670  0.93891674  0.84938684  1  -0.593574  0.049678  2.059336  0.084  -1.176662  0.056219  -0.570205  0.030634  2.32649  0.053  -0.607422  0.022126  2.316561  0.041  -0.298631  -0.540271  0.039026  2.332454  0.065
O  O85  1  0.11546759  0.93892805  0.34939176  1  -0.593572  0.049667  2.059357  0.084  -1.176836  0.056212  -0.570239  0.03063  2.326572  0.053  -0.607442  0.022123  2.316668  0.041  -0.298676  -0.540294  0.03902  2.332508  0.065
O  O86  1  0.38453949  0.56108315  0.84938752  1  -0.593584  0.04968  2.059272  0.084  -1.176696  0.05622  -0.570237  0.030635  2.32641  0.053  -0.607455  0.022126  2.316497  0.041  -0.298657  -0.540294  0.039027  2.33236  0.065
O  O87  1  0.88453510  0.43892199  0.65060714  1  -0.593632  0.049674  2.059163  0.084  -1.176797  0.056217  -0.570291  0.030632  2.326398  0.053  -0.607489  0.022124  2.31648  0.041  -0.298693  -0.540356  0.039024  2.332351  0.065
O  O88  1  0.61546878  0.06107312  0.15061389  1  -0.593595  0.049684  2.059211  0.084  -1.176588  0.056222  -0.570264  0.030637  2.326404  0.053  -0.607477  0.022128  2.316483  0.041  -0.298638  -0.540321  0.039029  2.332342  0.065
O  O89  1  0.88453789  0.06108308  0.65060840  1  -0.593649  0.049671  2.059213  0.084  -1.176851  0.056214  -0.570331  0.030631  2.326384  0.053  -0.607532  0.022124  2.316464  0.041  -0.2987  -0.540392  0.039023  2.332335  0.065
O  O90  1  0.61546867  0.43890538  0.15061604  1  -0.593616  0.049682  2.059321  0.084  -1.176702  0.056221  -0.57034  0.030636  2.326443  0.053  -0.607549  0.022127  2.316509  0.041  -0.298698  -0.540389  0.039029  2.332368  0.065
O  O91  1  0.11546635  0.56108116  0.34939302  1  -0.593557  0.04967  2.059385  0.084  -1.176973  0.056213  -0.570274  0.030631  2.326489  0.053  -0.607481  0.022124  2.316575  0.041  -0.29869  -0.540334  0.039021  2.332441  0.065
O  O92  1  0.57407892  0.04892243  0.76104398  1  -0.617456  0.033718  2.079769  0.059  -1.192978  0.043751  -0.581541  0.023511  2.333502  0.042  -0.618007  0.017076  2.322193  0.032  -0.294541  -0.552793  0.029821  2.340571  0.05
O  O93  1  0.92593811  0.04893092  0.26104920  1  -0.617537  0.033718  2.079875  0.059  -1.192722  0.043751  -0.581633  0.023509  2.333561  0.042  -0.618084  0.017074  2.32226  0.032  -0.294514  -0.55289  0.029818  2.340652  0.05
O  O94  1  0.57407881  0.45107410  0.76104506  1  -0.617401  0.033719  2.079823  0.059  -1.192884  0.043753  -0.581511  0.023512  2.333515  0.042  -0.617968  0.017076  2.322207  0.032  -0.294527  -0.552765  0.029822  2.340602  0.05
O  O95  1  0.07406211  0.54892722  0.73895158  1  -0.617615  0.033718  2.079912  0.059  -1.192835  0.043753  -0.58163  0.02351  2.333645  0.042  -0.618087  0.017074  2.322349  0.032  -0.2945  -0.552884  0.029821  2.340708  0.05
O  O96  1  0.42592387  0.95107673  0.23895334  1  -0.617574  0.033717  2.080017  0.059  -1.192829  0.043751  -0.581645  0.02351  2.333734  0.042  -0.618096  0.017075  2.322423  0.032  -0.294628  -0.552907  0.02982  2.340811  0.05
O  O97  1  0.07406065  0.95107756  0.73895096  1  -0.617582  0.033716  2.079917  0.059  -1.192774  0.04375  -0.581668  0.023509  2.33359  0.042  -0.618125  0.017073  2.322285  0.032  -0.294492  -0.552925  0.029819  2.340678  0.05
O  O98  1  0.42592667  0.54892108  0.23895680  1  -0.617448  0.033721  2.079942  0.059  -1.192981  0.043752  -0.581595  0.023512  2.333581  0.042  -0.618054  0.017076  2.322275  0.032  -0.294516  -0.552857  0.029822  2.340667  0.05
O  O99  1  0.92593934  0.45107195  0.26105198  1  -0.617553  0.033718  2.079852  0.059  -1.192732  0.043752  -0.58169  0.023509  2.333464  0.042  -0.618151  0.017073  2.322154  0.032  -0.294456  -0.55294  0.02982  2.340549  0.05
