# generated using pymatgen
data_UCuH11C17N2O9
_symmetry_space_group_name_H-M   'P 1'
_cell_length_a   8.40792018
_cell_length_b   10.83403045
_cell_length_c   11.36549680
_cell_angle_alpha   101.53172327
_cell_angle_beta   100.34317289
_cell_angle_gamma   109.05748628
_symmetry_Int_Tables_number   1
_chemical_formula_structural   UCuH11C17N2O9
_chemical_formula_sum   'U2 Cu2 H22 C34 N4 O18'
_cell_volume   924.69783607
_cell_formula_units_Z   2
loop_
 _symmetry_equiv_pos_site_id
 _symmetry_equiv_pos_as_xyz
  1  'x, y, z'
loop_
 _atom_site_type_symbol
 _atom_site_label
 _atom_site_symmetry_multiplicity
 _atom_site_fract_x
 _atom_site_fract_y
 _atom_site_fract_z
 _atom_site_occupancy
 _atom_site_hle17_bader_spin_density
 _atom_site_hle17_ddec_charge
 _atom_site_hle17_ddec_spin_density
 _atom_site_hle17_ddec_sum_bond_order
 _atom_site_hle17_magmom
 _atom_site_hse06_10hf_bader_spin_density
 _atom_site_hse06_10hf_ddec_charge
 _atom_site_hse06_10hf_ddec_spin_density
 _atom_site_hse06_10hf_ddec_sum_bond_order
 _atom_site_hse06_10hf_magmom
 _atom_site_hse06_bader_spin_density
 _atom_site_hse06_ddec_charge
 _atom_site_hse06_ddec_spin_density
 _atom_site_hse06_ddec_sum_bond_order
 _atom_site_hse06_magmom
 _atom_site_pbe_bader_spin_density
 _atom_site_pbe_cm5_charge
 _atom_site_pbe_ddec_charge
 _atom_site_pbe_ddec_spin_density
 _atom_site_pbe_ddec_sum_bond_order
 _atom_site_pbe_magmom
U  U0  1  0.29189356  0.46284519  0.06313316  1  0  2.482178  0  4.169467  0  0  2.560373  0  4.813557  0  0  2.672284  0  4.777334  0  0  2.152821  2.479553  0  4.840834  0
U  U1  1  0.70810422  0.53715063  0.93686477  1  0  2.48221  0  4.169364  0  0  2.560363  0  4.813512  0  0  2.672272  0  4.777289  0  0  2.15286  2.479535  0  4.840803  0
Cu  Cu2  1  0.15166568  0.03888789  0.23083098  1  0  0.80019  0  1.837833  0  0  0.730678  0  2.25335  0  0  0.763514  0  2.203069  0  0  0.739858  0.711327  0  2.28726  0
Cu  Cu3  1  0.84825376  0.96110087  0.76915984  1  0  0.800509  0  1.836799  0  0  0.730657  0  2.252557  0  0  0.762917  0  2.202625  0  0  0.739668  0.711198  0  2.286703  0
H  H4  1  0.53401747  0.20986147  0.00177306  1  0  0.066281  0  0.878924  0  0  0.078556  0  0.929681  0  0  0.078946  0  0.928966  0  0  0.120219  0.078658  0  0.92995  0
H  H5  1  0.46598636  0.79013435  0.99822565  1  0  0.066364  0  0.878929  0  0  0.078623  0  0.92966  0  0  0.07901  0  0.928953  0  0  0.120248  0.078729  0  0.929925  0
H  H6  1  0.75629936  0.23493548  0.18703222  1  0  0.131292  0  0.924818  0  0  0.143954  0  0.988572  0  0  0.14688  0  0.986834  0  0  0.112265  0.142036  0  0.989733  0
H  H7  1  0.24370337  0.76507053  0.81297267  1  0  0.131325  0  0.924792  0  0  0.143995  0  0.988542  0  0  0.146924  0  0.98681  0  0  0.112288  0.142074  0  0.989704  0
H  H8  1  0.77847272  0.40417452  0.25200541  1  0  0.113013  0  0.922273  0  0  0.130959  0  0.977246  0  0  0.132508  0  0.976912  0  0  0.108645  0.130005  0  0.977514  0
H  H9  1  0.22152972  0.59583348  0.74799014  1  0  0.113017  0  0.922293  0  0  0.130953  0  0.977289  0  0  0.132502  0  0.976961  0  0  0.108645  0.130004  0  0.977553  0
H  H10  1  0.10523369  0.31028741  0.32246788  1  0  0.109378  0  0.938668  0  0  0.114626  0  1.004  0  0  0.118719  0  0.999294  0  0  0.129505  0.111584  0  1.007393  0
H  H11  1  0.89474473  0.68970841  0.67752489  1  0  0.109339  0  0.938761  0  0  0.114649  0  1.004031  0  0  0.118755  0  0.999278  0  0  0.129534  0.11161  0  1.007448  0
H  H12  1  0.12662850  0.44660656  0.53603192  1  0  0.097395  0  0.95139  0  0  0.109871  0  1.006655  0  0  0.112792  0  1.006566  0  0  0.107352  0.107737  0  1.006859  0
H  H13  1  0.87336520  0.55338826  0.46396881  1  0  0.097486  0  0.951398  0  0  0.11  0  1.006616  0  0  0.112917  0  1.006533  0  0  0.107419  0.107875  0  1.006821  0
H  H14  1  0.20186303  0.36164262  0.72199789  1  0  0.12245  0  0.944489  0  0  0.133009  0  1.004141  0  0  0.136048  0  1.001123  0  0  0.124345  0.130719  0  1.006384  0
H  H15  1  0.79814702  0.63836849  0.27801332  1  0  0.122315  0  0.944698  0  0  0.132882  0  1.004359  0  0  0.135916  0  1.001345  0  0  0.124293  0.1306  0  1.006592  0
H  H16  1  0.34746397  0.97185639  0.76018614  1  0  0.115819  0  0.9436  0  0  0.126977  0  1.001673  0  0  0.130639  0  0.999588  0  0  0.109708  0.124198  0  1.003318  0
H  H17  1  0.65254592  0.02813944  0.23981601  1  0  0.115812  0  0.943623  0  0  0.12697  0  1.001705  0  0  0.130633  0  0.999614  0  0  0.109749  0.124199  0  1.003341  0
H  H18  1  0.28317452  0.18327613  0.80345492  1  0  0.118289  0  0.946021  0  0  0.128905  0  1.005888  0  0  0.131964  0  1.003867  0  0  0.120069  0.126388  0  1.007781  0
H  H19  1  0.71683542  0.81671973  0.19655340  1  0  0.118257  0  0.946125  0  0  0.128895  0  1.005978  0  0  0.131951  0  1.003963  0  0  0.120078  0.126387  0  1.007861  0
H  H20  1  0.36598239  0.77785430  0.60173551  1  0  0.113703  0  0.958758  0  0  0.124762  0  1.017947  0  0  0.127983  0  1.015662  0  0  0.109428  0.122196  0  1.01984  0
H  H21  1  0.63402470  0.22213334  0.39825328  1  0  0.113755  0  0.958724  0  0  0.12481  0  1.017925  0  0  0.128032  0  1.015643  0  0  0.109462  0.122251  0  1.019813  0
H  H22  1  0.32364904  0.66413657  0.37448774  1  0  0.126186  0  0.95647  0  0  0.13914  0  1.007885  0  0  0.14284  0  1.005976  0  0  0.11747  0.13666  0  1.009016  0
H  H23  1  0.67635159  0.33587035  0.62549329  1  0  0.126003  0  0.956771  0  0  0.13899  0  1.008159  0  0  0.14268  0  1.006259  0  0  0.117432  0.136521  0  1.009284  0
H  H24  1  0.22930753  0.76892973  0.21261142  1  0  0.112245  0  0.927934  0  0  0.11825  0  0.990259  0  0  0.121601  0  0.98683  0  0  0.136284  0.115566  0  0.993073  0
H  H25  1  0.77069362  0.23108329  0.78736995  1  0  0.112227  0  0.928081  0  0  0.118298  0  0.990361  0  0  0.121651  0  0.986922  0  0  0.136291  0.115617  0  0.993187  0
C  C26  1  0.42930942  0.24046939  0.15778065  1  0  0.633556  0  3.846624  0  0  0.59694  0  4.145633  0  0  0.630996  0  4.137584  0  0  0.213426  0.573588  0  4.150109  0
C  C27  1  0.57068958  0.75952643  0.84221831  1  0  0.633559  0  3.846827  0  0  0.596902  0  4.145832  0  0  0.630959  0  4.137769  0  0  0.213421  0.573554  0  4.150303  0
C  C28  1  0.56299475  0.29405706  0.08602461  1  0  0.162325  0  3.704753  0  0  0.151311  0  3.957489  0  0  0.15867  0  3.964645  0  0  0.002254  0.145824  0  3.951953  0
C  C29  1  0.43700472  0.70593977  0.91397197  1  0  0.16222  0  3.70506  0  0  0.151331  0  3.95761  0  0  0.158681  0  3.964782  0  0  0.002212  0.145844  0  3.952078  0
C  C30  1  0.74748203  0.32653898  0.16346889  1  0  -0.320559  0  3.65929  0  0  -0.368097  0  3.903585  0  0  -0.374473  0  3.907911  0  0  -0.155829  -0.36376  0  3.900554  0
C  C31  1  0.25251991  0.67346294  0.83652985  1  0  -0.320579  0  3.659312  0  0  -0.36816  0  3.903647  0  0  -0.374548  0  3.90799  0  0  -0.155851  -0.363822  0  3.900611  0
C  C32  1  0.88626875  0.37549174  0.09714746  1  0  0.758036  0  3.77851  0  0  0.723256  0  4.081578  0  0  0.763101  0  4.067257  0  0  0.246018  0.695788  0  4.090396  0
C  C33  1  0.11372830  0.62450509  0.90284880  1  0  0.757983  0  3.7784  0  0  0.723151  0  4.081589  0  0  0.762998  0  4.067268  0  0  0.246026  0.695693  0  4.090389  0
C  C34  1  0.05051606  0.95547056  0.98067133  1  0  0.513904  0  3.906989  0  0  0.471785  0  4.203036  0  0  0.502684  0  4.196848  0  0  0.212389  0.450677  0  4.20713  0
C  C35  1  0.94950204  0.04452945  0.01935906  1  0  0.513835  0  3.906806  0  0  0.471772  0  4.202781  0  0  0.502674  0  4.196586  0  0  0.212352  0.450692  0  4.206852  0
C  C36  1  0.13705447  0.27728090  0.40539417  1  0  0.154678  0  3.635475  0  0  0.12334  0  3.889273  0  0  0.13361  0  3.902621  0  0  0.066811  0.116659  0  3.880402  0
C  C37  1  0.86294096  0.72269254  0.59459748  1  0  0.154833  0  3.63518  0  0  0.123444  0  3.88899  0  0  0.133705  0  3.902335  0  0  0.066706  0.1168  0  3.880182  0
C  C38  1  0.14996264  0.35223739  0.52555482  1  0  -0.128816  0  3.739022  0  0  -0.140271  0  3.992189  0  0  -0.149293  0  4.014579  0  0  -0.081362  -0.134413  0  3.976701  0
C  C39  1  0.85003820  0.64775231  0.47443707  1  0  -0.129085  0  3.739052  0  0  -0.140569  0  3.992302  0  0  -0.149601  0  4.01471  0  0  -0.081507  -0.134704  0  3.976817  0
C  C40  1  0.19185241  0.30646752  0.62783560  1  0  -0.011668  0  3.622865  0  0  -0.03955  0  3.868787  0  0  -0.034668  0  3.884934  0  0  -0.045092  -0.042299  0  3.857607  0
C  C41  1  0.80814886  0.69354050  0.37216596  1  0  -0.011473  0  3.623097  0  0  -0.039401  0  3.869072  0  0  -0.034521  0  3.885226  0  0  -0.045043  -0.04213  0  3.857871  0
C  C42  1  0.22315660  0.18438914  0.61033975  1  0  0.046352  0  3.755107  0  0  0.063832  0  3.984323  0  0  0.060972  0  4.008456  0  0  0.009901  0.065488  0  3.968127  0
C  C43  1  0.77684849  0.81561177  0.38966185  1  0  0.046271  0  3.755355  0  0  0.063793  0  3.984559  0  0  0.060923  0  4.008696  0  0  0.009903  0.065451  0  3.968366  0
C  C44  1  0.20759021  0.11512224  0.48690093  1  0  0.116054  0  3.772754  0  0  0.108456  0  4.011663  0  0  0.112231  0  4.034661  0  0  0.112471  0.105706  0  3.99663  0
C  C45  1  0.79240326  0.88488473  0.51309150  1  0  0.116426  0  3.77253  0  0  0.108827  0  4.011449  0  0  0.112622  0  4.034402  0  0  0.1126  0.106114  0  3.99645  0
C  C46  1  0.23920890  0.99188965  0.46124705  1  0  0.11562  0  3.790643  0  0  0.109924  0  4.033339  0  0  0.11304  0  4.05712  0  0  0.109608  0.10793  0  4.01742  0
C  C47  1  0.76079262  0.00809901  0.53873945  1  0  0.11558  0  3.790738  0  0  0.109838  0  4.033391  0  0  0.112909  0  4.057203  0  0  0.109536  0.10788  0  4.017479  0
C  C48  1  0.28970455  0.93987065  0.56008005  1  0  0.035614  0  3.783207  0  0  0.050252  0  4.016895  0  0  0.047235  0  4.042635  0  0  0.000966  0.052336  0  3.999396  0
C  C49  1  0.71029906  0.06012721  0.43992078  1  0  0.035689  0  3.783418  0  0  0.050335  0  4.017124  0  0  0.047327  0  4.04288  0  0  0.000989  0.052418  0  3.999619  0
C  C50  1  0.30603534  0.01221594  0.68482061  1  0  -0.090245  0  3.696135  0  0  -0.114468  0  3.954553  0  0  -0.117333  0  3.976329  0  0  -0.076729  -0.112823  0  3.940277  0
C  C51  1  0.69396684  0.98778395  0.31518042  1  0  -0.090204  0  3.696033  0  0  -0.114436  0  3.954504  0  0  -0.117303  0  3.976277  0  0  -0.076759  -0.112779  0  3.940208  0
C  C52  1  0.27218388  0.12874151  0.70892612  1  0  -0.079763  0  3.691651  0  0  -0.107761  0  3.955404  0  0  -0.109874  0  3.975019  0  0  -0.069119  -0.106144  0  3.942519  0
C  C53  1  0.72782824  0.87126143  0.29107678  1  0  -0.079813  0  3.691651  0  0  -0.107871  0  3.955475  0  0  -0.109994  0  3.975107  0  0  -0.069165  -0.106249  0  3.942582  0
C  C54  1  0.32100863  0.81847034  0.52759848  1  0  -0.047478  0  3.663673  0  0  -0.073833  0  3.915519  0  0  -0.070098  0  3.932489  0  0  -0.062869  -0.076125  0  3.904106  0
C  C55  1  0.67899708  0.18152444  0.47239501  1  0  -0.047487  0  3.663717  0  0  -0.073884  0  3.915595  0  0  -0.070153  0  3.932559  0  0  -0.062816  -0.076162  0  3.904163  0
C  C56  1  0.29898992  0.75661513  0.40374322  1  0  -0.113602  0  3.701053  0  0  -0.128513  0  3.953291  0  0  -0.136699  0  3.97434  0  0  -0.076495  -0.123526  0  3.939068  0
C  C57  1  0.70100398  0.24339283  0.59624153  1  0  -0.113276  0  3.70156  0  0  -0.128208  0  3.953793  0  0  -0.136386  0  3.974852  0  0  -0.076466  -0.123215  0  3.93957  0
C  C58  1  0.24788197  0.81543128  0.31101807  1  0  0.170476  0  3.615967  0  0  0.140161  0  3.875057  0  0  0.150071  0  3.88892  0  0  0.076068  0.133661  0  3.866321  0
C  C59  1  0.75211330  0.18459702  0.68897245  1  0  0.17039  0  3.616195  0  0  0.139969  0  3.875229  0  0  0.149878  0  3.889074  0  0  0.076019  0.133486  0  3.866538  0
N  N60  1  0.16442304  0.16138901  0.38788248  1  0  -0.307413  0  3.346779  0  0  -0.25485  0  3.640961  0  0  -0.270007  0  3.651283  0  0  -0.345527  -0.245529  0  3.634972  0
N  N61  1  0.83556025  0.83860176  0.61211965  1  0  -0.307702  0  3.345659  0  0  -0.255158  0  3.63996  0  0  -0.270247  0  3.650217  0  0  -0.345446  -0.245873  0  3.634077  0
N  N62  1  0.21987122  0.93053433  0.33981069  1  0  -0.32327  0  3.318636  0  0  -0.27605  0  3.620056  0  0  -0.29118  0  3.629801  0  0  -0.340288  -0.267193  0  3.614579  0
N  N63  1  0.78014457  0.06948382  0.66018675  1  0  -0.323555  0  3.317838  0  0  -0.276151  0  3.619176  0  0  -0.291218  0  3.628896  0  0  -0.34025  -0.267283  0  3.613738  0
O  O64  1  0.16350651  0.33654549  0.91542761  1  0  -0.739743  0  1.546658  0  0  -0.753574  0  1.838876  0  0  -0.773769  0  1.824708  0  0  -0.764937  -0.741114  0  1.849595  0
O  O65  1  0.83648696  0.66345137  0.08457435  1  0  -0.739734  0  1.546569  0  0  -0.753593  0  1.838808  0  0  -0.773784  0  1.824634  0  0  -0.764943  -0.741127  0  1.849529  0
O  O66  1  0.41505609  0.58842947  0.21185397  1  0  -0.741218  0  1.570063  0  0  -0.751811  0  1.859792  0  0  -0.772559  0  1.846942  0  0  -0.764267  -0.738818  0  1.86952  0
O  O67  1  0.58494608  0.41157042  0.78814617  1  0  -0.741216  0  1.570134  0  0  -0.751806  0  1.859906  0  0  -0.772554  0  1.847065  0  0  -0.764285  -0.738808  0  1.869634  0
O  O68  1  0.30710066  0.28767232  0.15129748  1  0  -0.668285  0  2.083715  0  0  -0.653167  0  2.355753  0  0  -0.688185  0  2.350766  0  0  -0.385152  -0.62766  0  2.357826  0
O  O69  1  0.69289516  0.71232449  0.84869510  1  0  -0.668278  0  2.083875  0  0  -0.653132  0  2.355912  0  0  -0.688137  0  2.350907  0  0  -0.3851  -0.627627  0  2.357994  0
O  O70  1  0.43999667  0.15467892  0.21494674  1  0  -0.589532  0  1.98823  0  0  -0.559876  0  2.235362  0  0  -0.586407  0  2.225206  0  0  -0.308352  -0.54039  0  2.241279  0
O  O71  1  0.56000769  0.84532301  0.78505407  1  0  -0.589614  0  1.988336  0  0  -0.559919  0  2.235537  0  0  -0.586404  0  2.225361  0  0  -0.308388  -0.540403  0  2.241454  0
O  O72  1  0.04372923  0.40333520  0.15278049  1  0  -0.645316  0  1.98965  0  0  -0.625519  0  2.246777  0  0  -0.656821  0  2.237512  0  0  -0.346649  -0.602822  0  2.252015  0
O  O73  1  0.95627022  0.59666162  0.84721432  1  0  -0.645241  0  1.989695  0  0  -0.625376  0  2.246824  0  0  -0.656684  0  2.237562  0  0  -0.346573  -0.602685  0  2.25206  0
O  O74  1  0.83734479  0.38627690  0.98767176  1  0  -0.673717  0  2.074412  0  0  -0.660626  0  2.353208  0  0  -0.696141  0  2.346527  0  0  -0.364464  -0.634614  0  2.356348  0
O  O75  1  0.16265590  0.61371993  0.01232586  1  0  -0.673755  0  2.074352  0  0  -0.660655  0  2.35315  0  0  -0.696168  0  2.346463  0  0  -0.364518  -0.634649  0  2.356289  0
O  O76  1  0.54166414  0.40710575  0.05122438  1  0  -0.786433  0  2.124295  0  0  -0.798047  0  2.439968  0  0  -0.840184  0  2.446746  0  0  -0.502725  -0.765516  0  2.432648  0
O  O77  1  0.45833241  0.59289005  0.94876899  1  0  -0.7864  0  2.124397  0  0  -0.798045  0  2.440026  0  0  -0.840181  0  2.446808  0  0  -0.502697  -0.765512  0  2.432704  0
O  O78  1  0.14469449  0.93131875  0.06628098  1  0  -0.458566  0  2.061513  0  0  -0.419087  0  2.316642  0  0  -0.442728  0  2.306348  0  0  -0.272652  -0.403469  0  2.323578  0
O  O79  1  0.85528896  0.06870682  0.93377700  1  0  -0.458571  0  2.061047  0  0  -0.419032  0  2.316113  0  0  -0.442634  0  2.305835  0  0  -0.272525  -0.403418  0  2.323088  0
O  O80  1  0.03441435  0.91305533  0.86556804  1  0  -0.489474  0  2.09336  0  0  -0.454163  0  2.362018  0  0  -0.478624  0  2.353285  0  0  -0.275365  -0.438102  0  2.367868  0
O  O81  1  0.96564577  0.08693653  0.13446804  1  0  -0.489358  0  2.093966  0  0  -0.454103  0  2.362696  0  0  -0.478605  0  2.353947  0  0  -0.275403  -0.438052  0  2.368493  0
