# generated using pymatgen
data_CdH36C33(N3O2)2
_symmetry_space_group_name_H-M   'P 1'
_cell_length_a   11.45521314
_cell_length_b   15.00808956
_cell_length_c   19.74922534
_cell_angle_alpha   90.00003941
_cell_angle_beta   90.00020549
_cell_angle_gamma   92.39034363
_symmetry_Int_Tables_number   1
_chemical_formula_structural   CdH36C33(N3O2)2
_chemical_formula_sum   'Cd4 H144 C132 N24 O16'
_cell_volume   3392.34955383
_cell_formula_units_Z   4
loop_
 _symmetry_equiv_pos_site_id
 _symmetry_equiv_pos_as_xyz
  1  'x, y, z'
loop_
 _atom_site_type_symbol
 _atom_site_label
 _atom_site_symmetry_multiplicity
 _atom_site_fract_x
 _atom_site_fract_y
 _atom_site_fract_z
 _atom_site_occupancy
 _atom_site_pbe_bader_charge
 _atom_site_pbe_bader_spin_density
 _atom_site_pbe_cm5_charge
 _atom_site_pbe_ddec_charge
 _atom_site_pbe_ddec_spin_density
 _atom_site_pbe_ddec_sum_bond_order
 _atom_site_pbe_magmom
Cd  Cd0  1  0.46047083  0.70887144  0.74625221  1  1.232876  0  0.753756  0.781508  0  2.254653  0
Cd  Cd1  1  0.03953496  0.79112445  0.24625396  1  1.232849  0  0.753785  0.781624  0  2.254457  0
Cd  Cd2  1  0.53952995  0.29113223  0.25374679  1  1.232831  0  0.753748  0.781502  0  2.254649  0
Cd  Cd3  1  0.96046469  0.20887321  0.75374707  1  1.232854  0  0.753737  0.781498  0  2.254492  0
H  H4  1  0.64562306  0.55907909  0.77568187  1  0.130096  0  0.116692  0.089482  0  1.009967  0
H  H5  1  0.85438178  0.94091187  0.27567625  1  0.12977  0  0.116623  0.089411  0  1.009989  0
H  H6  1  0.35438028  0.44092327  0.22431612  1  0.130076  0  0.116647  0.089372  0  1.010083  0
H  H7  1  0.14561737  0.05907379  0.72432022  1  0.129947  0  0.116679  0.08949  0  1.009957  0
H  H8  1  0.83462718  0.53246542  0.83659888  1  0.101607  0  0.108459  0.11566  0  1.01203  0
H  H9  1  0.66538094  0.96753229  0.33659491  1  0.10177  0  0.108485  0.115639  0  1.011877  0
H  H10  1  0.16537531  0.46753759  0.16339759  1  0.101586  0  0.108444  0.115666  0  1.012005  0
H  H11  1  0.33462215  0.03246406  0.66340157  1  0.101615  0  0.108456  0.115657  0  1.011943  0
H  H12  1  0.80835236  0.79158897  0.92777009  1  0.091716  0  0.107701  0.11702  0  1.010203  0
H  H13  1  0.69164858  0.70841146  0.42777059  1  0.09174  0  0.107725  0.11702  0  1.010114  0
H  H14  1  0.19164560  0.20841001  0.07223144  1  0.091713  0  0.1077  0.117025  0  1.010238  0
H  H15  1  0.30833795  0.29158544  0.57223196  1  0.091805  0  0.107716  0.117001  0  1.010297  0
H  H16  1  0.62238566  0.80802858  0.86263317  1  0.107317  0  0.114791  0.083927  0  0.994226  0
H  H17  1  0.87761364  0.69196310  0.36263405  1  0.106731  0  0.114798  0.083955  0  0.994088  0
H  H18  1  0.37761661  0.19196910  0.13736532  1  0.107253  0  0.114779  0.08392  0  0.99421  0
H  H19  1  0.12236892  0.30802244  0.63736445  1  0.106758  0  0.114782  0.083858  0  0.994226  0
H  H20  1  0.02141916  0.65967263  0.88030308  1  0.063285  0  0.111906  0.096717  0  0.985431  0
H  H21  1  0.47858598  0.84032940  0.38030171  1  0.063338  0  0.11193  0.096709  0  0.985416  0
H  H22  1  0.97858142  0.34032638  0.11969745  1  0.063273  0  0.111908  0.09672  0  0.98544  0
H  H23  1  0.52141235  0.15967826  0.61969527  1  0.063446  0  0.111897  0.096674  0  0.985481  0
H  H24  1  0.97028511  0.70324615  0.95771774  1  0.030313  0  0.094808  0.066004  0  0.99609  0
H  H25  1  0.52971956  0.79675568  0.45771795  1  0.030243  0  0.09482  0.066005  0  0.996108  0
H  H26  1  0.02971643  0.29675486  0.04228126  1  0.030312  0  0.094825  0.066043  0  0.996068  0
H  H27  1  0.47026983  0.20324724  0.54228004  1  0.030198  0  0.094839  0.066067  0  0.996073  0
H  H28  1  0.13095202  0.59036622  0.99515831  1  -0.005859  0  0.087311  0.050549  0  1.02636  0
H  H29  1  0.36905206  0.90963525  0.49515473  1  -0.005766  0  0.087307  0.050526  0  1.026397  0
H  H30  1  0.86904957  0.40963612  0.00484424  1  -0.005814  0  0.087342  0.050595  0  1.026353  0
H  H31  1  0.63094779  0.09036708  0.50484428  1  -0.005833  0  0.087329  0.050602  0  1.026345  0
H  H32  1  0.13544638  0.54703833  0.91087145  1  0.054019  0  0.109526  0.096408  0  0.973467  0
H  H33  1  0.36455889  0.95296239  0.41086738  1  0.05396  0  0.109513  0.096359  0  0.97345  0
H  H34  1  0.86455606  0.45296335  0.08913008  1  0.054007  0  0.109511  0.096375  0  0.973482  0
H  H35  1  0.63543924  0.04704059  0.58913163  1  0.053989  0  0.109537  0.096401  0  0.973491  0
H  H36  1  0.80810050  0.56293225  0.00179802  1  0.029594  0  0.099865  0.076167  0  1.002336  0
H  H37  1  0.69189964  0.93707039  0.50180242  1  0.029589  0  0.099861  0.076162  0  1.002341  0
H  H38  1  0.19190014  0.43706809  0.99820301  1  0.029582  0  0.09988  0.07619  0  1.00225  0
H  H39  1  0.30809756  0.06293125  0.49819811  1  0.029541  0  0.099831  0.076137  0  1.002373  0
H  H40  1  0.93236428  0.60149162  0.04961067  1  0.024194  0  0.093456  0.066877  0  0.988522  0
H  H41  1  0.56763004  0.89851103  0.54961124  1  0.024123  0  0.093432  0.066859  0  0.988503  0
H  H42  1  0.06763379  0.39851003  0.95039036  1  0.024208  0  0.093447  0.066812  0  0.988549  0
H  H43  1  0.43236634  0.10149195  0.45038827  1  0.02417  0  0.09345  0.066853  0  0.988512  0
H  H44  1  0.38845212  0.86996649  0.65568002  1  0.109554  0  0.113291  0.08503  0  1.020088  0
H  H45  1  0.11156100  0.63003002  0.15568993  1  0.10973  0  0.113199  0.084986  0  1.020078  0
H  H46  1  0.61155390  0.13003722  0.34431038  1  0.109654  0  0.113258  0.084953  0  1.02009  0
H  H47  1  0.88844105  0.36996232  0.84431160  1  0.109699  0  0.113254  0.085029  0  1.019913  0
H  H48  1  0.22970261  0.92003034  0.57777150  1  0.123488  0  0.106734  0.110405  0  1.048539  0
H  H49  1  0.27030134  0.57996736  0.07777563  1  0.123526  0  0.106717  0.110388  0  1.04858  0
H  H50  1  0.77029287  0.07997196  0.42222447  1  0.123672  0  0.106736  0.110428  0  1.048556  0
H  H51  1  0.72970262  0.42002900  0.92222590  1  0.123598  0  0.106729  0.110381  0  1.048535  0
H  H52  1  0.04816142  0.66755386  0.61418431  1  0.068037  0  0.108869  0.115461  0  0.984896  0
H  H53  1  0.45183498  0.83244581  0.11418390  1  0.06797  0  0.108894  0.115479  0  0.98489  0
H  H54  1  0.95183831  0.33244580  0.38581418  1  0.06803  0  0.108876  0.115485  0  0.984907  0
H  H55  1  0.54815597  0.16755245  0.88581764  1  0.067954  0  0.10893  0.115565  0  0.984894  0
H  H56  1  0.21330581  0.62783885  0.69031911  1  0.107174  0  0.119793  0.093046  0  0.982922  0
H  H57  1  0.28669702  0.87215696  0.19032090  1  0.107305  0  0.119809  0.093039  0  0.982995  0
H  H58  1  0.78670269  0.37216155  0.30967736  1  0.10721  0  0.119765  0.092968  0  0.983038  0
H  H59  1  0.71329559  0.12783932  0.80968063  1  0.107166  0  0.119785  0.093025  0  0.982988  0
H  H60  1  0.03287784  0.77865054  0.49769419  1  0.035075  0  0.108223  0.091819  0  0.988123  0
H  H61  1  0.46711835  0.72134955  0.99769348  1  0.03507  0  0.108215  0.091825  0  0.988055  0
H  H62  1  0.96711751  0.22134843  0.50230684  1  0.035128  0  0.108228  0.091807  0  0.988072  0
H  H63  1  0.53287449  0.27865207  0.00230603  1  0.035123  0  0.108206  0.091807  0  0.988154  0
H  H64  1  0.94391415  0.80650523  0.56718749  1  0.041679  0  0.098289  0.075561  0  0.987282  0
H  H65  1  0.55608552  0.69349747  0.06718820  1  0.041734  0  0.098297  0.075587  0  0.987285  0
H  H66  1  0.05608398  0.19349776  0.43281253  1  0.041776  0  0.098298  0.075579  0  0.987265  0
H  H67  1  0.44391278  0.30650951  0.93281131  1  0.041867  0  0.098314  0.075577  0  0.987274  0
H  H68  1  0.88400652  0.91266879  0.45970577  1  0.034264  0  0.082832  0.044929  0  1.022227  0
H  H69  1  0.61599569  0.58733634  0.95971135  1  0.034285  0  0.082804  0.044934  0  1.022218  0
H  H70  1  0.11599068  0.08733285  0.54029070  1  0.034302  0  0.082826  0.04497  0  1.022146  0
H  H71  1  0.38401033  0.41266736  0.04029120  1  0.034321  0  0.082839  0.044967  0  1.022135  0
H  H72  1  0.01340159  0.88185922  0.41686216  1  0.033628  0  0.100292  0.075834  0  1.025754  0
H  H73  1  0.48660118  0.61814349  0.91686498  1  0.033659  0  0.100336  0.075941  0  1.025611  0
H  H74  1  0.98659730  0.11814110  0.58313583  1  0.033669  0  0.100291  0.075865  0  1.025688  0
H  H75  1  0.51340393  0.38185954  0.08313655  1  0.033583  0  0.100291  0.075838  0  1.025734  0
H  H76  1  0.04661177  0.96779574  0.61730603  1  0.051522  0  0.100377  0.078926  0  1.008671  0
H  H77  1  0.45338989  0.53220398  0.11730800  1  0.051481  0  0.100388  0.078916  0  1.008698  0
H  H78  1  0.95338980  0.03220594  0.38269044  1  0.05145  0  0.100368  0.078892  0  1.008692  0
H  H79  1  0.54662136  0.46779977  0.88269354  1  0.051656  0  0.100349  0.078878  0  1.00866  0
H  H80  1  0.90524902  0.96562863  0.58041231  1  0.011008  0  0.094256  0.069936  0  1.001453  0
H  H81  1  0.59475507  0.53437345  0.08041454  1  0.010925  0  0.094232  0.069915  0  1.001439  0
H  H82  1  0.09475254  0.03437304  0.41958720  1  0.010968  0  0.094227  0.069917  0  1.00144  0
H  H83  1  0.40525529  0.46562962  0.91958547  1  0.011183  0  0.094293  0.069934  0  1.001457  0
H  H84  1  0.30279430  0.65519051  0.87458618  1  0.125912  0  0.117214  0.101916  0  1.041235  0
H  H85  1  0.19721433  0.84481220  0.37458930  1  0.12591  0  0.117247  0.101987  0  1.041149  0
H  H86  1  0.69721372  0.34481921  0.12541029  1  0.126197  0  0.117207  0.101899  0  1.041155  0
H  H87  1  0.80277823  0.15518275  0.62540920  1  0.126285  0  0.117215  0.101868  0  1.041246  0
H  H88  1  0.20485540  0.71981718  0.97650351  1  0.087997  0  0.102044  0.104453  0  1.045807  0
H  H89  1  0.29515801  0.78018034  0.47650426  1  0.087811  0  0.101991  0.104405  0  1.045795  0
H  H90  1  0.79516028  0.28018793  0.02349650  1  0.087891  0  0.101996  0.104374  0  1.045938  0
H  H91  1  0.70484243  0.21981533  0.52349373  1  0.087798  0  0.101976  0.104395  0  1.045868  0
H  H92  1  0.31073619  0.98090633  0.90309727  1  0.044939  0  0.110263  0.121184  0  0.987006  0
H  H93  1  0.18925343  0.51909694  0.40310475  1  0.044313  0  0.110247  0.121209  0  0.986951  0
H  H94  1  0.68924825  0.01910322  0.09689617  1  0.04429  0  0.110257  0.1212  0  0.986961  0
H  H95  1  0.81075915  0.48089682  0.59689020  1  0.044249  0  0.110232  0.121222  0  0.986987  0
H  H96  1  0.41318543  0.90490382  0.80690776  1  0.10298  0  0.116875  0.101063  0  1.005012  0
H  H97  1  0.08680350  0.59509734  0.30691456  1  0.103257  0  0.116891  0.101059  0  1.004964  0
H  H98  1  0.58679557  0.09510704  0.19308365  1  0.103423  0  0.116863  0.10098  0  1.005015  0
H  H99  1  0.91320285  0.40489371  0.69308039  1  0.103509  0  0.116878  0.101005  0  1.005157  0
H  H100  1  0.16095079  0.84218308  0.04349323  1  0.03186  0  0.093974  0.069435  0  0.995945  0
H  H101  1  0.33905019  0.65781123  0.54349931  1  0.03185  0  0.093953  0.069393  0  0.995991  0
H  H102  1  0.83905506  0.15781663  0.95650526  1  0.031882  0  0.093986  0.069455  0  0.995938  0
H  H103  1  0.66094504  0.34218507  0.45650071  1  0.032147  0  0.094016  0.069499  0  0.995921  0
H  H104  1  0.26788420  0.93086892  0.04020716  1  0.042639  0  0.106941  0.087553  0  0.974198  0
H  H105  1  0.23211940  0.56912607  0.54020841  1  0.04257  0  0.106956  0.087565  0  0.974246  0
H  H106  1  0.73212010  0.06913545  0.95979184  1  0.042215  0  0.106969  0.087596  0  0.974203  0
H  H107  1  0.76788267  0.43086694  0.45978553  1  0.042403  0  0.106946  0.087577  0  0.974221  0
H  H108  1  0.96604243  0.86964631  0.00167218  1  0.016669  0  0.087154  0.051156  0  0.995975  0
H  H109  1  0.53396021  0.63035368  0.50167356  1  0.016636  0  0.087171  0.05117  0  0.995933  0
H  H110  1  0.03395640  0.13035268  0.99833087  1  0.016756  0  0.087185  0.05121  0  0.995886  0
H  H111  1  0.46604736  0.36964537  0.49832949  1  0.016793  0  0.087179  0.05115  0  0.995905  0
H  H112  1  0.03059360  0.88109276  0.91931683  1  0.037408  0  0.098213  0.075952  0  1.013042  0
H  H113  1  0.46940221  0.61890991  0.41931887  1  0.037289  0  0.098212  0.075993  0  1.013007  0
H  H114  1  0.96940436  0.11890623  0.08068370  1  0.037353  0  0.098211  0.075956  0  1.013037  0
H  H115  1  0.53060634  0.38109182  0.58068165  1  0.037441  0  0.0982  0.075947  0  1.01306  0
H  H116  1  0.16067240  0.04655393  0.07418942  1  0.005822  0  0.098966  0.075246  0  0.978838  0
H  H117  1  0.33933119  0.45344034  0.57418957  1  0.005832  0  0.098979  0.075273  0  0.978821  0
H  H118  1  0.83932559  0.95344572  0.92581516  1  0.005809  0  0.099009  0.07527  0  0.978936  0
H  H119  1  0.66067370  0.54655736  0.42581095  1  0.005755  0  0.098966  0.075264  0  0.978856  0
H  H120  1  0.04402914  0.96948974  0.09482377  1  0.074527  0  0.096845  0.085619  0  0.994442  0
H  H121  1  0.45597576  0.53050731  0.59482546  1  0.074565  0  0.096769  0.085533  0  0.994459  0
H  H122  1  0.95596699  0.03050723  0.90517980  1  0.07467  0  0.096844  0.085603  0  0.994461  0
H  H123  1  0.54402935  0.46949572  0.40517709  1  0.074657  0  0.096826  0.085566  0  0.994514  0
H  H124  1  0.72401935  0.95189394  0.66660993  1  0.09526  0  0.095745  0.130435  0  1.048226  0
H  H125  1  0.77598353  0.54810822  0.16661457  1  0.095229  0  0.095763  0.130469  0  1.048165  0
H  H126  1  0.27599033  0.04811379  0.33339211  1  0.095352  0  0.095735  0.130366  0  1.048312  0
H  H127  1  0.22401156  0.45188474  0.83339152  1  0.095284  0  0.095721  0.130353  0  1.0483  0
H  H128  1  0.75019429  0.85993757  0.61188374  1  0.026154  0  0.093168  0.107323  0  1.010456  0
H  H129  1  0.74980797  0.64005787  0.11188078  1  0.026191  0  0.09316  0.107279  0  1.010438  0
H  H130  1  0.24980463  0.14006342  0.38812286  1  0.026075  0  0.093198  0.107248  0  1.010539  0
H  H131  1  0.25019427  0.35993915  0.88812481  1  0.025951  0  0.093191  0.107242  0  1.010491  0
H  H132  1  0.80535634  0.71673596  0.68605325  1  0.082185  0  0.098793  0.110121  0  1.012633  0
H  H133  1  0.69465109  0.78326760  0.18605531  1  0.082298  0  0.098864  0.110255  0  1.012547  0
H  H134  1  0.19464354  0.28326704  0.31394626  1  0.082162  0  0.098802  0.110151  0  1.012531  0
H  H135  1  0.30535039  0.21673208  0.81395331  1  0.082176  0  0.098859  0.110212  0  1.012646  0
H  H136  1  0.97709972  0.66578113  0.74996934  1  0.007856  0  0.097919  0.092479  0  0.996456  0
H  H137  1  0.52290994  0.83422450  0.24997107  1  0.007732  0  0.097942  0.092512  0  0.996477  0
H  H138  1  0.02290267  0.33421922  0.25002713  1  0.007811  0  0.097947  0.092522  0  0.996433  0
H  H139  1  0.47708537  0.16577379  0.75003350  1  0.007765  0  0.097925  0.092513  0  0.996469  0
H  H140  1  0.11051518  0.77800637  0.80815303  1  0.052628  0  0.091253  0.087974  0  1.038257  0
H  H141  1  0.38949241  0.72200227  0.30815445  1  0.052664  0  0.091253  0.087999  0  1.038186  0
H  H142  1  0.88948968  0.22199067  0.19184648  1  0.052669  0  0.091252  0.087967  0  1.038289  0
H  H143  1  0.61050539  0.27799271  0.69184759  1  0.052671  0  0.091269  0.088019  0  1.038097  0
H  H144  1  0.06452325  0.93853111  0.80345765  1  0.092427  0  0.100839  0.103849  0  1.027463  0
H  H145  1  0.43548171  0.56147817  0.30345908  1  0.092553  0  0.100851  0.103802  0  1.027434  0
H  H146  1  0.93547989  0.06146658  0.19654541  1  0.092435  0  0.100843  0.103834  0  1.027374  0
H  H147  1  0.56451783  0.43851683  0.69654195  1  0.092673  0  0.100822  0.103787  0  1.027423  0
C  C148  1  0.68498828  0.60832641  0.81039164  1  0.424041  0  0.048431  0.099245  0  3.94345  0
C  C149  1  0.81501153  0.89166455  0.31038743  1  0.424242  0  0.048601  0.099413  0  3.943678  0
C  C150  1  0.31501233  0.39167326  0.18960635  1  0.42398  0  0.048469  0.099367  0  3.943563  0
C  C151  1  0.18498426  0.10832442  0.68960955  1  0.423996  0  0.048492  0.099321  0  3.943507  0
C  C152  1  0.78923536  0.59414902  0.84389787  1  -0.019436  0  -0.082989  -0.180718  0  3.947628  0
C  C153  1  0.71077376  0.90585071  0.34389446  1  -0.044632  0  -0.083067  -0.180675  0  3.947486  0
C  C154  1  0.21076804  0.40585467  0.15609961  1  -0.044604  0  -0.083001  -0.180772  0  3.947639  0
C  C155  1  0.28922854  0.09414764  0.65610302  1  -0.044751  0  -0.083077  -0.180798  0  3.947795  0
C  C156  1  0.83686470  0.66045811  0.88677709  1  -0.000683  0  0.013688  0.141686  0  3.960898  0
C  C157  1  0.66314111  0.83953964  0.38677658  1  0.025251  0  0.013694  0.141625  0  3.960827  0
C  C158  1  0.16313675  0.33954090  0.11322242  1  0.024623  0  0.013622  0.141607  0  3.960848  0
C  C159  1  0.33685499  0.16045666  0.61322191  1  0.024957  0  0.013776  0.14176  0  3.960706  0
C  C160  1  0.77520716  0.73816222  0.89464318  1  -0.060697  0  -0.083734  -0.182738  0  3.941568  0
C  C161  1  0.72479535  0.76183885  0.39464225  1  -0.060709  0  -0.083705  -0.182603  0  3.941542  0
C  C162  1  0.22479173  0.26183811  0.10535583  1  -0.060738  0  -0.083734  -0.182704  0  3.941629  0
C  C163  1  0.27519123  0.23815938  0.60535523  1  -0.06023  0  -0.08375  -0.182725  0  3.941767  0
C  C164  1  0.67147744  0.74742887  0.85900724  1  0.475415  0  0.048409  0.098786  0  3.969613  0
C  C165  1  0.82852009  0.75256279  0.35900805  1  0.475409  0  0.048375  0.098683  0  3.969231  0
C  C166  1  0.32852131  0.25256812  0.14098973  1  0.475122  0  0.048463  0.098789  0  3.96928  0
C  C167  1  0.17147052  0.24742747  0.64099146  1  0.475518  0  0.04843  0.098913  0  3.96953  0
C  C168  1  0.95400229  0.64955622  0.91969445  1  0.306543  0  -0.05951  -0.114054  0  3.966805  0
C  C169  1  0.54600387  0.85044490  0.41969371  1  0.306107  0  -0.059579  -0.11407  0  3.966779  0
C  C170  1  0.04599573  0.35044410  0.08030557  1  0.306542  0  -0.05948  -0.11407  0  3.96676  0
C  C171  1  0.45399600  0.14955809  0.58030428  1  0.305982  0  -0.059581  -0.114163  0  3.966829  0
C  C172  1  0.08867221  0.54179275  0.95941711  1  0.305242  0  -0.067725  -0.077793  0  3.94671  0
C  C173  1  0.41133162  0.95820801  0.45941414  1  0.305326  0  -0.067706  -0.077686  0  3.946593  0
C  C174  1  0.91133014  0.45820693  0.04058342  1  0.305255  0  -0.067721  -0.077777  0  3.946689  0
C  C175  1  0.58866998  0.04179433  0.54058436  1  0.305417  0  -0.06776  -0.077833  0  3.946659  0
C  C176  1  0.90073189  0.55124126  0.01175395  1  0.318008  0  -0.068954  -0.076402  0  3.941718  0
C  C177  1  0.59926826  0.94876006  0.51175411  1  0.318075  0  -0.068899  -0.076265  0  3.94162  0
C  C178  1  0.09926884  0.44876108  0.98824658  1  0.318061  0  -0.068967  -0.076331  0  3.941664  0
C  C179  1  0.40073066  0.05124093  0.48824490  1  0.318079  0  -0.068914  -0.07632  0  3.941619  0
C  C180  1  0.31067956  0.82758621  0.64511445  1  0.465705  0  0.043189  0.089131  0  3.966365  0
C  C181  1  0.18932650  0.67241024  0.14512201  1  0.465749  0  0.043303  0.089196  0  3.966192  0
C  C182  1  0.68932124  0.17241812  0.35487848  1  0.465719  0  0.043324  0.089399  0  3.965978  0
C  C183  1  0.81067205  0.32758209  0.85487902  1  0.465562  0  0.043273  0.089174  0  3.966001  0
C  C184  1  0.22285447  0.85501619  0.60224939  1  -0.050022  0  -0.089087  -0.194344  0  3.974079  0
C  C185  1  0.27714788  0.64498152  0.10225206  1  -0.050258  0  -0.089102  -0.194412  0  3.974192  0
C  C186  1  0.77714191  0.14498678  0.39774860  1  -0.050369  0  -0.089236  -0.194608  0  3.974  0
C  C187  1  0.72285602  0.35501351  0.89774846  1  -0.049998  0  -0.089155  -0.19438  0  3.973907  0
C  C188  1  0.12572792  0.79779444  0.58980423  1  -0.005002  0  0.015836  0.14888  0  3.930845  0
C  C189  1  0.37427016  0.70220722  0.08980764  1  -0.005185  0  0.01587  0.148912  0  3.930882  0
C  C190  1  0.87426680  0.20221052  0.41019275  1  -0.005123  0  0.015853  0.148901  0  3.930703  0
C  C191  1  0.62572698  0.29779309  0.91019339  1  -0.005172  0  0.015868  0.148931  0  3.930657  0
C  C192  1  0.12216763  0.71456229  0.62178673  1  -0.072334  0  -0.084511  -0.182671  0  3.974397  0
C  C193  1  0.37783232  0.78543742  0.12178867  1  -0.072025  0  -0.084528  -0.182665  0  3.974231  0
C  C194  1  0.87783394  0.28543939  0.37821076  1  -0.072416  0  -0.084493  -0.182643  0  3.974258  0
C  C195  1  0.62216209  0.21456020  0.87821490  1  -0.072388  0  -0.084564  -0.182821  0  3.974348  0
C  C196  1  0.21325130  0.69194419  0.66409734  1  0.506192  0  0.047966  0.091038  0  3.976746  0
C  C197  1  0.28674364  0.80805486  0.16410062  1  0.506031  0  0.047939  0.091025  0  3.976725  0
C  C198  1  0.78675119  0.30805883  0.33589762  1  0.506734  0  0.047984  0.091105  0  3.976816  0
C  C199  1  0.71324548  0.19194139  0.83590193  1  0.506752  0  0.048002  0.091083  0  3.976643  0
C  C200  1  0.02934625  0.82268414  0.54226658  1  0.335853  0  -0.057342  -0.108476  0  3.965698  0
C  C201  1  0.47065069  0.67731813  0.04226815  1  0.33581  0  -0.057399  -0.108608  0  3.965602  0
C  C202  1  0.97064751  0.17731881  0.45773141  1  0.335764  0  -0.057375  -0.108524  0  3.965483  0
C  C203  1  0.52934831  0.32268486  0.95773238  1  0.335671  0  -0.057413  -0.10862  0  3.965651  0
C  C204  1  0.97963527  0.92747521  0.45485302  1  0.286528  0  -0.072698  -0.077862  0  3.962729  0
C  C205  1  0.52036939  0.57252660  0.95485434  1  0.286324  0  -0.072765  -0.078035  0  3.962704  0
C  C206  1  0.02036447  0.07252445  0.54514598  1  0.28649  0  -0.072735  -0.077982  0  3.962715  0
C  C207  1  0.47963744  0.42747578  0.04514668  1  0.286447  0  -0.072688  -0.077897  0  3.962665  0
C  C208  1  0.99961789  0.97729518  0.56953756  1  0.310308  0  -0.072386  -0.078969  0  3.931277  0
C  C209  1  0.50038436  0.52270621  0.06953959  1  0.310435  0  -0.07241  -0.078975  0  3.931199  0
C  C210  1  0.00038278  0.02270582  0.43046094  1  0.310388  0  -0.072399  -0.078974  0  3.931176  0
C  C211  1  0.49962256  0.47729817  0.93046094  1  0.310088  0  -0.072411  -0.078921  0  3.931126  0
C  C212  1  0.30419285  0.72688505  0.88406860  1  0.421969  0  0.040221  0.076207  0  3.9614  0
C  C213  1  0.19581485  0.77311499  0.38407623  1  0.421877  0  0.040127  0.076039  0  3.961646  0
C  C214  1  0.69580900  0.27312329  0.11592635  1  0.421742  0  0.040249  0.07628  0  3.961269  0
C  C215  1  0.80418900  0.22687870  0.61592581  1  0.42172  0  0.040174  0.076172  0  3.961543  0
C  C216  1  0.24917599  0.76346509  0.93977200  1  -0.031333  0  -0.088633  -0.185528  0  3.965279  0
C  C217  1  0.25083369  0.73653236  0.43977315  1  -0.031425  0  -0.088541  -0.185417  0  3.965162  0
C  C218  1  0.75083366  0.23654198  0.06022700  1  -0.031364  0  -0.088545  -0.185402  0  3.965106  0
C  C219  1  0.74916574  0.26345997  0.56022535  1  -0.031448  0  -0.088517  -0.185393  0  3.965091  0
C  C220  1  0.25198164  0.85576415  0.94883061  1  0.014231  0  0.012295  0.143153  0  3.950086  0
C  C221  1  0.24802114  0.64423393  0.44883575  1  0.01427  0  0.012331  0.143257  0  3.949944  0
C  C222  1  0.74801846  0.14424418  0.05116535  1  0.014149  0  0.012309  0.14319  0  3.949862  0
C  C223  1  0.75198437  0.35575778  0.55116123  1  0.013953  0  0.01235  0.143266  0  3.949911  0
C  C224  1  0.30917018  0.90834258  0.89929203  1  -0.035628  0  -0.083538  -0.177697  0  3.939401  0
C  C225  1  0.19082190  0.59165737  0.39929905  1  -0.035113  0  -0.083619  -0.177833  0  3.939528  0
C  C226  1  0.69081851  0.09166433  0.10070039  1  -0.035143  0  -0.083568  -0.177751  0  3.939305  0
C  C227  1  0.80918547  0.40833702  0.60069286  1  -0.035156  0  -0.083644  -0.177875  0  3.939491  0
C  C228  1  0.36409342  0.86710397  0.84549149  1  0.541207  0  0.041603  0.082517  0  3.955534  0
C  C229  1  0.13590525  0.63289464  0.34549943  1  0.541106  0  0.041687  0.08262  0  3.955476  0
C  C230  1  0.63589964  0.13290298  0.15450144  1  0.541137  0  0.041696  0.082657  0  3.955548  0
C  C231  1  0.86409953  0.36710040  0.65449755  1  0.541125  0  0.041723  0.082657  0  3.95569  0
C  C232  1  0.19802142  0.89637201  0.01062263  1  0.317515  0  -0.061481  -0.111646  0  3.982668  0
C  C233  1  0.30197870  0.60362758  0.51062506  1  0.317507  0  -0.061463  -0.111582  0  3.982874  0
C  C234  1  0.80198023  0.10363166  0.98937688  1  0.317887  0  -0.061455  -0.111601  0  3.982702  0
C  C235  1  0.69802261  0.39636809  0.48937091  1  0.317522  0  -0.06153  -0.11166  0  3.982648  0
C  C236  1  0.00666746  0.91807704  0.96494949  1  0.272647  0  -0.072784  -0.079779  0  3.958354  0
C  C237  1  0.49333469  0.58192439  0.46494903  1  0.272713  0  -0.072814  -0.079828  0  3.958434  0
C  C238  1  0.99332879  0.08192260  0.03505255  1  0.272597  0  -0.072785  -0.079768  0  3.958402  0
C  C239  1  0.50667048  0.41807998  0.53505251  1  0.272542  0  -0.072747  -0.079636  0  3.958369  0
C  C240  1  0.08084233  0.01286229  0.05395967  1  0.306359  0  -0.071069  -0.081182  0  3.943415  0
C  C241  1  0.41915620  0.48713925  0.55395748  1  0.306241  0  -0.071022  -0.081108  0  3.943445  0
C  C242  1  0.91915045  0.98713799  0.94604440  1  0.306219  0  -0.071114  -0.081157  0  3.943448  0
C  C243  1  0.58084895  0.51286445  0.44604406  1  0.306247  0  -0.071074  -0.081093  0  3.943506  0
C  C244  1  0.62388910  0.82973370  0.68901878  1  1.559497  0  0.181638  0.620477  0  4.188302  0
C  C245  1  0.87611297  0.67026649  0.18901812  1  1.559486  0  0.181619  0.620477  0  4.188636  0
C  C246  1  0.37610931  0.17027596  0.31098478  1  1.559738  0  0.181473  0.620149  0  4.188773  0
C  C247  1  0.12389085  0.32972654  0.81098544  1  1.559803  0  0.181463  0.620268  0  4.188714  0
C  C248  1  0.73448735  0.88000679  0.66459314  1  -0.037471  0  -0.175283  -0.360755  0  3.939046  0
C  C249  1  0.76551290  0.61999536  0.16459273  1  -0.037162  0  -0.175291  -0.360694  0  3.93898  0
C  C250  1  0.26551438  0.11999889  0.33541093  1  -0.037022  0  -0.175298  -0.36045  0  3.93911  0
C  C251  1  0.23448667  0.38000030  0.83541134  1  -0.036881  0  -0.175281  -0.360481  0  3.9391  0
C  C252  1  0.83908814  0.85590158  0.70677464  1  0.006109  0  0.003985  0.143308  0  3.885502  0
C  C253  1  0.66091860  0.64410332  0.20677707  1  0.006062  0  0.004009  0.143277  0  3.885406  0
C  C254  1  0.16091517  0.14410011  0.29322791  1  0.006012  0  0.003948  0.143213  0  3.885507  0
C  C255  1  0.33908542  0.35589437  0.79323055  1  0.006298  0  0.003925  0.143155  0  3.885767  0
C  C256  1  0.86417256  0.76512185  0.71144672  1  -0.028683  0  -0.101584  -0.159937  0  3.97825  0
C  C257  1  0.63583513  0.73488440  0.21144965  1  -0.029113  0  -0.101709  -0.160193  0  3.978319  0
C  C258  1  0.13583075  0.23487984  0.28855127  1  -0.02865  0  -0.101599  -0.159966  0  3.978064  0
C  C259  1  0.36416550  0.26511594  0.78855644  1  -0.028969  0  -0.101715  -0.160155  0  3.978428  0
C  C260  1  0.95984862  0.73665437  0.74765330  1  -0.095626  0  -0.095607  -0.07704  0  4.070487  0
C  C261  1  0.54015578  0.76335123  0.24765098  1  -0.09553  0  -0.095616  -0.076982  0  4.070616  0
C  C262  1  0.04014942  0.26334662  0.25234976  1  -0.09546  0  -0.095636  -0.077089  0  4.070495  0
C  C263  1  0.45984297  0.23664576  0.75235258  1  -0.095039  0  -0.09558  -0.076962  0  4.070542  0
C  C264  1  0.03383998  0.79894994  0.78062782  1  -0.059565  0  -0.107256  -0.104658  0  4.049657  0
C  C265  1  0.46616479  0.70105798  0.28062737  1  -0.059763  0  -0.107175  -0.104658  0  4.049649  0
C  C266  1  0.96616407  0.20104842  0.21937270  1  -0.059697  0  -0.107276  -0.104732  0  4.049579  0
C  C267  1  0.53383140  0.29894033  0.71937518  1  -0.060271  0  -0.107239  -0.104714  0  4.049571  0
C  C268  1  0.00914497  0.88865057  0.77753656  1  -0.044343  0  -0.094516  -0.104533  0  4.007557  0
C  C269  1  0.49085887  0.61135667  0.27753814  1  -0.044421  0  -0.094558  -0.104406  0  4.007213  0
C  C270  1  0.99086085  0.11134847  0.22246447  1  -0.045133  0  -0.094452  -0.104408  0  4.007363  0
C  C271  1  0.50913993  0.38864165  0.72246745  1  -0.044927  0  -0.094506  -0.104399  0  4.007412  0
C  C272  1  0.91261442  0.91897276  0.74118418  1  -0.007264  0  -0.021208  -0.09428  0  3.902639  0
C  C273  1  0.58738383  0.58103278  0.24118035  1  -0.007241  0  -0.02128  -0.094327  0  3.902376  0
C  C274  1  0.08738447  0.08102756  0.25882343  1  -0.006794  0  -0.021193  -0.0942  0  3.90259  0
C  C275  1  0.41261489  0.41896354  0.75882119  1  -0.007248  0  -0.021176  -0.094186  0  3.902436  0
C  C276  1  0.89945280  0.01902664  0.74032972  1  1.531628  0  0.19161  0.554868  0  4.229259  0
C  C277  1  0.60054085  0.48097812  0.24032916  1  1.533153  0  0.191629  0.554635  0  4.229296  0
C  C278  1  0.10055043  0.98097305  0.25967637  1  1.531733  0  0.191685  0.554952  0  4.229107  0
C  C279  1  0.39945627  0.51902153  0.75967541  1  1.531702  0  0.191775  0.554942  0  4.228876  0
N  N280  1  0.62664752  0.68379233  0.81764606  1  -1.228604  0  -0.32598  -0.240285  0  3.490591  0
N  N281  1  0.87335259  0.81620464  0.31764548  1  -1.228366  0  -0.326054  -0.240394  0  3.490434  0
N  N282  1  0.37335402  0.31620868  0.18235395  1  -1.228217  0  -0.325968  -0.240254  0  3.490288  0
N  N283  1  0.12663982  0.18378697  0.68235302  1  -1.228446  0  -0.326039  -0.240387  0  3.490397  0
N  N284  1  0.96617794  0.56108939  0.94836139  1  -1.039893  0  -0.344252  -0.144272  0  3.481232  0
N  N285  1  0.53382584  0.93891308  0.44836016  1  -1.040042  0  -0.34427  -0.144391  0  3.481259  0
N  N286  1  0.03382354  0.43891028  0.05163914  1  -1.039937  0  -0.344282  -0.144283  0  3.48137  0
N  N287  1  0.46617317  0.06108991  0.55163935  1  -1.039894  0  -0.344245  -0.144315  0  3.48136  0
N  N288  1  0.30604054  0.74754004  0.67572474  1  -1.247733  0  -0.333603  -0.2406  0  3.533462  0
N  N289  1  0.19396577  0.75245778  0.17573033  1  -1.247851  0  -0.333594  -0.240523  0  3.533485  0
N  N290  1  0.69396553  0.25246500  0.32426870  1  -1.248233  0  -0.333586  -0.240606  0  3.53354  0
N  N291  1  0.80602850  0.24753651  0.82427019  1  -1.248125  0  -0.333582  -0.240511  0  3.533267  0
N  N292  1  0.03996206  0.91430604  0.51893101  1  -1.042396  0  -0.346602  -0.142682  0  3.499596  0
N  N293  1  0.46003905  0.58569490  0.01893201  1  -1.042235  0  -0.346528  -0.142578  0  3.499546  0
N  N294  1  0.96003774  0.08569495  0.48106799  1  -1.042351  0  -0.346535  -0.14265  0  3.499551  0
N  N295  1  0.53996691  0.41430747  0.98106953  1  -1.042369  0  -0.346609  -0.142659  0  3.499433  0
N  N296  1  0.36243798  0.77770331  0.83810636  1  -1.26458  0  -0.328001  -0.244506  0  3.515978  0
N  N297  1  0.13756420  0.72229665  0.33811486  1  -1.264248  0  -0.328002  -0.244521  0  3.515873  0
N  N298  1  0.63755593  0.22230298  0.16188758  1  -1.264603  0  -0.328139  -0.244672  0  3.516019  0
N  N299  1  0.86243625  0.27769902  0.66188414  1  -1.264485  0  -0.32799  -0.244474  0  3.516004  0
N  N300  1  0.11205529  0.96148263  0.99391834  1  -1.012647  0  -0.345824  -0.149455  0  3.471327  0
N  N301  1  0.38794267  0.53851880  0.49391663  1  -1.012547  0  -0.345798  -0.149539  0  3.47138  0
N  N302  1  0.88793836  0.03851766  0.00608623  1  -1.012606  0  -0.345825  -0.149586  0  3.471298  0
N  N303  1  0.61206419  0.46148425  0.50608542  1  -1.01252  0  -0.34586  -0.149745  0  3.471281  0
O  O304  1  0.60077039  0.75251936  0.66382939  1  -1.175533  0  -0.3587  -0.578525  0  2.144031  0
O  O305  1  0.89922211  0.74748540  0.16383540  1  -1.175374  0  -0.358698  -0.578578  0  2.144272  0
O  O306  1  0.39921599  0.24749488  0.33616860  1  -1.17552  0  -0.358627  -0.578432  0  2.144146  0
O  O307  1  0.10078013  0.25251162  0.83617170  1  -1.175555  0  -0.358647  -0.578482  0  2.144135  0
O  O308  1  0.56217077  0.86489509  0.73465241  1  -1.197521  0  -0.36043  -0.605218  0  2.116355  0
O  O309  1  0.93784891  0.63510194  0.23464123  1  -1.197671  0  -0.360419  -0.605223  0  2.116453  0
O  O310  1  0.43784246  0.13511401  0.26535875  1  -1.197849  0  -0.360313  -0.605049  0  2.116497  0
O  O311  1  0.06215813  0.36488444  0.76535727  1  -1.19787  0  -0.360279  -0.605093  0  2.116509  0
O  O312  1  0.83421776  0.05637004  0.69821915  1  -1.185399  0  -0.332262  -0.565279  0  2.173554  0
O  O313  1  0.66577993  0.44363337  0.19822175  1  -1.186887  0  -0.332188  -0.56509  0  2.173592  0
O  O314  1  0.16578992  0.94363168  0.30178188  1  -1.185482  0  -0.332306  -0.565327  0  2.173626  0
O  O315  1  0.33422059  0.55636430  0.80178384  1  -1.185232  0  -0.332264  -0.56525  0  2.173587  0
O  O316  1  0.96281563  0.06302746  0.78380340  1  -1.164442  0  -0.338764  -0.554447  0  2.270133  0
O  O317  1  0.53717463  0.43697332  0.28380117  1  -1.16434  0  -0.338803  -0.554403  0  2.270112  0
O  O318  1  0.03717695  0.93696815  0.21620623  1  -1.16442  0  -0.338834  -0.5546  0  2.270072  0
O  O319  1  0.46282590  0.56302435  0.71620188  1  -1.164427  0  -0.338882  -0.554572  0  2.270009  0
