# generated using pymatgen
data_AgPH9C7NO3
_symmetry_space_group_name_H-M   'P 1'
_cell_length_a   4.57689648
_cell_length_b   11.79758983
_cell_length_c   16.03342952
_cell_angle_alpha   102.01070316
_cell_angle_beta   89.99999221
_cell_angle_gamma   90.00003192
_symmetry_Int_Tables_number   1
_chemical_formula_structural   AgPH9C7NO3
_chemical_formula_sum   'Ag4 P4 H36 C28 N4 O12'
_cell_volume   846.79434881
_cell_formula_units_Z   4
loop_
 _symmetry_equiv_pos_site_id
 _symmetry_equiv_pos_as_xyz
  1  'x, y, z'
loop_
 _atom_site_type_symbol
 _atom_site_label
 _atom_site_symmetry_multiplicity
 _atom_site_fract_x
 _atom_site_fract_y
 _atom_site_fract_z
 _atom_site_occupancy
 _atom_site_hle17_bader_spin_density
 _atom_site_hle17_ddec_charge
 _atom_site_hle17_ddec_spin_density
 _atom_site_hle17_ddec_sum_bond_order
 _atom_site_hle17_magmom
 _atom_site_hse06_10hf_bader_spin_density
 _atom_site_hse06_10hf_ddec_charge
 _atom_site_hse06_10hf_ddec_spin_density
 _atom_site_hse06_10hf_ddec_sum_bond_order
 _atom_site_hse06_10hf_magmom
 _atom_site_hse06_bader_spin_density
 _atom_site_hse06_ddec_charge
 _atom_site_hse06_ddec_spin_density
 _atom_site_hse06_ddec_sum_bond_order
 _atom_site_hse06_magmom
 _atom_site_pbe_bader_spin_density
 _atom_site_pbe_cm5_charge
 _atom_site_pbe_ddec_charge
 _atom_site_pbe_ddec_spin_density
 _atom_site_pbe_ddec_sum_bond_order
 _atom_site_pbe_magmom
Ag  Ag0  1  0.97671675  0.51041781  0.18936831  1  0  0.539874  0  1.492465  0  0  0.404954  0  1.976909  0  0  0.440107  0  1.912847  0  0  0.422493  0.380692  0  2.021195  0
Ag  Ag1  1  0.47671632  0.48958284  0.31063104  1  0  0.539846  0  1.492509  0  0  0.404911  0  1.976976  0  0  0.440064  0  1.912911  0  0  0.422473  0.380645  0  2.02127  0
Ag  Ag2  1  0.02328450  0.48958208  0.81063105  1  0  0.539853  0  1.492504  0  0  0.404921  0  1.976963  0  0  0.440071  0  1.912898  0  0  0.422471  0.380653  0  2.021257  0
Ag  Ag3  1  0.52328274  0.51041793  0.68936845  1  0  0.539863  0  1.492462  0  0  0.404932  0  1.976909  0  0  0.440085  0  1.912848  0  0  0.422479  0.380671  0  2.021192  0
P  P4  1  0.19536865  0.73981863  0.31950305  1  0  1.468471  0  4.779844  0  0  1.317069  0  5.261458  0  0  1.365416  0  5.22856  0  0  0.335202  1.283398  0  5.283561  0
P  P5  1  0.69537091  0.26018196  0.18049692  1  0  1.468418  0  4.779864  0  0  1.317031  0  5.261491  0  0  1.36537  0  5.22859  0  0  0.335175  1.283363  0  5.283596  0
P  P6  1  0.80463042  0.26018213  0.68049644  1  0  1.468393  0  4.779951  0  0  1.317008  0  5.261569  0  0  1.365345  0  5.228672  0  0  0.335158  1.283338  0  5.283672  0
P  P7  1  0.30463253  0.73981880  0.81950320  1  0  1.46846  0  4.779764  0  0  1.317065  0  5.261402  0  0  1.365414  0  5.228499  0  0  0.335166  1.283393  0  5.283503  0
H  H8  1  0.63826922  0.74341424  0.26387802  1  0  0.437245  0  0.873449  0  0  0.403331  0  0.94206  0  0  0.414804  0  0.925787  0  0  0.304561  0.39532  0  0.953387  0
H  H9  1  0.13827286  0.25658721  0.23612146  1  0  0.437209  0  0.873502  0  0  0.403287  0  0.942127  0  0  0.414759  0  0.925856  0  0  0.304528  0.395277  0  0.953453  0
H  H10  1  0.36172984  0.25658652  0.73612209  1  0  0.437235  0  0.873462  0  0  0.403321  0  0.942075  0  0  0.414792  0  0.925806  0  0  0.304552  0.39531  0  0.953402  0
H  H11  1  0.86173057  0.74341356  0.76387803  1  0  0.437239  0  0.873458  0  0  0.40332  0  0.942079  0  0  0.414793  0  0.925805  0  0  0.304546  0.395308  0  0.953407  0
H  H12  1  0.96021238  0.92358203  0.34472514  1  0  0.140223  0  0.946131  0  0  0.155462  0  1.00137  0  0  0.156998  0  1.002483  0  0  0.111538  0.154337  0  1.000626  0
H  H13  1  0.46021143  0.07641861  0.15527545  1  0  0.140227  0  0.946114  0  0  0.155466  0  1.001354  0  0  0.157004  0  1.002464  0  0  0.111536  0.154342  0  1.000609  0
H  H14  1  0.03978887  0.07641873  0.65527497  1  0  0.140235  0  0.946111  0  0  0.155475  0  1.001346  0  0  0.157013  0  1.002455  0  0  0.11154  0.15435  0  1.000599  0
H  H15  1  0.53978763  0.92358214  0.84472529  1  0  0.140222  0  0.946117  0  0  0.155466  0  1.001361  0  0  0.157003  0  1.002472  0  0  0.111544  0.15434  0  1.000615  0
H  H16  1  0.88196277  0.84585711  0.42470960  1  0  0.138837  0  0.947899  0  0  0.150479  0  1.009886  0  0  0.152152  0  1.011235  0  0  0.109675  0.149289  0  1.008942  0
H  H17  1  0.38196416  0.15414351  0.07529099  1  0  0.138831  0  0.947929  0  0  0.150481  0  1.009909  0  0  0.152148  0  1.011267  0  0  0.109669  0.149291  0  1.008966  0
H  H18  1  0.11803629  0.15414278  0.57529100  1  0  0.13881  0  0.947988  0  0  0.150464  0  1.009959  0  0  0.152131  0  1.011317  0  0  0.109658  0.149274  0  1.009016  0
H  H19  1  0.61803709  0.84585724  0.92470912  1  0  0.138826  0  0.94792  0  0  0.150481  0  1.009903  0  0  0.152147  0  1.011262  0  0  0.109673  0.149289  0  1.008961  0
H  H20  1  0.11485512  0.10623665  0.34437892  1  0  0.110085  0  0.962568  0  0  0.13044  0  1.02799  0  0  0.131683  0  1.027722  0  0  0.089016  0.129494  0  1.028236  0
H  H21  1  0.61485174  0.89376305  0.15562091  1  0  0.110045  0  0.962566  0  0  0.130398  0  1.027996  0  0  0.131641  0  1.027729  0  0  0.089002  0.12945  0  1.028243  0
H  H22  1  0.88514832  0.89376238  0.65562092  1  0  0.110053  0  0.962551  0  0  0.130407  0  1.027981  0  0  0.131651  0  1.027713  0  0  0.089007  0.129458  0  1.028227  0
H  H23  1  0.38514514  0.10623684  0.84437907  1  0  0.110081  0  0.962553  0  0  0.130432  0  1.027981  0  0  0.131675  0  1.027712  0  0  0.089013  0.129483  0  1.028229  0
H  H24  1  0.38712908  0.01549495  0.28825811  1  0  0.111304  0  0.958269  0  0  0.132906  0  1.021681  0  0  0.134119  0  1.0217  0  0  0.09149  0.131956  0  1.021764  0
H  H25  1  0.88712799  0.98450481  0.21174234  1  0  0.111272  0  0.958221  0  0  0.132879  0  1.021626  0  0  0.134094  0  1.021646  0  0  0.091476  0.131929  0  1.02171  0
H  H26  1  0.61287216  0.98450494  0.71174186  1  0  0.111284  0  0.958218  0  0  0.132892  0  1.02162  0  0  0.134107  0  1.021639  0  0  0.091481  0.131941  0  1.021702  0
H  H27  1  0.11286888  0.01549508  0.78825764  1  0  0.111305  0  0.958253  0  0  0.132903  0  1.021672  0  0  0.134117  0  1.021693  0  0  0.09149  0.131952  0  1.021753  0
H  H28  1  0.47650852  0.15886303  0.34150574  1  0  0.113105  0  0.954421  0  0  0.136508  0  1.011999  0  0  0.137984  0  1.011657  0  0  0.089609  0.135365  0  1.01234  0
H  H29  1  0.97650506  0.84113675  0.15849471  1  0  0.11308  0  0.954471  0  0  0.136498  0  1.01203  0  0  0.137976  0  1.011687  0  0  0.089602  0.135352  0  1.012371  0
H  H30  1  0.52349273  0.84113686  0.65849486  1  0  0.113086  0  0.954466  0  0  0.136502  0  1.012027  0  0  0.137981  0  1.011684  0  0  0.089603  0.135356  0  1.012367  0
H  H31  1  0.02348963  0.15886314  0.84150589  1  0  0.113099  0  0.954418  0  0  0.136503  0  1.011994  0  0  0.13798  0  1.011651  0  0  0.089607  0.135358  0  1.012337  0
H  H32  1  0.26758353  0.82513445  0.53164284  1  0  0.089082  0  0.959853  0  0  0.102535  0  1.02244  0  0  0.104649  0  1.022209  0  0  0.095715  0.101024  0  1.022674  0
H  H33  1  0.76758335  0.17486560  0.96835790  1  0  0.089078  0  0.959877  0  0  0.10254  0  1.022451  0  0  0.104653  0  1.022223  0  0  0.095727  0.101029  0  1.02269  0
H  H34  1  0.73241553  0.17486457  0.46835762  1  0  0.08908  0  0.959888  0  0  0.102535  0  1.022472  0  0  0.104649  0  1.02224  0  0  0.095735  0.101024  0  1.02271  0
H  H35  1  0.23241790  0.82513515  0.03164283  1  0  0.089086  0  0.959849  0  0  0.102539  0  1.022437  0  0  0.104655  0  1.022202  0  0  0.09572  0.101027  0  1.022674  0
H  H36  1  0.81775743  0.65853103  0.98154282  1  0  0.104658  0  0.934186  0  0  0.112332  0  0.994502  0  0  0.115263  0  0.993284  0  0  0.121744  0.110254  0  0.995399  0
H  H37  1  0.31775037  0.34146992  0.51845619  1  0  0.104672  0  0.934116  0  0  0.112339  0  0.99442  0  0  0.115272  0  0.9932  0  0  0.121749  0.110255  0  0.995335  0
H  H38  1  0.18225037  0.34146974  0.01845605  1  0  0.10467  0  0.93412  0  0  0.112336  0  0.994425  0  0  0.115268  0  0.993206  0  0  0.121747  0.110251  0  0.995342  0
H  H39  1  0.68223995  0.65853085  0.48154268  1  0  0.104663  0  0.934173  0  0  0.112342  0  0.994487  0  0  0.115271  0  0.993267  0  0  0.121748  0.110259  0  0.995396  0
H  H40  1  0.48139435  0.67589073  0.11050526  1  0  0.09588  0  0.949995  0  0  0.101687  0  1.01491  0  0  0.104585  0  1.013131  0  0  0.119565  0.09957  0  1.016335  0
H  H41  1  0.98138130  0.32410905  0.38949457  1  0  0.095843  0  0.950028  0  0  0.101652  0  1.014957  0  0  0.10455  0  1.013175  0  0  0.119567  0.099535  0  1.016385  0
H  H42  1  0.51861782  0.32410917  0.88949472  1  0  0.095847  0  0.95003  0  0  0.101657  0  1.014958  0  0  0.104555  0  1.013177  0  0  0.119569  0.09954  0  1.016385  0
H  H43  1  0.01860465  0.67589084  0.61050541  1  0  0.095924  0  0.950025  0  0  0.101732  0  1.014923  0  0  0.104629  0  1.013145  0  0  0.119577  0.099616  0  1.016345  0
C  C44  1  0.06011769  0.87198944  0.38668393  1  0  -0.476304  0  3.707547  0  0  -0.491815  0  3.93368  0  0  -0.50208  0  3.943799  0  0  -0.16211  -0.484527  0  3.926499  0
C  C45  1  0.56011761  0.12801111  0.11331666  1  0  -0.476316  0  3.707517  0  0  -0.491804  0  3.933627  0  0  -0.502068  0  3.943747  0  0  -0.162098  -0.484512  0  3.926447  0
C  C46  1  0.93988356  0.12801132  0.61331681  1  0  -0.476311  0  3.707556  0  0  -0.491792  0  3.933644  0  0  -0.502055  0  3.943764  0  0  -0.162093  -0.484502  0  3.926462  0
C  C47  1  0.43988146  0.87198964  0.88668407  1  0  -0.476277  0  3.707581  0  0  -0.491792  0  3.933678  0  0  -0.502052  0  3.9438  0  0  -0.162125  -0.484502  0  3.926491  0
C  C48  1  0.28846897  0.93939678  0.44380680  1  0  0.093022  0  3.755201  0  0  0.104921  0  3.990869  0  0  0.105746  0  4.015467  0  0  -0.011899  0.104342  0  3.973896  0
C  C49  1  0.78847100  0.06060210  0.05619290  1  0  0.093209  0  3.755065  0  0  0.105043  0  3.990832  0  0  0.105869  0  4.015408  0  0  -0.011893  0.104454  0  3.973869  0
C  C50  1  0.71153010  0.06060225  0.55619305  1  0  0.093228  0  3.755043  0  0  0.105065  0  3.9908  0  0  0.105889  0  4.015379  0  0  -0.011879  0.10448  0  3.973834  0
C  C51  1  0.21153025  0.93939693  0.94380694  1  0  0.093016  0  3.755272  0  0  0.104909  0  3.990975  0  0  0.105734  0  4.015569  0  0  -0.011931  0.104331  0  3.973997  0
C  C52  1  0.42138372  0.03880737  0.42489759  1  0  0.081608  0  3.751242  0  0  0.101685  0  3.992671  0  0  0.101177  0  4.017342  0  0  -0.017214  0.101984  0  3.975832  0
C  C53  1  0.92138048  0.96119240  0.07510224  1  0  0.081533  0  3.751217  0  0  0.101629  0  3.992665  0  0  0.101139  0  4.017307  0  0  -0.017214  0.101931  0  3.975823  0
C  C54  1  0.57861971  0.96119253  0.57510176  1  0  0.081536  0  3.751233  0  0  0.101628  0  3.992682  0  0  0.101139  0  4.017325  0  0  -0.017214  0.101933  0  3.975836  0
C  C55  1  0.07861640  0.03880749  0.92489774  1  0  0.081606  0  3.751243  0  0  0.101677  0  3.992688  0  0  0.101171  0  4.017358  0  0  -0.017201  0.101977  0  3.975843  0
C  C56  1  0.34654048  0.08227483  0.34599833  1  0  -0.336217  0  3.721198  0  0  -0.418643  0  3.9577  0  0  -0.420498  0  3.967467  0  0  -0.247525  -0.417054  0  3.951038  0
C  C57  1  0.84654369  0.91772318  0.15400248  1  0  -0.33612  0  3.721137  0  0  -0.418578  0  3.957655  0  0  -0.420444  0  3.96742  0  0  -0.247493  -0.416985  0  3.950994  0
C  C58  1  0.65345640  0.91772333  0.65400200  1  0  -0.336138  0  3.72114  0  0  -0.418594  0  3.957656  0  0  -0.420461  0  3.96742  0  0  -0.247496  -0.417003  0  3.950991  0
C  C59  1  0.15345756  0.08227497  0.84599847  1  0  -0.336208  0  3.721181  0  0  -0.418632  0  3.957688  0  0  -0.420488  0  3.967455  0  0  -0.247523  -0.417039  0  3.951026  0
C  C60  1  0.37109697  0.90267153  0.51789435  1  0  -0.18175  0  3.734849  0  0  -0.207903  0  3.985129  0  0  -0.211051  0  4.0061  0  0  -0.09903  -0.205725  0  3.970753  0
C  C61  1  0.87109666  0.09732854  0.98210703  1  0  -0.181869  0  3.734879  0  0  -0.208022  0  3.98522  0  0  -0.211165  0  4.006193  0  0  -0.099082  -0.205844  0  3.970854  0
C  C62  1  0.62890428  0.09732835  0.48210688  1  0  -0.181888  0  3.734915  0  0  -0.208044  0  3.985267  0  0  -0.211187  0  4.006242  0  0  -0.099104  -0.205867  0  3.970902  0
C  C63  1  0.12890240  0.90267134  0.01789420  1  0  -0.181733  0  3.734837  0  0  -0.207884  0  3.985115  0  0  -0.21103  0  4.006083  0  0  -0.098999  -0.205708  0  3.970742  0
C  C64  1  0.67474125  0.58786200  0.99032588  1  0  0.095117  0  3.646101  0  0  0.067653  0  3.897077  0  0  0.070112  0  3.915167  0  0  0.056075  0.065847  0  3.885146  0
C  C65  1  0.17472993  0.41213805  0.50967300  1  0  0.095037  0  3.646105  0  0  0.067657  0  3.896995  0  0  0.070112  0  3.915087  0  0  0.056061  0.065844  0  3.885077  0
C  C66  1  0.32527092  0.41213790  0.00967348  1  0  0.095039  0  3.646101  0  0  0.067656  0  3.896999  0  0  0.070114  0  3.915089  0  0  0.056061  0.065843  0  3.885081  0
C  C67  1  0.82526039  0.58786185  0.49032573  1  0  0.095119  0  3.646092  0  0  0.067655  0  3.897062  0  0  0.070118  0  3.915149  0  0  0.056081  0.065847  0  3.885132  0
C  C68  1  0.49013166  0.59715877  0.06073812  1  0  0.063488  0  3.676104  0  0  0.040756  0  3.932094  0  0  0.042343  0  3.949396  0  0  0.050128  0.039359  0  3.921064  0
C  C69  1  0.99011871  0.40284014  0.43926220  1  0  0.06358  0  3.676225  0  0  0.040812  0  3.93219  0  0  0.042399  0  3.949495  0  0  0.050156  0.039428  0  3.921136  0
C  C70  1  0.50988051  0.40284025  0.93926235  1  0  0.063575  0  3.67625  0  0  0.040804  0  3.932218  0  0  0.04239  0  3.949521  0  0  0.050151  0.039419  0  3.921165  0
C  C71  1  0.00986724  0.59715888  0.56073827  1  0  0.063443  0  3.676171  0  0  0.040714  0  3.932158  0  0  0.0423  0  3.94946  0  0  0.050133  0.039311  0  3.921137  0
N  N72  1  0.31468083  0.50949379  0.07019710  1  0  -0.262431  0  3.21433  0  0  -0.199298  0  3.494534  0  0  -0.212902  0  3.510008  0  0  -0.308271  -0.189831  0  3.484129  0
N  N73  1  0.81466801  0.49050596  0.42980211  1  0  -0.262458  0  3.21442  0  0  -0.199294  0  3.494655  0  0  -0.212898  0  3.510128  0  0  -0.308271  -0.189829  0  3.48425  0
N  N74  1  0.68532916  0.49050611  0.92980226  1  0  -0.262449  0  3.214425  0  0  -0.199284  0  3.494657  0  0  -0.212887  0  3.51013  0  0  -0.308249  -0.189818  0  3.484253  0
N  N75  1  0.18531794  0.50949307  0.57019711  1  0  -0.262429  0  3.214347  0  0  -0.199296  0  3.494556  0  0  -0.212901  0  3.510031  0  0  -0.308279  -0.189827  0  3.484144  0
O  O76  1  0.93366586  0.68773540  0.26348624  1  0  -0.848221  0  2.1544  0  0  -0.738592  0  2.4331  0  0  -0.770408  0  2.411511  0  0  -0.379473  -0.716363  0  2.447346  0
O  O77  1  0.43366739  0.31226524  0.23651373  1  0  -0.848184  0  2.154421  0  0  -0.738576  0  2.43314  0  0  -0.770375  0  2.41154  0  0  -0.379458  -0.716348  0  2.447391  0
O  O78  1  0.06633321  0.31226535  0.73651450  1  0  -0.848202  0  2.154396  0  0  -0.738593  0  2.433112  0  0  -0.770393  0  2.411513  0  0  -0.379475  -0.716365  0  2.447363  0
O  O79  1  0.56633167  0.68773552  0.76348639  1  0  -0.848204  0  2.154432  0  0  -0.738574  0  2.43314  0  0  -0.77039  0  2.41155  0  0  -0.379439  -0.716345  0  2.447385  0
O  O80  1  0.32841725  0.66238912  0.37445956  1  0  -0.819573  0  2.036867  0  0  -0.721422  0  2.315907  0  0  -0.75367  0  2.300314  0  0  -0.381388  -0.698822  0  2.326003  0
O  O81  1  0.82841965  0.33761063  0.12553965  1  0  -0.819544  0  2.036833  0  0  -0.721397  0  2.315842  0  0  -0.75364  0  2.300247  0  0  -0.381382  -0.698799  0  2.325941  0
O  O82  1  0.67158181  0.33761077  0.62554042  1  0  -0.81951  0  2.036929  0  0  -0.721358  0  2.315942  0  0  -0.7536  0  2.300349  0  0  -0.381348  -0.698761  0  2.326042  0
O  O83  1  0.17158160  0.66238926  0.87445971  1  0  -0.819616  0  2.036841  0  0  -0.721451  0  2.315854  0  0  -0.753701  0  2.30026  0  0  -0.381404  -0.698855  0  2.325953  0
O  O84  1  0.43287679  0.77714994  0.25829674  1  0  -0.757462  0  2.022093  0  0  -0.685024  0  2.256114  0  0  -0.706519  0  2.232228  0  0  -0.389898  -0.669878  0  2.272308  0
O  O85  1  0.93287678  0.22285070  0.24170385  1  0  -0.757436  0  2.022141  0  0  -0.684982  0  2.256146  0  0  -0.70648  0  2.232265  0  0  -0.389846  -0.669836  0  2.272342  0
O  O86  1  0.56712446  0.22284996  0.74170324  1  0  -0.757457  0  2.022127  0  0  -0.685023  0  2.256146  0  0  -0.706519  0  2.232266  0  0  -0.389876  -0.669875  0  2.272336  0
O  O87  1  0.06712446  0.77715006  0.75829626  1  0  -0.757447  0  2.022036  0  0  -0.685017  0  2.256062  0  0  -0.706511  0  2.232177  0  0  -0.389862  -0.66987  0  2.272249  0
