# generated using pymatgen
data_Ni3H28C38(N5O7)2
_symmetry_space_group_name_H-M   'P 1'
_cell_length_a   10.09483067
_cell_length_b   14.61910854
_cell_length_c   19.88334967
_cell_angle_alpha   79.55537755
_cell_angle_beta   75.28231903
_cell_angle_gamma   69.77985556
_symmetry_Int_Tables_number   1
_chemical_formula_structural   Ni3H28C38(N5O7)2
_chemical_formula_sum   'Ni6 H56 C76 N20 O28'
_cell_volume   2648.98849384
_cell_formula_units_Z   2
loop_
 _symmetry_equiv_pos_site_id
 _symmetry_equiv_pos_as_xyz
  1  'x, y, z'
loop_
 _atom_site_type_symbol
 _atom_site_label
 _atom_site_symmetry_multiplicity
 _atom_site_fract_x
 _atom_site_fract_y
 _atom_site_fract_z
 _atom_site_occupancy
 _atom_site_pbe_bader_charge
 _atom_site_pbe_bader_spin_density
 _atom_site_pbe_cm5_charge
 _atom_site_pbe_ddec_charge
 _atom_site_pbe_ddec_spin_density
 _atom_site_pbe_ddec_sum_bond_order
 _atom_site_pbe_magmom
Ni  Ni0  1  0.50000047  0.00000548  0.49999957  1  1.206706  1.563904  0.668122  0.813283  1.79981  2.495312  1.551
Ni  Ni1  1  0.99999778  0.49999759  0.99999989  1  1.209449  1.563844  0.668268  0.812475  1.799641  2.497453  1.551
Ni  Ni2  1  0.84298164  0.21425984  0.40731543  1  1.125752  1.529505  0.611396  0.740392  1.748504  2.366541  1.516
Ni  Ni3  1  0.46479489  0.28553103  0.09256887  1  1.126613  1.52934  0.610857  0.738686  1.748645  2.369629  1.516
Ni  Ni4  1  0.15702201  0.78573974  0.59268602  1  1.125885  1.5295  0.611393  0.740331  1.748499  2.366487  1.516
Ni  Ni5  1  0.53520120  0.71446267  0.90743242  1  1.126477  1.529334  0.610848  0.738623  1.748645  2.369606  1.516
H  H6  1  0.69886069  0.02535581  0.57807451  1  0.148565  0.001889  0.120562  0.098627  0.000765  1.017128  0.001
H  H7  1  0.30210877  0.47537840  0.92177091  1  0.140511  0.001894  0.120295  0.097763  0.000765  1.016763  0.001
H  H8  1  0.30113484  0.97464808  0.42192335  1  0.148545  0.001888  0.120568  0.09864  0.000765  1.017158  0.001
H  H9  1  0.69788677  0.52459861  0.07823742  1  0.13986  0.001894  0.120299  0.097736  0.000765  1.016813  0.001
H  H10  1  0.25649595  0.10305204  0.60583600  1  0.150767  0.001739  0.12232  0.105871  0.000587  0.998828  0.001
H  H11  1  0.96615913  0.39644089  0.89432615  1  0.148352  0.001746  0.121696  0.104906  0.000588  0.999576  0.001
H  H12  1  0.74349897  0.89695765  0.39415907  1  0.15025  0.001738  0.122336  0.105849  0.000587  0.998845  0.001
H  H13  1  0.03383085  0.60355494  0.10567210  1  0.148053  0.001746  0.121763  0.104995  0.000588  0.99951  0.001
H  H14  1  0.68319957  0.07346648  0.69551001  1  0.100275  0.00097  0.114124  0.124587  0.000505  1.001724  0.0
H  H15  1  0.45205310  0.42756232  0.80424124  1  0.119169  0.000971  0.113488  0.123407  0.000509  1.003946  0.0
H  H16  1  0.31679382  0.92653091  0.30449209  1  0.100305  0.00097  0.114114  0.124517  0.000505  1.00178  0.0
H  H17  1  0.54795273  0.57241910  0.19576762  1  0.11924  0.00097  0.113494  0.123345  0.000509  1.00394  0.0
H  H18  1  0.22016338  0.14913939  0.72832287  1  0.115851  0.000976  0.113944  0.123109  0.000479  0.986764  0.0
H  H19  1  0.09853029  0.35047896  0.77181087  1  0.074621  0.000981  0.113959  0.123346  0.000478  0.986142  0.0
H  H20  1  0.77982876  0.85086741  0.27167400  1  0.115597  0.000976  0.113953  0.12317  0.000479  0.986775  0.0
H  H21  1  0.90146723  0.64951828  0.22818568  1  0.074643  0.00098  0.113936  0.123304  0.000478  0.986344  0.0
H  H22  1  0.66532537  0.14151499  0.24988317  1  0.064272  0.00018  0.112498  0.126219  -6.4e-05  0.982488  0.0
H  H23  1  0.05677442  0.35838093  0.24995670  1  0.079658  0.000174  0.112375  0.125944  -6.3e-05  0.982886  0.0
H  H24  1  0.33468676  0.85847500  0.75011657  1  0.064353  0.00018  0.112528  0.126192  -6.4e-05  0.982599  0.0
H  H25  1  0.94322683  0.64161263  0.75003940  1  0.079434  0.000174  0.112381  0.125959  -6.3e-05  0.982857  0.0
H  H26  1  0.95393507  0.02065052  0.44798649  1  0.634012  0.000448  0.324241  0.409933  0.000348  0.865936  0.0
H  H27  1  0.42274732  0.47915383  0.05201604  1  0.623661  0.000461  0.324899  0.411022  0.000347  0.864531  0.0
H  H28  1  0.04607033  0.97934970  0.55201162  1  0.634072  0.000448  0.324269  0.409919  0.000348  0.866097  0.0
H  H29  1  0.57725054  0.52084496  0.94798327  1  0.623601  0.000461  0.324887  0.411018  0.000346  0.864555  0.0
H  H30  1  0.78253845  0.06191265  0.46479460  1  0.63873  -0.000236  0.296781  0.388688  -0.000197  0.950113  0.0
H  H31  1  0.30936799  0.43800487  0.03518846  1  0.659541  -0.000232  0.295932  0.387932  -0.000193  0.951025  0.0
H  H32  1  0.21747030  0.93808476  0.53520802  1  0.638688  -0.000237  0.296758  0.388561  -0.000197  0.95026  0.0
H  H33  1  0.69062608  0.56199327  0.96481394  1  0.659563  -0.000232  0.295895  0.387931  -0.000193  0.951025  0.0
H  H34  1  0.23961096  0.15800318  0.23242373  1  0.111528  0.00027  0.110713  0.130344  0.000144  0.997448  0.0
H  H35  1  0.63034064  0.34146104  0.26744673  1  0.14294  0.000229  0.11132  0.130545  0.000148  0.996406  0.0
H  H36  1  0.76039312  0.84200446  0.76757699  1  0.111374  0.00027  0.110773  0.13044  0.000144  0.997486  0.0
H  H37  1  0.36965988  0.65853191  0.73255409  1  0.142867  0.000229  0.11129  0.13047  0.000148  0.996465  0.0
H  H38  1  0.27033928  0.21794383  0.02809596  1  0.152601  0.002021  0.119692  0.100758  0.000789  1.023677  0.001
H  H39  1  0.51658068  0.28185096  0.47197455  1  0.146469  0.002021  0.119731  0.101204  0.000789  1.024105  0.001
H  H40  1  0.72966022  0.78204687  0.97190281  1  0.152546  0.002021  0.119688  0.100807  0.000789  1.023655  0.001
H  H41  1  0.48341851  0.71814720  0.52802869  1  0.146385  0.002022  0.119748  0.10127  0.000789  1.023974  0.001
H  H42  1  0.69200925  0.22818272  0.97437134  1  0.131062  0.00176  0.130347  0.118384  0.000551  0.978817  0.002
H  H43  1  0.89494388  0.27200024  0.52528893  1  0.119882  0.00177  0.130252  0.117725  0.000552  0.979848  0.002
H  H44  1  0.30798518  0.77181461  0.02562813  1  0.130951  0.00176  0.130355  0.118356  0.00055  0.97881  0.002
H  H45  1  0.10505700  0.72799650  0.47471581  1  0.119796  0.001773  0.130237  0.117677  0.000553  0.97976  0.002
H  H46  1  0.45697396  0.10694880  0.13977264  1  0.429929  -0.000569  0.318246  0.308516  -0.000564  0.908593  -0.001
H  H47  1  0.70367309  0.39281354  0.36006706  1  0.441499  -0.000611  0.317449  0.307028  -0.000567  0.90919  -0.001
H  H48  1  0.54303263  0.89303765  0.86023186  1  0.429975  -0.000568  0.318263  0.308557  -0.000564  0.908591  -0.001
H  H49  1  0.29632614  0.60718446  0.63993017  1  0.441605  -0.000611  0.317432  0.307002  -0.000567  0.909234  -0.001
H  H50  1  0.61689155  0.11289906  0.14429005  1  0.448558  -0.000469  0.319111  0.310665  -0.000472  0.908183  -0.001
H  H51  1  0.87404601  0.38690124  0.35555271  1  0.448143  -0.000451  0.318391  0.309432  -0.00047  0.908276  -0.001
H  H52  1  0.38311246  0.88709973  0.85570946  1  0.448626  -0.000469  0.319117  0.310679  -0.000472  0.908163  -0.001
H  H53  1  0.12595187  0.61309971  0.64444527  1  0.44811  -0.000451  0.318416  0.309494  -0.00047  0.908139  -0.001
H  H54  1  0.28549391  0.17088498  0.91290630  1  0.153751  0.000767  0.118049  0.133685  0.000396  1.000108  0.0
H  H55  1  0.36960788  0.32921289  0.58713293  1  0.131638  0.000781  0.11758  0.133714  0.000396  1.000144  0.0
H  H56  1  0.71450291  0.82911155  0.08709096  1  0.15439  0.000767  0.118049  0.133696  0.000396  1.000065  0.0
H  H57  1  0.63039098  0.67078597  0.41286875  1  0.131577  0.000781  0.117581  0.133697  0.000396  1.000161  0.0
H  H58  1  0.72577470  0.17715765  0.85456175  1  0.112954  0.000916  0.119399  0.130241  0.000479  0.977821  0.0
H  H59  1  0.75792304  0.32346597  0.64503102  1  0.097734  0.000918  0.119109  0.130317  0.00048  0.976977  0.0
H  H60  1  0.27422385  0.82284186  0.14543686  1  0.112952  0.000916  0.119399  0.130259  0.000479  0.97778  0.0
H  H61  1  0.24207688  0.67653732  0.35497189  1  0.097362  0.000918  0.119129  0.130403  0.000479  0.976993  0.0
C  C62  1  0.60976414  0.14919643  0.38661705  1  1.536927  -0.003119  0.222923  0.583698  -0.003543  4.151891  -0.003
C  C63  1  0.14575069  0.35074021  0.11327005  1  1.543294  -0.003102  0.223802  0.583837  -0.003544  4.149966  -0.003
C  C64  1  0.39024437  0.85080822  0.61338151  1  1.54394  -0.003128  0.222843  0.583409  -0.00354  4.152214  -0.003
C  C65  1  0.85424920  0.64925412  0.88672713  1  1.543414  -0.003101  0.223724  0.583704  -0.003543  4.150125  -0.003
C  C66  1  0.30877475  0.17857152  0.45431710  1  1.617761  0.006951  0.192739  0.578764  0.00525  4.271447  0.004
C  C67  1  0.94203749  0.32125272  0.04550426  1  1.629539  0.006887  0.192268  0.576615  0.005252  4.27354  0.004
C  C68  1  0.69123592  0.82144409  0.54567958  1  1.617754  0.006945  0.192649  0.578677  0.005248  4.271842  0.004
C  C69  1  0.05795489  0.67874457  0.95449396  1  1.629171  0.006892  0.192263  0.576698  0.005251  4.273363  0.004
C  C70  1  0.59520742  0.05519198  0.61259165  1  0.470396  -0.002846  0.050321  0.103898  -0.003328  3.923863  -0.002
C  C71  1  0.26304424  0.44534059  0.88729318  1  0.490648  -0.002855  0.052134  0.10659  -0.003326  3.922431  -0.002
C  C72  1  0.40478671  0.94481049  0.38740760  1  0.47034  -0.002845  0.050316  0.103821  -0.003327  3.92384  -0.002
C  C73  1  0.73695750  0.55464081  0.11271470  1  0.491444  -0.002856  0.052101  0.106533  -0.003327  3.922596  -0.002
C  C74  1  0.34616593  0.09674562  0.62929871  1  0.488097  -0.004559  0.051133  0.102813  -0.005165  3.918964  -0.003
C  C75  1  0.07278191  0.40310063  0.87076083  1  0.479647  -0.004545  0.050619  0.102947  -0.005146  3.91807  -0.003
C  C76  1  0.65383409  0.90326189  0.37069703  1  0.48858  -0.004558  0.051148  0.102963  -0.005165  3.918955  -0.003
C  C77  1  0.92721108  0.59689086  0.12924018  1  0.479976  -0.004545  0.05051  0.102767  -0.005144  3.918473  -0.003
C  C78  1  0.50201241  0.15781038  0.34445788  1  -0.074016  0.001908  -0.015549  -0.053552  -3.3e-05  3.991434  0.001
C  C79  1  0.00446364  0.34202619  0.15539396  1  -0.013037  0.00182  -0.015448  -0.054576  -2.9e-05  3.992892  0.001
C  C80  1  0.49799880  0.84219058  0.65554037  1  -0.080966  0.001919  -0.015512  -0.053301  -3.3e-05  3.991244  0.001
C  C81  1  0.99553181  0.65796887  0.84460319  1  -0.014317  0.001819  -0.015294  -0.054187  -3.1e-05  3.992798  0.001
C  C82  1  0.35625818  0.17140602  0.37615082  1  0.049497  0.019916  -0.003435  -0.05991  0.011271  3.901382  0.013
C  C83  1  0.90412669  0.32833077  0.12369044  1  0.001419  0.019874  -0.002619  -0.057563  0.011202  3.902454  0.013
C  C84  1  0.64374902  0.82860600  0.62384885  1  0.048748  0.019919  -0.003542  -0.060076  0.011272  3.901103  0.013
C  C85  1  0.09587762  0.67166284  0.87630777  1  0.001768  0.01988  -0.002647  -0.057856  0.011207  3.902567  0.013
C  C86  1  0.58618940  0.08125026  0.67761581  1  -0.00175  0.003061  -0.076007  -0.182977  0.001599  3.917249  0.003
C  C87  1  0.34513885  0.41943228  0.82221579  1  -0.01465  0.003159  -0.076611  -0.183056  0.001661  3.919325  0.003
C  C88  1  0.41380537  0.91874857  0.32238489  1  -0.001881  0.00306  -0.076017  -0.182779  0.001599  3.917234  0.003
C  C89  1  0.65486223  0.58055055  0.17779097  1  -0.015729  0.00316  -0.076654  -0.183049  0.001661  3.919306  0.003
C  C90  1  0.32742716  0.12276459  0.69571713  1  -0.056243  0.002018  -0.073929  -0.184538  0.000748  3.92968  0.002
C  C91  1  0.14652360  0.37718149  0.80432440  1  -0.003805  0.001997  -0.07421  -0.185282  0.000756  3.930732  0.002
C  C92  1  0.67256699  0.87724007  0.30428179  1  -0.056113  0.002014  -0.074043  -0.184755  0.000746  3.929975  0.002
C  C93  1  0.85348209  0.62281358  0.19567343  1  -0.00388  0.001999  -0.074086  -0.185127  0.000757  3.930928  0.002
C  C94  1  0.55208486  0.14938326  0.27281597  1  0.039145  0.017703  -0.08419  -0.181422  0.009931  3.920226  0.011
C  C95  1  0.97440690  0.35043676  0.22704190  1  -0.032057  0.017809  -0.084273  -0.180729  0.009939  3.919824  0.011
C  C96  1  0.44792220  0.85061332  0.72718296  1  0.038968  0.017706  -0.084221  -0.181505  0.009933  3.920236  0.011
C  C97  1  0.02559503  0.64955759  0.77295602  1  -0.030701  0.017807  -0.084358  -0.180896  0.009939  3.920075  0.011
C  C98  1  0.26335376  0.17122687  0.33409514  1  -0.045233  -0.000939  -0.015315  -0.041914  -0.001693  3.98162  -0.002
C  C99  1  0.76902660  0.32836059  0.16576179  1  0.011246  -0.001003  -0.014689  -0.041439  -0.001698  3.981889  -0.002
C  C100  1  0.73664353  0.82878664  0.66590560  1  -0.044665  -0.00094  -0.015263  -0.041761  -0.001693  3.981069  -0.002
C  C101  1  0.23097768  0.67163085  0.83423725  1  0.011021  -0.001003  -0.014605  -0.041193  -0.001699  3.982035  -0.002
C  C102  1  0.44917731  0.11453695  0.72088286  1  0.340189  -0.004414  0.095954  0.187874  -0.005431  4.0545  -0.003
C  C103  1  0.28496481  0.38585197  0.77902792  1  0.336418  -0.004373  0.09687  0.188682  -0.005373  4.054818  -0.003
C  C104  1  0.55081850  0.88546185  0.27911671  1  0.340358  -0.004414  0.096004  0.187828  -0.005431  4.054713  -0.003
C  C105  1  0.71503981  0.61413875  0.22097168  1  0.336837  -0.004373  0.096775  0.188614  -0.005374  4.054601  -0.003
C  C106  1  0.10847505  0.18197010  0.36369124  1  1.488165  -0.003533  0.191051  0.549061  -0.005004  4.193597  -0.006
C  C107  1  0.65449379  0.31762288  0.13618173  1  1.508169  -0.003553  0.191372  0.550248  -0.005005  4.189761  -0.006
C  C108  1  0.89153487  0.81804044  0.63630829  1  1.487908  -0.003533  0.191088  0.54906  -0.005002  4.193425  -0.006
C  C109  1  0.34549820  0.68237084  0.86382009  1  1.508205  -0.003554  0.191281  0.550118  -0.005005  4.190036  -0.006
C  C110  1  0.45855930  0.14918297  0.23186997  1  0.295351  -0.005671  0.083886  0.271556  -0.006956  4.044689  -0.006
C  C111  1  0.83972749  0.35051803  0.26798299  1  0.356942  -0.005746  0.082823  0.269419  -0.00694  4.044428  -0.006
C  C112  1  0.54144981  0.85081587  0.76813138  1  0.295584  -0.005672  0.08383  0.271445  -0.006956  4.044851  -0.006
C  C113  1  0.16027581  0.64947555  0.73201386  1  0.357149  -0.005749  0.082863  0.269361  -0.006944  4.044511  -0.006
C  C114  1  0.31462685  0.15860692  0.26307774  1  0.079896  0.017196  -0.083079  -0.178762  0.009829  3.920007  0.011
C  C115  1  0.73658740  0.34095533  0.23678527  1  -0.027196  0.01724  -0.082522  -0.177418  0.009788  3.91749  0.011
C  C116  1  0.68537551  0.84140228  0.73692599  1  0.07988  0.017203  -0.083112  -0.178803  0.009832  3.91992  0.011
C  C117  1  0.26341551  0.65903690  0.76321585  1  -0.027362  0.017246  -0.082541  -0.177346  0.009792  3.917457  0.011
C  C118  1  0.37048567  0.20802066  0.98903134  1  0.445924  -0.005029  0.049362  0.106338  -0.005656  3.903204  -0.003
C  C119  1  0.56775989  0.29195070  0.51093358  1  0.453599  -0.005049  0.04935  0.106259  -0.005673  3.904047  -0.003
C  C120  1  0.62951384  0.79197226  0.01096811  1  0.445965  -0.00503  0.04924  0.106145  -0.005656  3.903354  -0.003
C  C121  1  0.43223662  0.70805106  0.48906698  1  0.453592  -0.005048  0.049316  0.106046  -0.005671  3.904138  -0.003
C  C122  1  0.60639610  0.21359115  0.95812865  1  0.45297  -0.006558  0.050826  0.093591  -0.007078  3.915225  -0.004
C  C123  1  0.77845270  0.28659854  0.54161184  1  0.494493  -0.006578  0.051263  0.095951  -0.007074  3.915114  -0.004
C  C124  1  0.39360073  0.78640763  0.04187029  1  0.452773  -0.00656  0.050788  0.093528  -0.007079  3.915238  -0.004
C  C125  1  0.22155501  0.71339895  0.45839341  1  0.494847  -0.006574  0.051226  0.095967  -0.007071  3.915171  -0.004
C  C126  1  0.37904767  0.18118362  0.92429145  1  -0.006529  0.003927  -0.07306  -0.177179  0.002184  3.897031  0.003
C  C127  1  0.48481269  0.31898242  0.57564691  1  0.008732  0.003999  -0.072696  -0.177467  0.002232  3.899245  0.003
C  C128  1  0.62095256  0.81881218  0.07570597  1  -0.006917  0.003926  -0.073072  -0.177211  0.002183  3.89705  0.003
C  C129  1  0.51519134  0.68102086  0.42435546  1  0.007757  0.003999  -0.072634  -0.177278  0.002232  3.899008  0.003
C  C130  1  0.62415971  0.18593193  0.89239571  1  -0.023919  0.004372  -0.071234  -0.178118  0.002248  3.925316  0.004
C  C131  1  0.70283061  0.31449926  0.60731498  1  -0.03668  0.004419  -0.070816  -0.178763  0.002261  3.921932  0.004
C  C132  1  0.37583748  0.81406832  0.10760296  1  -0.023642  0.004371  -0.071224  -0.178106  0.002247  3.925295  0.004
C  C133  1  0.29716145  0.68550332  0.39268855  1  -0.036371  0.004418  -0.070792  -0.178856  0.002261  3.921713  0.004
C  C134  1  0.50868647  0.17009812  0.87444869  1  0.356099  -0.007467  0.098374  0.188423  -0.00886  4.053537  -0.005
C  C135  1  0.55353894  0.33031102  0.62536845  1  0.33535  -0.007455  0.098675  0.189846  -0.008834  4.051322  -0.005
C  C136  1  0.49131309  0.82989916  0.12554910  1  0.355908  -0.007468  0.098408  0.188522  -0.00886  4.053331  -0.005
C  C137  1  0.44645964  0.66969296  0.37463252  1  0.336526  -0.007454  0.098723  0.189864  -0.008833  4.051163  -0.005
N  N138  1  0.47801353  0.06172260  0.58886097  1  -1.183158  0.066096  -0.319229  -0.215965  0.038967  3.55942  0.059
N  N139  1  0.12887757  0.43841796  0.91112459  1  -1.194815  0.066289  -0.319176  -0.216441  0.039063  3.559694  0.059
N  N140  1  0.52198475  0.93828424  0.41113709  1  -1.182951  0.066089  -0.31916  -0.215973  0.038962  3.559286  0.059
N  N141  1  0.87111880  0.56157066  0.08887892  1  -1.194729  0.06628  -0.319101  -0.216205  0.039057  3.559913  0.059
N  N142  1  0.48135741  0.22469152  0.00592068  1  -1.22367  0.064981  -0.331  -0.234083  0.037917  3.593428  0.058
N  N143  1  0.71222784  0.27526017  0.49394721  1  -1.201577  0.065159  -0.331582  -0.236469  0.038058  3.593301  0.059
N  N144  1  0.51864180  0.77530431  0.99407788  1  -1.223732  0.064973  -0.330851  -0.233882  0.037911  3.593324  0.058
N  N145  1  0.28777752  0.72473791  0.50605273  1  -1.201852  0.065155  -0.331607  -0.236378  0.038057  3.593619  0.059
N  N146  1  0.50766176  0.14317412  0.15862450  1  -1.152074  0.076859  -0.577472  -0.580529  0.044061  3.413039  0.065
N  N147  1  0.80950002  0.35658678  0.34123179  1  -1.161584  0.076814  -0.575923  -0.577274  0.044012  3.412109  0.065
N  N148  1  0.49234390  0.85681883  0.84137615  1  -1.152264  0.076859  -0.577488  -0.580546  0.044062  3.413218  0.065
N  N149  1  0.19050125  0.64341127  0.65876718  1  -1.161793  0.076806  -0.575956  -0.577333  0.044008  3.412225  0.065
N  N150  1  0.42355812  0.13956006  0.78939945  1  -0.484075  -0.011366  -0.142742  -0.129127  -0.011913  3.26675  -0.008
N  N151  1  0.35291354  0.36083109  0.71051213  1  -0.496616  -0.011153  -0.142382  -0.12829  -0.011694  3.263319  -0.008
N  N152  1  0.57643869  0.86043657  0.21060131  1  -0.483972  -0.011368  -0.142772  -0.129141  -0.011915  3.266789  -0.008
N  N153  1  0.64708331  0.63916993  0.28948798  1  -0.496155  -0.011154  -0.142338  -0.128284  -0.011694  3.263175  -0.008
N  N154  1  0.53408847  0.14455013  0.80602027  1  -0.474391  -0.007401  -0.145789  -0.13559  -0.007516  3.261303  -0.004
N  N155  1  0.48502270  0.35600179  0.69377692  1  -0.463714  -0.007236  -0.146606  -0.137441  -0.007359  3.257394  -0.004
N  N156  1  0.46590735  0.85544864  0.19397830  1  -0.474387  -0.007403  -0.145772  -0.135618  -0.007519  3.261223  -0.004
N  N157  1  0.51497346  0.64400076  0.30622557  1  -0.463798  -0.007235  -0.146664  -0.137501  -0.007358  3.257449  -0.004
O  O158  1  0.61647657  0.09211981  0.44356195  1  -1.158512  0.062669  -0.290915  -0.544432  0.035603  2.430177  0.059
O  O159  1  0.15228594  0.40792561  0.05636924  1  -1.159012  0.062777  -0.290764  -0.543307  0.035616  2.428698  0.059
O  O160  1  0.38352334  0.90788577  0.55644414  1  -1.158615  0.062649  -0.290876  -0.544284  0.035592  2.430509  0.059
O  O161  1  0.84771734  0.59206579  0.94362843  1  -1.15908  0.062781  -0.290766  -0.543378  0.035618  2.428579  0.059
O  O162  1  0.29724964  0.09729661  0.49066923  1  -1.152917  0.064786  -0.340747  -0.596496  0.035893  2.30269  0.055
O  O163  1  0.88559314  0.40255484  0.00918464  1  -1.157461  0.06454  -0.341298  -0.596336  0.035735  2.303876  0.055
O  O164  1  0.70275348  0.90271534  0.50932797  1  -1.153291  0.064777  -0.340574  -0.596305  0.035888  2.303074  0.055
O  O165  1  0.11440196  0.59744104  0.99081545  1  -1.157301  0.064544  -0.341315  -0.596374  0.03574  2.303668  0.055
O  O166  1  0.69425445  0.20005548  0.36197255  1  -1.128849  0.073102  -0.29996  -0.518324  0.041302  2.38693  0.067
O  O167  1  0.25649376  0.29982796  0.13790017  1  -1.141855  0.073248  -0.301167  -0.518446  0.041372  2.386122  0.067
O  O168  1  0.30576528  0.79994026  0.63802285  1  -1.12867  0.07311  -0.299938  -0.518151  0.041304  2.386829  0.067
O  O169  1  0.74350541  0.70016347  0.86209854  1  -1.141802  0.07325  -0.301152  -0.518362  0.041373  2.386341  0.067
O  O170  1  0.29296042  0.25590438  0.47753800  1  -1.154629  0.031045  -0.337566  -0.538417  0.016938  2.055713  0.026
O  O171  1  0.02680864  0.24391203  0.02223988  1  -1.163989  0.030993  -0.336457  -0.536951  0.016926  2.057402  0.026
O  O172  1  0.70706284  0.74410613  0.52246030  1  -1.154097  0.031053  -0.33765  -0.538528  0.016942  2.055721  0.026
O  O173  1  0.97318650  0.75608594  0.97775637  1  -1.163976  0.030989  -0.336408  -0.536921  0.016924  2.057424  0.026
O  O174  1  0.87215167  0.07117674  0.47130802  1  -1.219333  0.058433  -0.558716  -0.733093  0.033171  2.087697  0.051
O  O175  1  0.41481747  0.42869541  0.02865005  1  -1.230446  0.058392  -0.558468  -0.733454  0.03317  2.087191  0.051
O  O176  1  0.12786191  0.92882128  0.52868985  1  -1.219312  0.058434  -0.558701  -0.732943  0.033172  2.087977  0.051
O  O177  1  0.58518101  0.57129980  0.97135272  1  -1.230357  0.058392  -0.558419  -0.733437  0.033172  2.087197  0.051
O  O178  1  0.04119482  0.14563911  0.33455087  1  -1.116977  0.078873  -0.321225  -0.531557  0.044313  2.123819  0.07
O  O179  1  0.52169136  0.35399237  0.16533853  1  -1.132287  0.07885  -0.322177  -0.532964  0.044284  2.121441  0.07
O  O180  1  0.95881404  0.85436930  0.66545112  1  -1.117222  0.078871  -0.321315  -0.531682  0.044312  2.123944  0.07
O  O181  1  0.47830407  0.64600729  0.83466599  1  -1.132284  0.078859  -0.322201  -0.532938  0.044289  2.121533  0.07
O  O182  1  0.04173349  0.22999098  0.41691752  1  -1.126069  0.08669  -0.310632  -0.525964  0.048508  2.18467  0.078
O  O183  1  0.68898364  0.26963355  0.08295182  1  -1.123864  0.086686  -0.311055  -0.526718  0.048444  2.184154  0.078
O  O184  1  0.95826406  0.77001528  0.58308627  1  -1.125668  0.086675  -0.310576  -0.525909  0.0485  2.184689  0.078
O  O185  1  0.31100493  0.73035866  0.91704865  1  -1.123763  0.086691  -0.310941  -0.526635  0.048445  2.184144  0.078
