# generated using pymatgen
data_CdH30C50(N2O5)2
_symmetry_space_group_name_H-M   'P 1'
_cell_length_a   4.54198070
_cell_length_b   17.38000055
_cell_length_c   27.89345143
_cell_angle_alpha   102.80028135
_cell_angle_beta   93.02976135
_cell_angle_gamma   89.89731641
_symmetry_Int_Tables_number   1
_chemical_formula_structural   CdH30C50(N2O5)2
_chemical_formula_sum   'Cd2 H60 C100 N8 O20'
_cell_volume   2144.06514951
_cell_formula_units_Z   2
loop_
 _symmetry_equiv_pos_site_id
 _symmetry_equiv_pos_as_xyz
  1  'x, y, z'
loop_
 _atom_site_type_symbol
 _atom_site_label
 _atom_site_symmetry_multiplicity
 _atom_site_fract_x
 _atom_site_fract_y
 _atom_site_fract_z
 _atom_site_occupancy
 _atom_site_pbe_bader_charge
 _atom_site_pbe_bader_spin_density
 _atom_site_pbe_cm5_charge
 _atom_site_pbe_ddec_charge
 _atom_site_pbe_ddec_spin_density
 _atom_site_pbe_ddec_sum_bond_order
 _atom_site_pbe_magmom
Cd  Cd0  1  0.56856215  0.73463016  0.24818885  1  1.314256  0  0.789319  0.946155  0  2.137378  0
Cd  Cd1  1  0.43144088  0.26536900  0.75180889  1  1.314233  0  0.789288  0.946127  0  2.137316  0
H  H2  1  0.99125131  0.14046169  0.68595974  1  0.109612  0  0.114658  0.0916  0  1.033065  0
H  H3  1  0.00875393  0.85953992  0.31404228  1  0.109521  0  0.11467  0.09157  0  1.033009  0
H  H4  1  0.84746801  0.07729292  0.59877561  1  0.12561  0  0.105532  0.121984  0  1.020927  0
H  H5  1  0.15250648  0.92270987  0.40122484  1  0.125857  0  0.105543  0.121982  0  1.021049  0
H  H6  1  0.50044597  0.22485067  0.55472153  1  0.092992  0  0.106019  0.126593  0  1.025498  0
H  H7  1  0.49954598  0.77514855  0.44527791  1  0.093115  0  0.106011  0.126595  0  1.025451  0
H  H8  1  0.62701730  0.27891771  0.64424580  1  0.110101  0  0.11426  0.091629  0  1.028646  0
H  H9  1  0.37299219  0.72107849  0.35575163  1  0.110112  0  0.114274  0.091674  0  1.028572  0
H  H10  1  0.16748796  0.04473315  0.51158166  1  0.137769  0  0.123403  0.117479  0  1.028577  0
H  H11  1  0.83251299  0.95527022  0.48841984  1  0.137638  0  0.123384  0.117401  0  1.028665  0
H  H12  1  0.83159585  0.09757860  0.51347638  1  0.116892  0  0.116  0.109661  0  0.995671  0
H  H13  1  0.16839629  0.90242478  0.48652504  1  0.116834  0  0.115965  0.109625  0  0.995779  0
H  H14  1  0.71171561  0.02195238  0.37546579  1  0.117341  0  0.109228  0.110952  0  1.012715  0
H  H15  1  0.28829426  0.97805274  0.62453602  1  0.117209  0  0.109259  0.111006  0  1.012723  0
H  H16  1  0.87790879  0.07408280  0.30444035  1  0.087282  0  0.100583  0.103658  0  1.038827  0
H  H17  1  0.12209869  0.92591878  0.69556062  1  0.087609  0  0.100598  0.103622  0  1.03888  0
H  H18  1  0.70759376  0.20443728  0.29261186  1  0.084624  0  0.105274  0.104378  0  1.01162  0
H  H19  1  0.29241160  0.79556363  0.70738542  1  0.084722  0  0.105274  0.104433  0  1.011563  0
H  H20  1  0.06016276  0.40089517  0.37881063  1  0.080433  0  0.104814  0.120401  0  1.023573  0
H  H21  1  0.93984029  0.59910398  0.62118675  1  0.080429  0  0.10483  0.120399  0  1.023514  0
H  H22  1  0.90232685  0.34657355  0.44943267  1  0.122133  0  0.113086  0.11743  0  0.976163  0
H  H23  1  0.09768079  0.65342914  0.55056557  1  0.122074  0  0.113066  0.117356  0  0.976166  0
H  H24  1  0.98825598  0.33747520  0.24645222  1  0.065878  0  0.103301  0.118641  0  1.013076  0
H  H25  1  0.01173407  0.66252871  0.75354638  1  0.065834  0  0.103293  0.118638  0  1.012992  0
H  H26  1  0.80800412  0.46487575  0.22686730  1  0.1154  0  0.101026  0.103014  0  1.035479  0
H  H27  1  0.19198378  0.53513057  0.77313409  1  0.115471  0  0.101013  0.103038  0  1.035466  0
H  H28  1  0.45548474  0.59376700  0.33109271  1  0.099254  0  0.108449  0.110384  0  1.008504  0
H  H29  1  0.54449194  0.40623641  0.66890928  1  0.099314  0  0.108454  0.11035  0  1.008454  0
H  H30  1  0.62858887  0.46780498  0.35265454  1  0.065139  0  0.107693  0.122167  0  0.992592  0
H  H31  1  0.37141659  0.53219832  0.64734413  1  0.065123  0  0.10768  0.122139  0  0.992637  0
H  H32  1  0.75959373  0.42152472  0.82048657  1  0.070944  0  0.114914  0.087296  0  1.000379  0
H  H33  1  0.24041966  0.57846264  0.17951046  1  0.070763  0  0.114919  0.087241  0  1.000459  0
H  H34  1  0.06610582  0.45860046  0.89995098  1  0.086378  0  0.104397  0.116027  0  1.030604  0
H  H35  1  0.93387495  0.54139582  0.10004798  1  0.086265  0  0.104396  0.11608  0  1.030552  0
H  H36  1  0.78056084  0.24001973  0.93271987  1  0.085688  0  0.107595  0.124115  0  1.007932  0
H  H37  1  0.21943756  0.75997837  0.06728271  1  0.085805  0  0.107609  0.124077  0  1.007921  0
H  H38  1  0.49441186  0.21213772  0.85161399  1  0.122452  0  0.113451  0.081684  0  1.037357  0
H  H39  1  0.50559955  0.78785684  0.14838897  1  0.122489  0  0.113484  0.081681  0  1.037302  0
H  H40  1  0.36792349  0.34561840  0.96046176  1  0.131499  0  0.114184  0.105451  0  1.027127  0
H  H41  1  0.63206174  0.65438151  0.03954200  1  0.131387  0  0.11419  0.105455  0  1.027199  0
H  H42  1  0.17632847  0.43481624  0.98199985  1  0.131752  0  0.11994  0.124232  0  1.009532  0
H  H43  1  0.82364822  0.56518717  0.01800178  1  0.13182  0  0.119932  0.12426  0  1.009549  0
H  H44  1  0.48228349  0.45211796  0.10747273  1  0.121552  0  0.110141  0.109814  0  1.011499  0
H  H45  1  0.51766840  0.54787606  0.89252852  1  0.121633  0  0.110114  0.109702  0  1.01153  0
H  H46  1  0.33052484  0.40454185  0.18117232  1  0.084145  0  0.101151  0.10395  0  1.025457  0
H  H47  1  0.66944005  0.59544740  0.81882737  1  0.08409  0  0.101188  0.103977  0  1.025441  0
H  H48  1  0.52457538  0.27899412  0.19726492  1  0.093111  0  0.10648  0.106975  0  1.009213  0
H  H49  1  0.47543162  0.72099800  0.80273375  1  0.093224  0  0.10649  0.106956  0  1.009174  0
H  H50  1  0.18039201  0.08197772  0.11371780  1  0.082817  0  0.104936  0.119054  0  1.029685  0
H  H51  1  0.81961550  0.91802200  0.88627898  1  0.082895  0  0.104924  0.119106  0  1.029522  0
H  H52  1  0.32902827  0.13272184  0.04110217  1  0.101808  0  0.112458  0.116188  0  0.979589  0
H  H53  1  0.67093523  0.86727787  0.95889169  1  0.101629  0  0.112413  0.116167  0  0.97943  0
H  H54  1  0.58770849  0.02438720  0.13531373  1  0.071089  0  0.1066  0.120121  0  1.001326  0
H  H55  1  0.41231846  0.97560727  0.86468615  1  0.071021  0  0.106603  0.120021  0  1.001315  0
H  H56  1  0.69342610  0.89338976  0.15535511  1  0.082116  0  0.108574  0.111626  0  1.012593  0
H  H57  1  0.30660322  0.10660827  0.84464597  1  0.082022  0  0.108524  0.111596  0  1.012587  0
H  H58  1  0.36376288  0.99945619  0.26349271  1  0.098887  0  0.103198  0.107284  0  1.019836  0
H  H59  1  0.63625319  0.00054125  0.73650780  1  0.09904  0  0.103173  0.107204  0  1.019658  0
H  H60  1  0.25143805  0.13245762  0.24523976  1  0.059622  0  0.102328  0.116518  0  1.017664  0
H  H61  1  0.74858473  0.86754159  0.75476141  1  0.059612  0  0.102341  0.116581  0  1.017693  0
C  C62  1  0.10410107  0.15626823  0.65594199  1  0.437553  0  0.042877  0.097177  0  3.952864  0
C  C63  1  0.89589322  0.84373457  0.34405972  1  0.437281  0  0.042934  0.097313  0  3.952693  0
C  C64  1  0.02238866  0.12193600  0.60734122  1  -0.022385  0  -0.088012  -0.189965  0  3.948421  0
C  C65  1  0.97759917  0.87806976  0.39266118  1  -0.022217  0  -0.087976  -0.189844  0  3.948227  0
C  C66  1  0.16144942  0.14600962  0.56935673  1  0.009062  0  0.013939  0.158499  0  3.937844  0
C  C67  1  0.83854052  0.85399437  0.43064546  1  0.006512  0  0.013887  0.15842  0  3.937986  0
C  C68  1  0.38046619  0.20409598  0.58235889  1  -0.074799  0  -0.091608  -0.190384  0  3.934218  0
C  C69  1  0.61953250  0.79590498  0.41764012  1  -0.074794  0  -0.091631  -0.1904  0  3.934269  0
C  C70  1  0.45190208  0.23499139  0.63215112  1  0.536417  0  0.045262  0.096666  0  3.951697  0
C  C71  1  0.54810102  0.76500895  0.36784678  1  0.536448  0  0.045315  0.096701  0  3.951429  0
C  C72  1  0.07251042  0.10396443  0.51756672  1  0.244436  0  -0.056641  -0.120555  0  3.898765  0
C  C73  1  0.92748173  0.89603893  0.48243398  1  0.246998  0  -0.056513  -0.120405  0  3.899093  0
C  C74  1  0.36242452  0.09129636  0.44489067  1  1.320123  0  0.243701  0.432015  0  4.088588  0
C  C75  1  0.63756582  0.90871286  0.55510861  1  1.321126  0  0.243679  0.432057  0  4.089046  0
C  C76  1  0.45420383  0.12352562  0.40341068  1  0.00849  0  -0.015161  -0.083708  0  4.022216  0
C  C77  1  0.54582392  0.87648483  0.59659342  1  0.00859  0  -0.015118  -0.083762  0  4.022059  0
C  C78  1  0.63961565  0.07944631  0.37006159  1  -0.05247  0  -0.067162  -0.060797  0  3.925145  0
C  C79  1  0.36040990  0.92056475  0.62994329  1  -0.051756  0  -0.067296  -0.060877  0  3.925207  0
C  C80  1  0.73107170  0.10882205  0.33020404  1  0.027945  0  -0.088856  -0.083567  0  3.994122  0
C  C81  1  0.26895133  0.89118188  0.66979774  1  0.026716  0  -0.088791  -0.083444  0  3.994066  0
C  C82  1  0.63522860  0.18150425  0.32343750  1  -0.065452  0  -0.07229  -0.086748  0  3.947224  0
C  C83  1  0.36479007  0.81849966  0.67656280  1  -0.065374  0  -0.072351  -0.086835  0  3.947319  0
C  C84  1  0.44263105  0.22705520  0.35650247  1  0.013368  0  -0.011591  -0.032225  0  3.997008  0
C  C85  1  0.55739209  0.77295171  0.64350113  1  0.013674  0  -0.011524  -0.032298  0  3.997039  0
C  C86  1  0.33099013  0.30147296  0.35061642  1  0.413807  0  0.103969  0.242608  0  4.008369  0
C  C87  1  0.66901083  0.69852856  0.64938161  1  0.413553  0  0.103961  0.242636  0  4.00831  0
C  C88  1  0.14221202  0.34429366  0.38400309  1  0.068569  0  -0.110334  -0.23393  0  4.014026  0
C  C89  1  0.85779995  0.65570847  0.61599656  1  0.068695  0  -0.11035  -0.233927  0  4.013952  0
C  C90  1  0.05533119  0.31397592  0.42374674  1  -0.099982  0  -0.064931  -0.030041  0  3.96272  0
C  C91  1  0.94468306  0.68602800  0.57625388  1  -0.099831  0  -0.064896  -0.029884  0  3.962537  0
C  C92  1  0.15683033  0.24174949  0.43094541  1  0.000619  0  -0.02624  -0.112524  0  4.039521  0
C  C93  1  0.84319726  0.75825678  0.56905600  1  0.000237  0  -0.026252  -0.112627  0  4.039419  0
C  C94  1  0.05487811  0.21009563  0.47197369  1  1.30602  0  0.23957  0.436608  0  4.10591  0
C  C95  1  0.94513173  0.78990953  0.52802920  1  1.305795  0  0.239537  0.436702  0  4.105519  0
C  C96  1  0.35192984  0.19793717  0.39743959  1  -0.013815  0  0.002795  0.048459  0  4.011726  0
C  C97  1  0.64810012  0.80207327  0.60256453  1  -0.013793  0  0.002811  0.048481  0  4.011453  0
C  C98  1  0.31372743  0.39684954  0.30093666  1  0.383291  0  0.075514  0.239652  0  4.049237  0
C  C99  1  0.68627355  0.60315258  0.69906181  1  0.38389  0  0.075449  0.239563  0  4.049363  0
C  C100  1  0.08652963  0.39412395  0.26507876  1  -0.038123  0  -0.100809  -0.20105  0  4.003623  0
C  C101  1  0.91346046  0.60588055  0.73491991  1  -0.0384  0  -0.100696  -0.200796  0  4.003516  0
C  C102  1  0.98890933  0.46465872  0.25404202  1  0.003969  0  -0.086139  -0.079974  0  3.989071  0
C  C103  1  0.01108300  0.53534759  0.74595870  1  0.003903  0  -0.086185  -0.080191  0  3.989144  0
C  C104  1  0.11966449  0.53677876  0.27793333  1  -0.023412  0  -0.01778  -0.033795  0  3.946284  0
C  C105  1  0.88032548  0.46322582  0.72206893  1  -0.023094  0  -0.017825  -0.033841  0  3.946111  0
C  C106  1  0.35072701  0.53767572  0.31337770  1  -0.013786  0  -0.073762  -0.054714  0  3.953192  0
C  C107  1  0.64926948  0.46232585  0.68662208  1  -0.013756  0  -0.073704  -0.054525  0  3.952985  0
C  C108  1  0.44758806  0.46784900  0.32539594  1  -0.063784  0  -0.099374  -0.198574  0  4.008001  0
C  C109  1  0.55241722  0.53215135  0.67460270  1  -0.064354  0  -0.09939  -0.198627  0  4.008026  0
C  C110  1  0.00775945  0.61275543  0.26631638  1  1.585754  0  0.196654  0.562765  0  4.249009  0
C  C111  1  0.99224155  0.38724852  0.73368483  1  1.585684  0  0.196651  0.562791  0  4.248922  0
C  C112  1  0.77437736  0.38263475  0.84626153  1  0.473943  0  0.048115  0.104071  0  3.958669  0
C  C113  1  0.22562754  0.61735975  0.15373814  1  0.474488  0  0.048144  0.104132  0  3.958912  0
C  C114  1  0.94226373  0.40319607  0.89043650  1  0.044412  0  -0.084676  -0.176408  0  3.913599  0
C  C115  1  0.05773902  0.59679900  0.10956250  1  0.044341  0  -0.084696  -0.176586  0  3.913708  0
C  C116  1  0.95344015  0.35163172  0.92260337  1  -0.050487  0  0.016974  0.158871  0  3.915124  0
C  C117  1  0.04655832  0.64836634  0.07739706  1  -0.050298  0  0.016993  0.15896  0  3.914986  0
C  C118  1  0.78793869  0.28176520  0.90889902  1  -0.071812  0  -0.085867  -0.182165  0  3.932985  0
C  C119  1  0.21206841  0.71822991  0.09110182  1  -0.072061  0  -0.085867  -0.182073  0  3.932945  0
C  C120  1  0.62706853  0.26566613  0.86397239  1  0.539039  0  0.048664  0.111614  0  3.949966  0
C  C121  1  0.37294518  0.73432898  0.13602888  1  0.538952  0  0.048602  0.111551  0  3.949904  0
C  C122  1  0.15021061  0.37085431  0.96895579  1  0.271128  0  -0.057423  -0.121809  0  3.88709  0
C  C123  1  0.84976604  0.62914790  0.03104497  1  0.271178  0  -0.057531  -0.121981  0  3.887249  0
C  C124  1  0.84408535  0.38222128  0.03950928  1  1.319607  0  0.244398  0.431409  0  4.094584  0
C  C125  1  0.15589335  0.61777920  0.96049307  1  1.319371  0  0.24428  0.431216  0  4.094654  0
C  C126  1  0.76012796  0.35332177  0.08284955  1  -0.011627  0  -0.014215  -0.083527  0  4.014682  0
C  C127  1  0.23985052  0.64667457  0.91715189  1  -0.011614  0  -0.014065  -0.083302  0  4.014711  0
C  C128  1  0.56775688  0.39710118  0.11505900  1  -0.008294  0  -0.068633  -0.069591  0  3.934347  0
C  C129  1  0.43220827  0.60289280  0.88494130  1  -0.008512  0  -0.068744  -0.069532  0  3.934389  0
C  C130  1  0.48355540  0.37018277  0.15631332  1  -0.031151  0  -0.084722  -0.078406  0  3.992787  0
C  C131  1  0.51640526  0.62980942  0.84368599  1  -0.031335  0  -0.084771  -0.078604  0  3.992716  0
C  C132  1  0.59227983  0.30005933  0.16547720  1  -0.084768  0  -0.076497  -0.092991  0  3.948589  0
C  C133  1  0.40770756  0.69993754  0.83452261  1  -0.084249  0  -0.076434  -0.092771  0  3.94843  0
C  C134  1  0.79006782  0.25446443  0.13340885  1  0.08182  0  -0.011704  -0.030767  0  3.992937  0
C  C135  1  0.20992836  0.74553246  0.86659212  1  0.081245  0  -0.011658  -0.030711  0  3.992969  0
C  C136  1  0.90969059  0.18168251  0.14089924  1  0.425662  0  0.101561  0.23863  0  4.011763  0
C  C137  1  0.09030781  0.81831314  0.85909909  1  0.425373  0  0.101462  0.238496  0  4.011933  0
C  C138  1  0.09560859  0.13771980  0.10753200  1  -0.003156  0  -0.111206  -0.232845  0  4.022463  0
C  C139  1  0.90439659  0.86227756  0.89246445  1  -0.003511  0  -0.111102  -0.232696  0  4.02235  0
C  C140  1  0.17649479  0.16581821  0.06665735  1  -0.041717  0  -0.068444  -0.034105  0  3.972776  0
C  C141  1  0.82347947  0.83417677  0.93333600  1  -0.041238  0  -0.068467  -0.03425  0  3.97271  0
C  C142  1  0.07024203  0.23683285  0.05821951  1  0.018648  0  -0.024657  -0.109341  0  4.040569  0
C  C143  1  0.92972793  0.76316758  0.94178023  1  0.018519  0  -0.024513  -0.109098  0  4.040652  0
C  C144  1  0.16764961  0.26586857  0.01592131  1  1.311224  0  0.238869  0.435256  0  4.112949  0
C  C145  1  0.83230235  0.73412110  0.98407042  1  1.310617  0  0.23875  0.435349  0  4.113056  0
C  C146  1  0.87424346  0.28131382  0.09123823  1  -0.048107  0  0.003418  0.048976  0  4.007636  0
C  C147  1  0.12575040  0.71868193  0.90876401  1  -0.047551  0  0.003375  0.048754  0  4.007713  0
C  C148  1  0.91229485  0.08500259  0.18976602  1  0.286719  0  0.076167  0.237698  0  4.046811  0
C  C149  1  0.08773893  0.91499478  0.81023250  1  0.286422  0  0.076197  0.238  0  4.046465  0
C  C150  1  0.75735734  0.01851374  0.16333939  1  0.062501  0  -0.100433  -0.199315  0  4.017871  0
C  C151  1  0.24267851  0.98148127  0.83665885  1  0.062279  0  -0.100386  -0.199103  0  4.017753  0
C  C152  1  0.81725568  0.94569947  0.17449781  1  -0.048274  0  -0.077097  -0.060467  0  3.965527  0
C  C153  1  0.18278678  0.05429616  0.82550200  1  -0.048085  0  -0.076975  -0.060436  0  3.965609  0
C  C154  1  0.03214124  0.93868427  0.21116203  1  -0.045492  0  -0.015289  -0.034255  0  3.937393  0
C  C155  1  0.96789251  0.06131375  0.78883873  1  -0.0453  0  -0.015434  -0.034611  0  3.937333  0
C  C156  1  0.19265068  0.00584710  0.23579916  1  -0.064956  0  -0.082269  -0.07518  0  3.979982  0
C  C157  1  0.80737203  0.99415093  0.76420185  1  -0.064803  0  -0.082216  -0.074869  0  3.979662  0
C  C158  1  0.13219198  0.07952501  0.22551645  1  0.06673  0  -0.102332  -0.200284  0  4.006419  0
C  C159  1  0.86783299  0.92047360  0.77448394  1  0.066812  0  -0.10238  -0.200611  0  4.006615  0
C  C160  1  0.08362425  0.86009059  0.22500259  1  1.614749  0  0.200553  0.569199  0  4.242942  0
C  C161  1  0.91641622  0.13990856  0.77499694  1  1.61453  0  0.200599  0.56961  0  4.242577  0
N  N162  1  0.31686296  0.21208616  0.66844110  1  -1.216385  0  -0.328354  -0.235043  0  3.502164  0
N  N163  1  0.68315107  0.78791362  0.33155862  1  -1.216425  0  -0.328499  -0.235286  0  3.502281  0
N  N164  1  0.17658789  0.13793199  0.47792744  1  -1.142604  0  -0.241802  -0.16599  0  3.572089  0
N  N165  1  0.82341318  0.86207374  0.52207472  1  -1.143196  0  -0.241938  -0.166218  0  3.572022  0
N  N166  1  0.62174443  0.31445679  0.83278091  1  -1.22459  0  -0.327704  -0.240539  0  3.502873  0
N  N167  1  0.37827135  0.68553718  0.16722202  1  -1.224602  0  -0.327689  -0.240439  0  3.502894  0
N  N168  1  0.04911065  0.33796551  0.00941643  1  -1.14679  0  -0.243717  -0.170613  0  3.586509  0
N  N169  1  0.95086148  0.66203494  0.99058442  1  -1.146916  0  -0.243506  -0.170317  0  3.586532  0
O  O170  1  0.86915392  0.24272567  0.50029572  1  -1.13138  0  -0.281785  -0.458361  0  2.122916  0
O  O171  1  0.13084054  0.75727639  0.49969981  1  -1.131199  0  -0.281788  -0.45841  0  2.12265  0
O  O172  1  0.44224138  0.02552988  0.45043220  1  -1.129551  0  -0.267621  -0.444071  0  2.186759  0
O  O173  1  0.55772828  0.97446402  0.54956490  1  -1.12978  0  -0.26753  -0.443931  0  2.187452  0
O  O174  1  0.41971046  0.32529859  0.31014695  1  -1.100768  0  -0.148048  -0.214165  0  2.591787  0
O  O175  1  0.58029037  0.67470057  0.68985078  1  -1.100844  0  -0.148003  -0.214104  0  2.591755  0
O  O176  1  0.75975758  0.60895045  0.24211802  1  -1.158542  0  -0.329899  -0.564373  0  2.263845  0
O  O177  1  0.24024121  0.39105412  0.75788432  1  -1.158599  0  -0.329936  -0.564432  0  2.263765  0
O  O178  1  0.15939062  0.67524306  0.28197363  1  -1.196755  0  -0.33061  -0.590487  0  2.31619  0
O  O179  1  0.84059717  0.32476150  0.71802789  1  -1.196666  0  -0.330578  -0.59048  0  2.316219  0
O  O180  1  0.74265531  0.44338548  0.02984490  1  -1.12334  0  -0.261503  -0.430796  0  2.16685  0
O  O181  1  0.25735013  0.55662151  0.97016069  1  -1.123216  0  -0.261499  -0.430774  0  2.16681  0
O  O182  1  0.34665220  0.23042118  0.98722527  1  -1.128448  0  -0.287658  -0.464329  0  2.115869  0
O  O183  1  0.65321832  0.76956849  0.01276138  1  -1.127999  0  -0.287771  -0.464659  0  2.115622  0
O  O184  1  0.83354003  0.16018192  0.18285836  1  -1.101511  0  -0.147674  -0.212714  0  2.581758  0
O  O185  1  0.16647833  0.83981607  0.81714045  1  -1.101151  0  -0.147667  -0.212859  0  2.581668  0
O  O186  1  0.31516181  0.85508552  0.25191149  1  -1.174988  0  -0.33338  -0.572317  0  2.26527  0
O  O187  1  0.68487205  0.14491424  0.74808877  1  -1.174739  0  -0.333361  -0.572429  0  2.265199  0
O  O188  1  0.89223694  0.80621436  0.20909032  1  -1.190685  0  -0.330061  -0.578808  0  2.312515  0
O  O189  1  0.10781442  0.19378242  0.79090901  1  -1.190751  0  -0.330051  -0.578953  0  2.312365  0
