# generated using pymatgen
data_BaH3C8NO6
_symmetry_space_group_name_H-M   'P 1'
_cell_length_a   4.97484723
_cell_length_b   7.28873291
_cell_length_c   12.95108128
_cell_angle_alpha   88.78843443
_cell_angle_beta   80.14976361
_cell_angle_gamma   73.70375526
_symmetry_Int_Tables_number   1
_chemical_formula_structural   BaH3C8NO6
_chemical_formula_sum   'Ba2 H6 C16 N2 O12'
_cell_volume   443.91940070
_cell_formula_units_Z   2
loop_
 _symmetry_equiv_pos_site_id
 _symmetry_equiv_pos_as_xyz
  1  'x, y, z'
loop_
 _atom_site_type_symbol
 _atom_site_label
 _atom_site_symmetry_multiplicity
 _atom_site_fract_x
 _atom_site_fract_y
 _atom_site_fract_z
 _atom_site_occupancy
 _atom_site_hle17_bader_spin_density
 _atom_site_hle17_ddec_charge
 _atom_site_hle17_ddec_spin_density
 _atom_site_hle17_ddec_sum_bond_order
 _atom_site_hle17_magmom
 _atom_site_hse06_10hf_bader_spin_density
 _atom_site_hse06_10hf_ddec_charge
 _atom_site_hse06_10hf_ddec_spin_density
 _atom_site_hse06_10hf_ddec_sum_bond_order
 _atom_site_hse06_10hf_magmom
 _atom_site_hse06_bader_spin_density
 _atom_site_hse06_ddec_charge
 _atom_site_hse06_ddec_spin_density
 _atom_site_hse06_ddec_sum_bond_order
 _atom_site_hse06_magmom
 _atom_site_pbe_bader_spin_density
 _atom_site_pbe_cm5_charge
 _atom_site_pbe_ddec_charge
 _atom_site_pbe_ddec_spin_density
 _atom_site_pbe_ddec_sum_bond_order
 _atom_site_pbe_magmom
Ba  Ba0  1  0.18218158  0.21366293  0.57775979  1  0  1.672855  0  1.139252  0  0  1.527874  0  1.535145  0  0  1.569526  0  1.491677  0  0  0.985895  1.497202  0  1.565904  0
Ba  Ba1  1  0.81781782  0.78633905  0.42224030  1  0  1.672897  0  1.139195  0  0  1.527904  0  1.535105  0  0  1.569558  0  1.491636  0  0  0.985904  1.497215  0  1.565894  0
H  H2  1  0.68168112  0.43759958  0.02695291  1  0  0.107015  0  0.983699  0  0  0.111894  0  1.053029  0  0  0.115449  0  1.049805  0  0  0.110602  0.109283  0  1.055419  0
H  H3  1  0.31831664  0.56239667  0.97304657  1  0  0.107015  0  0.98369  0  0  0.111898  0  1.053006  0  0  0.115449  0  1.049792  0  0  0.110607  0.109286  0  1.055399  0
H  H4  1  0.13176036  0.19437915  0.95377758  1  0  0.116856  0  0.940135  0  0  0.124937  0  0.999554  0  0  0.12892  0  0.997641  0  0  0.111054  0.12207  0  1.001087  0
H  H5  1  0.86824024  0.80561998  0.04622323  1  0  0.116843  0  0.940141  0  0  0.124925  0  0.999561  0  0  0.128906  0  0.997649  0  0  0.111045  0.122056  0  1.001095  0
H  H6  1  0.42657857  0.99887883  0.08008158  1  0  0.097181  0  0.971913  0  0  0.106975  0  1.036402  0  0  0.10988  0  1.034298  0  0  0.108248  0.104899  0  1.03786  0
H  H7  1  0.57342264  0.00111886  0.91991920  1  0  0.097196  0  0.971902  0  0  0.106987  0  1.036393  0  0  0.109893  0  1.034287  0  0  0.108258  0.104911  0  1.037851  0
C  C8  1  0.14338853  0.12930700  0.21659272  1  0  -0.072049  0  3.666284  0  0  -0.058272  0  3.905996  0  0  -0.066446  0  3.925921  0  0  -0.00056  -0.053409  0  3.893156  0
C  C9  1  0.85661412  0.87069213  0.78340719  1  0  -0.072168  0  3.666414  0  0  -0.058325  0  3.906006  0  0  -0.066495  0  3.925924  0  0  -0.000601  -0.053468  0  3.893178  0
C  C10  1  0.88617206  0.26477928  0.25888236  1  0  -0.047705  0  3.61298  0  0  -0.046057  0  3.856726  0  0  -0.04389  0  3.871254  0  0  0.028727  -0.047724  0  3.847177  0
C  C11  1  0.11382998  0.73522128  0.74111834  1  0  -0.04769  0  3.613014  0  0  -0.046012  0  3.856701  0  0  -0.043844  0  3.871232  0  0  0.028759  -0.047678  0  3.847155  0
C  C12  1  0.72595808  0.37259758  0.18731155  1  0  0.055517  0  3.668802  0  0  0.034565  0  3.927747  0  0  0.031209  0  3.948654  0  0  0.087789  0.037233  0  3.91334  0
C  C13  1  0.27404254  0.62740154  0.81268848  1  0  0.055563  0  3.66872  0  0  0.034472  0  3.927742  0  0  0.031104  0  3.948656  0  0  0.0878  0.03714  0  3.913335  0
C  C14  1  0.81150934  0.34931132  0.07872095  1  0  -0.065006  0  3.706638  0  0  -0.092417  0  3.965004  0  0  -0.090149  0  3.983177  0  0  -0.068563  -0.093732  0  3.952518  0
C  C15  1  0.18848923  0.65068780  0.92127922  1  0  -0.06502  0  3.70662  0  0  -0.092408  0  3.965009  0  0  -0.090138  0  3.983183  0  0  -0.068595  -0.093723  0  3.952522  0
C  C16  1  0.06457497  0.21454655  0.03844371  1  0  -0.067574  0  3.725431  0  0  -0.079396  0  3.9813  0  0  -0.085391  0  4.002632  0  0  -0.081449  -0.075586  0  3.966926  0
C  C17  1  0.93542360  0.78545256  0.96155646  1  0  -0.067553  0  3.725441  0  0  -0.079373  0  3.981305  0  0  -0.085368  0  4.002637  0  0  -0.081419  -0.075563  0  3.966929  0
C  C18  1  0.22732034  0.10651208  0.10780158  1  0  -0.018541  0  3.679899  0  0  -0.051711  0  3.93597  0  0  -0.048389  0  3.954365  0  0  -0.062394  -0.053635  0  3.923486  0
C  C19  1  0.77268027  0.89348704  0.89219845  1  0  -0.018521  0  3.679917  0  0  -0.051718  0  3.935972  0  0  -0.048395  0  3.954364  0  0  -0.0624  -0.053639  0  3.923488  0
C  C20  1  0.33489462  0.00061085  0.28405738  1  0  0.656984  0  3.938101  0  0  0.606382  0  4.238339  0  0  0.640831  0  4.229983  0  0  0.20939  0.583056  0  4.243184  0
C  C21  1  0.66510599  0.99938828  0.71594265  1  0  0.65702  0  3.938179  0  0  0.606399  0  4.238414  0  0  0.640848  0  4.230057  0  0  0.209413  0.583073  0  4.243263  0
C  C22  1  0.78880196  0.28995964  0.37659511  1  0  0.713585  0  3.953146  0  0  0.65662  0  4.260423  0  0  0.692922  0  4.24627  0  0  0.238059  0.631577  0  4.269395  0
C  C23  1  0.21119947  0.71004235  0.62340561  1  0  0.713663  0  3.953074  0  0  0.65673  0  4.26028  0  0  0.693031  0  4.246129  0  0  0.238123  0.631688  0  4.269253  0
N  N24  1  0.45648330  0.51403518  0.22529735  1  0  0.475865  0  3.933349  0  0  0.518511  0  4.212374  0  0  0.537563  0  4.221951  0  0  0.065775  0.504114  0  4.206453  0
N  N25  1  0.54351527  0.48596393  0.77470281  1  0  0.47596  0  3.933166  0  0  0.518785  0  4.211976  0  0  0.537863  0  4.221547  0  0  0.065792  0.504388  0  4.206057  0
O  O26  1  0.58583963  0.91457514  0.24173753  1  0  -0.663279  0  1.92502  0  0  -0.619734  0  2.162757  0  0  -0.645669  0  2.156175  0  0  -0.356188  -0.601336  0  2.166555  0
O  O27  1  0.41415895  0.08542398  0.75826186  1  0  -0.663302  0  1.925074  0  0  -0.619757  0  2.162814  0  0  -0.645692  0  2.156234  0  0  -0.356215  -0.601358  0  2.166611  0
O  O28  1  0.23002495  0.98271327  0.38041730  1  0  -0.775866  0  2.054227  0  0  -0.70991  0  2.30172  0  0  -0.737545  0  2.293835  0  0  -0.39042  -0.690397  0  2.306627  0
O  O29  1  0.76997506  0.01728729  0.61958276  1  0  -0.775851  0  2.054222  0  0  -0.709911  0  2.301745  0  0  -0.737546  0  2.293861  0  0  -0.390418  -0.690399  0  2.306653  0
O  O30  1  0.88774255  0.40099986  0.42332988  1  0  -0.727776  0  2.004009  0  0  -0.670657  0  2.26238  0  0  -0.699568  0  2.251689  0  0  -0.396175  -0.649512  0  2.268929  0
O  O31  1  0.11226032  0.59900357  0.57666919  1  0  -0.727773  0  2.003929  0  0  -0.670668  0  2.262263  0  0  -0.699577  0  2.251574  0  0  -0.396193  -0.649523  0  2.268813  0
O  O32  1  0.62375845  0.19575917  0.41889846  1  0  -0.716902  0  2.053471  0  0  -0.659561  0  2.309092  0  0  -0.688149  0  2.299931  0  0  -0.380879  -0.638939  0  2.314732  0
O  O33  1  0.37624237  0.80424425  0.58110229  1  0  -0.71698  0  2.053476  0  0  -0.659636  0  2.309043  0  0  -0.688222  0  2.299881  0  0  -0.380919  -0.639013  0  2.314684  0
O  O34  1  0.39947304  0.56164576  0.32047600  1  0  -0.392039  0  1.876  0  0  -0.370414  0  2.102145  0  0  -0.380892  0  2.097487  0  0  -0.104297  -0.363173  0  2.105713  0
O  O35  1  0.60052818  0.43835193  0.67952401  1  0  -0.392044  0  1.875864  0  0  -0.370486  0  2.101946  0  0  -0.380973  0  2.097286  0  0  -0.104274  -0.363247  0  2.105516  0
O  O36  1  0.29197168  0.58144140  0.16313408  1  0  -0.349148  0  1.765787  0  0  -0.329654  0  1.965395  0  0  -0.340233  0  1.964005  0  0  -0.104618  -0.322005  0  1.966489  0
O  O37  1  0.70802282  0.41855771  0.83686634  1  0  -0.349228  0  1.765752  0  0  -0.329784  0  1.96528  0  0  -0.34038  0  1.963891  0  0  -0.104665  -0.322137  0  1.966376  0
