# generated using pymatgen
data_Cu3P4H18C16(NO9)2
_symmetry_space_group_name_H-M   'P 1'
_cell_length_a   8.47675687
_cell_length_b   8.92252307
_cell_length_c   9.64119891
_cell_angle_alpha   109.64016397
_cell_angle_beta   99.74243361
_cell_angle_gamma   109.38260061
_symmetry_Int_Tables_number   1
_chemical_formula_structural   Cu3P4H18C16(NO9)2
_chemical_formula_sum   'Cu3 P4 H18 C16 N2 O18'
_cell_volume   614.65411629
_cell_formula_units_Z   1
loop_
 _symmetry_equiv_pos_site_id
 _symmetry_equiv_pos_as_xyz
  1  'x, y, z'
loop_
 _atom_site_type_symbol
 _atom_site_label
 _atom_site_symmetry_multiplicity
 _atom_site_fract_x
 _atom_site_fract_y
 _atom_site_fract_z
 _atom_site_occupancy
 _atom_site_hle17_ddec_charge
 _atom_site_hle17_ddec_spin_density
 _atom_site_hle17_ddec_sum_bond_order
 _atom_site_hle17_magmom
 _atom_site_hse06_10hf_ddec_charge
 _atom_site_hse06_10hf_ddec_spin_density
 _atom_site_hse06_10hf_ddec_sum_bond_order
 _atom_site_hse06_10hf_magmom
 _atom_site_hse06_ddec_charge
 _atom_site_hse06_ddec_spin_density
 _atom_site_hse06_ddec_sum_bond_order
 _atom_site_hse06_magmom
 _atom_site_pbe_cm5_charge
 _atom_site_pbe_ddec_charge
 _atom_site_pbe_ddec_spin_density
 _atom_site_pbe_ddec_sum_bond_order
 _atom_site_pbe_magmom
Cu  Cu0  1  0.00058609  0.00048432  0.00009673  1  1.103895  -0.698775  1.574761  -0.536  1.106125  -0.81112  1.955951  -0.675  1.191027  -0.878805  1.891138  -0.758  0.749396  1.037337  -0.741278  2.017324  -0.605
Cu  Cu1  1  0.27119556  0.24255877  0.52198053  1  1.038598  0.674178  1.702752  0.502  1.042077  0.816754  2.085434  0.663  1.122334  0.908881  2.032201  0.758  0.735965  0.970497  0.670715  2.146682  0.538
Cu  Cu2  1  0.72820095  0.75690288  0.47811017  1  1.038745  -0.67795  1.69652  -0.519  1.042956  -0.806591  2.079119  -0.67  1.123289  -0.884305  2.026034  -0.761  0.735457  0.972137  -0.695173  2.139551  -0.566
P  P3  1  0.03398244  0.70961535  0.70154111  1  1.417979  -0.003052  4.79042  -0.001  1.264539  -0.004602  5.295033  -0.003  1.315869  -0.003595  5.25777  -0.003  0.35013  1.22832  -0.005481  5.318949  -0.004
P  P4  1  0.96610260  0.29056765  0.29816718  1  1.419512  -0.003165  4.788607  -0.001  1.265235  -0.004761  5.293586  -0.003  1.316449  -0.003757  5.256394  -0.003  0.350537  1.229154  -0.005569  5.317436  -0.004
P  P5  1  0.09771775  0.07066837  0.72885141  1  1.395  -0.000589  4.892617  0.001  1.258092  -0.002856  5.386253  -0.001  1.316058  -0.002392  5.34785  -0.002  0.331917  1.216032  -0.003368  5.410191  -0.001
P  P6  1  0.90220863  0.92894603  0.27094615  1  1.399606  -0.000311  4.890464  0.001  1.26161  -0.002706  5.383666  -0.001  1.318655  -0.002025  5.345354  -0.001  0.332547  1.220734  -0.003131  5.407605  -0.001
H  H7  1  0.12789598  0.50831767  0.60814016  1  0.444473  -0.000208  0.855874  0.0  0.410751  -0.000246  0.924563  -0.001  0.422328  -0.000167  0.907872  0.0  0.308034  0.402413  -0.000308  0.936541  -0.001
H  H8  1  0.87155965  0.49143733  0.39148155  1  0.444448  -0.0002  0.85612  0.0  0.410664  -0.000213  0.924654  -0.001  0.422212  -0.000144  0.908006  0.0  0.307987  0.402369  -0.000272  0.936572  -0.001
H  H9  1  0.49449368  0.28483971  0.06671362  1  0.133392  -0.000119  0.934658  0.0  0.139561  -0.000119  0.997262  0.0  0.144351  -7.1e-05  0.994878  0.0  0.116255  0.135828  -0.000152  0.999611  0.0
H  H10  1  0.50600389  0.71538554  0.93363780  1  0.132998  0.000145  0.934524  0.0  0.139189  0.000151  0.997189  0.0  0.143953  0.000102  0.994836  0.0  0.116275  0.13547  0.000171  0.9995  0.0
H  H11  1  0.71953892  0.57098531  0.10676361  1  0.120381  -0.000324  0.98944  0.0  0.12794  -0.000257  1.047731  0.0  0.132062  -0.000163  1.043963  0.0  0.132189  0.124821  -0.000326  1.050595  0.0
H  H12  1  0.28054061  0.42926591  0.89325130  1  0.120483  2e-06  0.989389  0.0  0.128071  0.0  1.047824  0.0  0.132468  -1.2e-05  1.043783  0.0  0.132147  0.124557  8e-06  1.051034  0.0
H  H13  1  0.78029338  0.35305795  0.67378548  1  0.110726  -2.2e-05  0.948827  0.0  0.1174  -3.3e-05  1.012679  0.0  0.120718  -3e-05  1.009419  0.0  0.130509  0.114612  -4.1e-05  1.015609  0.0
H  H14  1  0.21977986  0.64687542  0.32623894  1  0.110587  2.4e-05  0.948942  0.0  0.117313  6e-06  1.012855  0.0  0.120636  6e-06  1.009606  0.0  0.13046  0.114526  1e-06  1.015735  0.0
H  H15  1  0.56611489  0.05372299  0.62289312  1  0.12295  7.1e-05  0.952659  0.0  0.128851  9.4e-05  1.019981  0.0  0.132166  8.2e-05  1.018337  0.0  0.113822  0.126579  9.3e-05  1.021127  0.0
H  H16  1  0.43418750  0.94620786  0.37743537  1  0.122613  -7.2e-05  0.952842  0.0  0.128602  -0.0001  1.020254  0.0  0.131918  -8.6e-05  1.01864  0.0  0.113571  0.126253  -9.2e-05  1.021427  0.0
H  H17  1  0.14944197  0.89642202  0.47295199  1  0.371905  -0.000227  0.918167  0.0  0.346697  -0.000148  0.994394  0.0  0.356897  -0.000148  0.98264  0.0  0.296497  0.339768  -0.000131  1.001939  0.0
H  H18  1  0.85088645  0.10353709  0.52673763  1  0.371828  0.000227  0.917501  0.0  0.346868  0.000146  0.993713  0.0  0.357089  0.000146  0.98189  0.0  0.297009  0.339933  0.000119  1.001357  0.0
H  H19  1  0.34718508  0.97417753  0.92005430  1  0.099096  0.000171  0.935172  0.0  0.112663  0.000171  0.999733  0.0  0.113737  0.000153  0.999542  0.0  0.105129  0.11198  0.000157  0.999869  0.0
H  H20  1  0.65248622  0.02574077  0.07980371  1  0.098898  0.000158  0.934925  0.0  0.112638  0.00015  0.999449  0.0  0.113726  0.000141  0.999167  0.0  0.105162  0.111952  0.000157  0.999543  0.0
H  H21  1  0.41847079  0.86859758  0.76735358  1  0.123745  -0.000127  0.916884  0.0  0.139425  -0.000136  0.974791  0.0  0.142021  -9.2e-05  0.973494  0.0  0.109638  0.137228  -0.000154  0.976185  0.0
H  H22  1  0.58178564  0.13148462  0.23288759  1  0.123603  0.000108  0.916881  0.0  0.13954  0.000129  0.974574  0.0  0.14218  8.4e-05  0.973202  0.0  0.109707  0.137231  0.000143  0.976054  0.0
H  H23  1  0.83952944  0.59153090  0.90679144  1  0.324976  -1.7e-05  0.862382  0.0  0.303903  -1e-06  0.921764  0.0  0.312921  2.8e-05  0.914644  0.0  0.322465  0.297511  -4.1e-05  0.926949  0.0
H  H24  1  0.16025407  0.40867061  0.09320059  1  0.324521  -5e-05  0.863598  0.0  0.30351  -4.4e-05  0.922687  0.0  0.312614  -5e-06  0.915465  0.0  0.322026  0.296983  -8.7e-05  0.928062  0.0
C  C25  1  0.55407205  0.29212348  0.97631628  1  -0.143937  -9.6e-05  3.644225  0.0  -0.163337  -0.000157  3.899144  0.0  -0.17271  -7.4e-05  3.917433  0.0  -0.068579  -0.157742  -0.000217  3.887718  0.0
C  C26  1  0.44623943  0.70803322  0.02391443  1  -0.143759  -5.9e-05  3.644497  0.0  -0.163163  0.000102  3.899638  0.0  -0.17268  4.3e-05  3.918119  0.0  -0.06848  -0.157364  0.000141  3.888042  0.0
C  C27  1  0.67831544  0.45305923  0.00079112  1  0.171588  -0.000465  3.561823  -0.001  0.128898  -0.000365  3.811694  0.0  0.140414  -0.000236  3.82306  0.0  0.07353  0.121478  -0.000464  3.804323  -0.001
C  C28  1  0.32181118  0.54712678  0.99926743  1  0.170996  0.000749  3.561921  0.001  0.128422  0.000358  3.811383  0.0  0.140033  0.000225  3.822395  0.0  0.073319  0.120757  0.000452  3.804531  0.001
C  C29  1  0.71383546  0.32927002  0.75651681  1  0.14826  -8e-05  3.601781  0.0  0.103728  -0.000139  3.860741  0.0  0.113031  -0.000146  3.875696  0.0  0.065177  0.097824  -0.000131  3.850628  0.0
C  C30  1  0.28626361  0.67077600  0.24353795  1  0.148523  0.000215  3.601496  0.0  0.103675  0.000166  3.860598  0.0  0.11292  0.000158  3.875655  0.0  0.065363  0.097867  0.00015  3.85033  0.0
C  C31  1  0.59299193  0.16538417  0.72922198  1  -0.156151  -0.000279  3.659501  0.0  -0.182338  -0.000324  3.927093  0.0  -0.191229  -0.000297  3.945565  0.0  -0.072706  -0.176302  -0.000303  3.91397  0.0
C  C32  1  0.40725800  0.83465730  0.27098385  1  -0.155875  0.000237  3.658226  0.0  -0.182329  0.000363  3.926441  0.0  -0.191363  0.000337  3.945176  0.0  -0.072638  -0.176159  0.000331  3.91316  0.0
C  C33  1  0.18920270  0.90376378  0.68728323  1  -0.221562  0.001638  3.679882  0.001  -0.184215  0.000875  3.932381  0.001  -0.194055  0.000775  3.944471  0.001  0.053776  -0.177186  0.0009  3.923309  0.001
C  C34  1  0.81119775  0.09619913  0.31238581  1  -0.221637  0.001575  3.678233  0.001  -0.184261  0.000749  3.931283  0.0  -0.194022  0.000649  3.943262  0.0  0.053687  -0.177286  0.000751  3.922232  0.0
C  C35  1  0.48295694  0.44014135  0.41521609  1  0.527499  0.001518  3.906056  0.002  0.488126  0.000658  4.209625  0.001  0.523081  0.000538  4.205156  0.001  0.205239  0.462887  0.000641  4.210246  0.001
C  C36  1  0.51569185  0.55900847  0.58445844  1  0.527523  -0.000767  3.902869  -0.001  0.487064  -0.000459  4.207595  -0.001  0.521942  -0.000375  4.2033  -0.001  0.204827  0.461984  -0.000515  4.207926  -0.001
C  C37  1  0.50667999  0.14447085  0.83833643  1  0.189549  -0.000259  3.667322  0.0  0.202766  -0.000239  3.903649  0.0  0.210396  -0.000178  3.924212  0.0  0.030378  0.197742  -0.000289  3.889756  0.0
C  C38  1  0.49358744  0.85564921  0.16189109  1  0.189527  0.000272  3.666809  0.0  0.20227  0.000236  3.904072  0.0  0.209746  0.000184  3.924795  0.0  0.030067  0.197453  0.000281  3.88983  0.0
C  C39  1  0.37010821  0.97007103  0.81042800  1  -0.193933  -2.9e-05  3.692922  0.0  -0.240483  3e-05  3.927762  0.0  -0.242033  7.7e-05  3.939386  0.0  -0.150822  -0.239351  -3.3e-05  3.920081  0.0
C  C40  1  0.63011103  0.03001304  0.18965901  1  -0.193668  0.000303  3.692959  0.0  -0.240534  0.000243  3.928431  0.0  -0.242045  0.000158  3.940019  0.0  -0.15093  -0.239248  0.000292  3.920586  0.0
N  N41  1  0.75279911  0.46845220  0.89051736  1  -0.202044  8.2e-05  3.435381  0.0  -0.127385  4.6e-05  3.655461  0.0  -0.142486  6.9e-05  3.669314  0.0  -0.335752  -0.117676  8e-06  3.646379  0.0
N  N42  1  0.24716147  0.53169283  0.10944229  1  -0.201766  -0.00011  3.435737  0.0  -0.126406  -8.3e-05  3.654708  0.0  -0.14147  -5.7e-05  3.668432  0.0  -0.335614  -0.116726  -0.000123  3.645808  0.0
O  O43  1  0.54888828  0.51378539  0.33423483  1  -0.501687  -0.063651  2.06633  -0.088  -0.480406  -0.047714  2.333293  -0.072  -0.523754  -0.0379  2.33125  -0.06  -0.281496  -0.445673  -0.047791  2.333415  -0.069
O  O44  1  0.44991534  0.48536474  0.66551401  1  -0.502646  0.061977  2.067703  0.084  -0.479969  0.04779  2.334331  0.07  -0.523223  0.03896  2.332314  0.059  -0.281381  -0.444753  0.045393  2.333973  0.065
O  O45  1  0.90444571  0.99105336  0.62519202  1  -0.843713  -0.049471  2.140864  -0.068  -0.790684  -0.034631  2.440139  -0.05  -0.826997  -0.02731  2.415364  -0.041  -0.382422  -0.76214  -0.035892  2.455694  -0.05
O  O46  1  0.09531229  0.00868936  0.37568312  1  -0.847726  0.047903  2.142692  0.063  -0.792725  0.035306  2.441483  0.049  -0.828442  0.028936  2.416416  0.041  -0.38284  -0.762976  0.034242  2.456053  0.046
O  O47  1  0.87632870  0.60873197  0.55387442  1  -0.865679  -0.004197  2.063605  -0.007  -0.796577  -0.001802  2.331445  -0.004  -0.824748  -0.000356  2.310171  -0.002  -0.372019  -0.774604  -0.002742  2.345503  -0.005
O  O48  1  0.12353834  0.39165975  0.44596249  1  -0.86711  -0.005708  2.064497  -0.007  -0.797204  -0.003141  2.331953  -0.004  -0.825192  -0.002276  2.310612  -0.003  -0.372134  -0.775249  -0.003357  2.345889  -0.004
O  O49  1  0.21377486  0.22391304  0.70137299  1  -0.786336  0.040483  2.107683  0.055  -0.743458  0.029978  2.410794  0.043  -0.783575  0.025912  2.389982  0.038  -0.377623  -0.710626  0.026382  2.424009  0.037
O  O50  1  0.78594242  0.77629066  0.29879478  1  -0.792418  -0.061267  2.109321  -0.085  -0.746659  -0.0389  2.411527  -0.057  -0.785127  -0.030671  2.390126  -0.047  -0.380695  -0.717482  -0.040243  2.426503  -0.057
O  O51  1  0.11845522  0.13835790  0.90340718  1  -0.798319  -0.064839  2.047629  -0.089  -0.76051  -0.040883  2.360028  -0.06  -0.802058  -0.031153  2.336449  -0.048  -0.381127  -0.729084  -0.045285  2.376778  -0.064
O  O52  1  0.88307881  0.86203916  0.09684114  1  -0.804131  -0.071665  2.04856  -0.098  -0.763534  -0.043444  2.360211  -0.063  -0.803058  -0.033219  2.335765  -0.05  -0.385018  -0.735652  -0.047224  2.378658  -0.066
O  O53  1  0.99257993  0.77317813  0.85457353  1  -0.828819  -0.057662  2.014158  -0.08  -0.778994  -0.04166  2.31525  -0.061  -0.814765  -0.03215  2.290298  -0.05  -0.375615  -0.752403  -0.046249  2.332708  -0.065
O  O54  1  0.00800548  0.22778643  0.14528009  1  -0.829997  -0.057114  2.014191  -0.079  -0.779084  -0.041426  2.31504  -0.061  -0.814541  -0.032026  2.289999  -0.049  -0.375813  -0.753091  -0.046053  2.33275  -0.065
O  O55  1  0.13422980  0.59172548  0.71506210  1  -0.715793  -0.003319  2.006868  -0.004  -0.641707  -0.002801  2.230539  -0.004  -0.663413  -0.001912  2.207543  -0.003  -0.377524  -0.626269  -0.003856  2.246527  -0.005
O  O56  1  0.86530644  0.40803247  0.28463441  1  -0.716332  -0.003411  2.008014  -0.005  -0.641986  -0.002808  2.231397  -0.004  -0.663824  -0.001912  2.208537  -0.003  -0.377564  -0.626644  -0.003819  2.247382  -0.005
O  O57  1  0.39271268  0.27700149  0.36726291  1  -0.523001  0.049691  2.042781  0.067  -0.511199  0.038436  2.316882  0.056  -0.551633  0.03174  2.307862  0.048  -0.29364  -0.476944  0.036113  2.321131  0.051
O  O58  1  0.60597631  0.72216411  0.63243061  1  -0.520961  -0.052171  2.039783  -0.073  -0.50937  -0.038289  2.314494  -0.058  -0.550051  -0.030628  2.305701  -0.049  -0.292939  -0.475495  -0.037532  2.318806  -0.054
O  O59  1  0.21051332  0.85264994  0.53744634  1  -0.504328  0.000372  2.116116  0.001  -0.465098  0.000128  2.340532  0.0  -0.480163  3.1e-05  2.332939  0.0  -0.382181  -0.453699  0.000153  2.344804  0.0
O  O60  1  0.79025011  0.14767110  0.46244831  1  -0.505091  -0.000274  2.115454  0.0  -0.465554  0.000133  2.339029  0.0  -0.48058  0.000256  2.331386  0.0  -0.382639  -0.454393  -7.4e-05  2.343497  0.0
