# generated using pymatgen
data_Na2H15C8NO9
_symmetry_space_group_name_H-M   'P 1'
_cell_length_a   7.95307596
_cell_length_b   7.88526526
_cell_length_c   11.34532085
_cell_angle_alpha   73.05945153
_cell_angle_beta   76.14385189
_cell_angle_gamma   85.10377567
_symmetry_Int_Tables_number   1
_chemical_formula_structural   Na2H15C8NO9
_chemical_formula_sum   'Na4 H30 C16 N2 O18'
_cell_volume   660.71709502
_cell_formula_units_Z   2
loop_
 _symmetry_equiv_pos_site_id
 _symmetry_equiv_pos_as_xyz
  1  'x, y, z'
loop_
 _atom_site_type_symbol
 _atom_site_label
 _atom_site_symmetry_multiplicity
 _atom_site_fract_x
 _atom_site_fract_y
 _atom_site_fract_z
 _atom_site_occupancy
 _atom_site_hle17_bader_spin_density
 _atom_site_hle17_ddec_charge
 _atom_site_hle17_ddec_spin_density
 _atom_site_hle17_ddec_sum_bond_order
 _atom_site_hle17_magmom
 _atom_site_hse06_10hf_bader_spin_density
 _atom_site_hse06_10hf_ddec_charge
 _atom_site_hse06_10hf_ddec_spin_density
 _atom_site_hse06_10hf_ddec_sum_bond_order
 _atom_site_hse06_10hf_magmom
 _atom_site_hse06_bader_spin_density
 _atom_site_hse06_ddec_charge
 _atom_site_hse06_ddec_spin_density
 _atom_site_hse06_ddec_sum_bond_order
 _atom_site_hse06_magmom
 _atom_site_pbe_bader_spin_density
 _atom_site_pbe_cm5_charge
 _atom_site_pbe_ddec_charge
 _atom_site_pbe_ddec_spin_density
 _atom_site_pbe_ddec_sum_bond_order
 _atom_site_pbe_magmom
Na  Na0  1  0.37511993  0.97241890  0.64812096  1  0  0.897862  0  0.385513  0  0  0.8616  0  0.532085  0  0  0.87014  0  0.511273  0  0  0.661882  0.855102  0  0.547192  0
Na  Na1  1  0.62488654  0.02758152  0.35188083  1  0  0.897894  0  0.385495  0  0  0.861627  0  0.532059  0  0  0.87018  0  0.511235  0  0  0.661883  0.855131  0  0.547167  0
Na  Na2  1  0.06899593  0.26931004  0.56851757  1  0  0.898426  0  0.399767  0  0  0.860951  0  0.544686  0  0  0.870053  0  0.52337  0  0  0.700295  0.853868  0  0.560388  0
Na  Na3  1  0.93100813  0.73068491  0.43148319  1  0  0.89843  0  0.399745  0  0  0.860947  0  0.544689  0  0  0.870075  0  0.523324  0  0  0.700265  0.853855  0  0.560394  0
H  H4  1  0.41195812  0.34236689  0.60263531  1  0  0.41451  0  0.89317  0  0  0.385435  0  0.954364  0  0  0.395448  0  0.939567  0  0  0.292531  0.378373  0  0.964805  0
H  H5  1  0.58804847  0.65762955  0.39736735  1  0  0.414582  0  0.893063  0  0  0.385498  0  0.954272  0  0  0.39551  0  0.939475  0  0  0.292527  0.378432  0  0.96472  0
H  H6  1  0.44474014  0.31380074  0.46482550  1  0  0.419938  0  0.889164  0  0  0.389751  0  0.952832  0  0  0.401143  0  0.936105  0  0  0.289451  0.381672  0  0.964688  0
H  H7  1  0.55527018  0.68620094  0.53517272  1  0  0.419902  0  0.889218  0  0  0.389703  0  0.952912  0  0  0.401095  0  0.936185  0  0  0.28942  0.381624  0  0.964765  0
H  H8  1  0.97205865  0.01426795  0.79371756  1  0  0.411848  0  0.85274  0  0  0.390002  0  0.917454  0  0  0.398694  0  0.904441  0  0  0.30963  0.383792  0  0.926763  0
H  H9  1  0.02795059  0.98572704  0.20628146  1  0  0.411918  0  0.852765  0  0  0.390091  0  0.917359  0  0  0.398788  0  0.904339  0  0  0.309654  0.383881  0  0.926669  0
H  H10  1  0.99114431  0.90372286  0.69424676  1  0  0.42686  0  0.879111  0  0  0.396432  0  0.942399  0  0  0.406409  0  0.927855  0  0  0.294445  0.389403  0  0.952631  0
H  H11  1  0.00886727  0.09628009  0.30574921  1  0  0.42686  0  0.879102  0  0  0.396379  0  0.942452  0  0  0.406355  0  0.92791  0  0  0.294455  0.389351  0  0.952685  0
H  H12  1  0.71979933  0.12201955  0.55807828  1  0  0.425908  0  0.880178  0  0  0.398985  0  0.937293  0  0  0.409366  0  0.921992  0  0  0.288682  0.391633  0  0.948127  0
H  H13  1  0.28020708  0.87798335  0.44191945  1  0  0.42594  0  0.880129  0  0  0.399012  0  0.937251  0  0  0.409394  0  0.92195  0  0  0.288692  0.391661  0  0.948082  0
H  H14  1  0.75138233  0.91356072  0.59714154  1  0  0.416732  0  0.889791  0  0  0.388887  0  0.949822  0  0  0.398897  0  0.934852  0  0  0.293596  0.38182  0  0.960377  0
H  H15  1  0.24862150  0.08644201  0.40285400  1  0  0.416759  0  0.889739  0  0  0.388897  0  0.949805  0  0  0.398908  0  0.934834  0  0  0.293593  0.381831  0  0.96036  0
H  H16  1  0.33881662  0.00522704  0.92162194  1  0  0.406489  0  0.85416  0  0  0.391082  0  0.911896  0  0  0.398766  0  0.901032  0  0  0.305311  0.385615  0  0.918622  0
H  H17  1  0.66118604  0.99477078  0.07838370  1  0  0.406564  0  0.854218  0  0  0.391123  0  0.912016  0  0  0.398811  0  0.901016  0  0  0.305237  0.38565  0  0.918752  0
H  H18  1  0.43391784  0.16245707  0.81028770  1  0  0.415341  0  0.896169  0  0  0.380459  0  0.967165  0  0  0.391966  0  0.95018  0  0  0.281683  0.372317  0  0.979168  0
H  H19  1  0.56608095  0.83754057  0.18971599  1  0  0.415354  0  0.896169  0  0  0.380498  0  0.967139  0  0  0.39201  0  0.950146  0  0  0.28169  0.37236  0  0.979135  0
H  H20  1  0.67864441  0.36680706  0.61479923  1  0  0.428407  0  0.873835  0  0  0.394781  0  0.941084  0  0  0.405659  0  0.925146  0  0  0.295911  0.387107  0  0.952312  0
H  H21  1  0.32136214  0.63319079  0.38520489  1  0  0.428373  0  0.873887  0  0  0.394745  0  0.941136  0  0  0.405623  0  0.925198  0  0  0.295898  0.387069  0  0.952368  0
H  H22  1  0.80352305  0.39996831  0.47502816  1  0  0.411497  0  0.893471  0  0  0.375363  0  0.969644  0  0  0.386891  0  0.952333  0  0  0.293479  0.367171  0  0.981934  0
H  H23  1  0.19647954  0.60003204  0.52497429  1  0  0.411475  0  0.893505  0  0  0.375327  0  0.96969  0  0  0.386852  0  0.952383  0  0  0.293465  0.367135  0  0.981977  0
H  H24  1  0.31665578  0.20321291  0.18735683  1  0  0.094883  0  0.972691  0  0  0.103078  0  1.039407  0  0  0.107007  0  1.035781  0  0  0.106339  0.100219  0  1.042051  0
H  H25  1  0.68334526  0.79679533  0.81264323  1  0  0.094864  0  0.972656  0  0  0.103042  0  1.039395  0  0  0.106967  0  1.035767  0  0  0.106329  0.100186  0  1.042041  0
H  H26  1  0.47399394  0.24593865  0.96578972  1  0  0.08782  0  0.976633  0  0  0.097341  0  1.042148  0  0  0.100901  0  1.040204  0  0  0.098171  0.094788  0  1.043635  0
H  H27  1  0.52599719  0.75405600  0.03421149  1  0  0.087823  0  0.976715  0  0  0.097378  0  1.042184  0  0  0.100937  0  1.040241  0  0  0.098169  0.094811  0  1.043684  0
H  H28  1  0.19417972  0.73691432  0.85777762  1  0  0.096181  0  0.98499  0  0  0.102401  0  1.058305  0  0  0.106837  0  1.055149  0  0  0.104336  0.099109  0  1.060812  0
H  H29  1  0.80581394  0.26308182  0.14222548  1  0  0.096198  0  0.984817  0  0  0.102402  0  1.058154  0  0  0.106838  0  1.055  0  0  0.104325  0.099106  0  1.060667  0
H  H30  1  0.96095366  0.80029243  0.01594348  1  0  0.289548  0  0.924463  0  0  0.282712  0  0.982905  0  0  0.287765  0  0.979745  0  0  0.293099  0.279085  0  0.985185  0
H  H31  1  0.03904362  0.19971276  0.98405084  1  0  0.289494  0  0.924345  0  0  0.282635  0  0.982841  0  0  0.287687  0  0.979682  0  0  0.293111  0.279015  0  0.985102  0
H  H32  1  0.94171889  0.69430344  0.17342057  1  0  0.313174  0  0.943292  0  0  0.299199  0  1.004355  0  0  0.306873  0  0.99786  0  0  0.294461  0.293753  0  1.008886  0
H  H33  1  0.05827174  0.30570703  0.82657543  1  0  0.313139  0  0.94331  0  0  0.299213  0  1.004294  0  0  0.306872  0  0.997822  0  0  0.294467  0.293767  0  1.00883  0
C  C34  1  0.06278393  0.40245539  0.28472228  1  0  0.681517  0  3.879009  0  0  0.629047  0  4.175144  0  0  0.663626  0  4.165883  0  0  0.212382  0.60563  0  4.180719  0
C  C35  1  0.93720336  0.59753784  0.71527901  1  0  0.68153  0  3.87889  0  0  0.628976  0  4.175157  0  0  0.663552  0  4.1659  0  0  0.21233  0.605551  0  4.18074  0
C  C36  1  0.42642851  0.51639835  0.75971354  1  0  0.675057  0  3.868242  0  0  0.616628  0  4.172457  0  0  0.649934  0  4.164083  0  0  0.222742  0.594117  0  4.177289  0
C  C37  1  0.57357179  0.48359260  0.24028962  1  0  0.675175  0  3.868313  0  0  0.616761  0  4.172494  0  0  0.650069  0  4.164117  0  0  0.22281  0.594239  0  4.177317  0
C  C38  1  0.16386890  0.44453397  0.15105024  1  0  -0.192736  0  3.699757  0  0  -0.17258  0  3.935974  0  0  -0.184974  0  3.958891  0  0  -0.031261  -0.164505  0  3.920545  0
C  C39  1  0.83612207  0.55546590  0.84894807  1  0  -0.19273  0  3.69988  0  0  -0.172552  0  3.936105  0  0  -0.184952  0  3.959036  0  0  -0.031278  -0.164463  0  3.920693  0
C  C40  1  0.28737781  0.31932083  0.11476503  1  0  -0.067376  0  3.793135  0  0  -0.091918  0  4.049158  0  0  -0.089529  0  4.069009  0  0  -0.091786  -0.093222  0  4.035591  0
C  C41  1  0.71261040  0.68068331  0.88523984  1  0  -0.067386  0  3.793283  0  0  -0.091926  0  4.049343  0  0  -0.089538  0  4.069202  0  0  -0.09181  -0.09323  0  4.035775  0
C  C42  1  0.37461192  0.34141964  0.99015227  1  0  -0.130456  0  3.806183  0  0  -0.156996  0  4.065283  0  0  -0.162205  0  4.088195  0  0  -0.108232  -0.153569  0  4.049775  0
C  C43  1  0.62538013  0.65858692  0.00984526  1  0  -0.130445  0  3.806407  0  0  -0.156997  0  4.065455  0  0  -0.162205  0  4.088362  0  0  -0.108214  -0.15357  0  4.04993  0
C  C44  1  0.33890431  0.49230595  0.89631140  1  0  -0.03208  0  3.775018  0  0  -0.012572  0  4.014242  0  0  -0.014715  0  4.03522  0  0  -0.014206  -0.011078  0  3.99993  0
C  C45  1  0.66109022  0.50770343  0.10368773  1  0  -0.032114  0  3.775047  0  0  -0.012598  0  4.014232  0  0  -0.014742  0  4.03521  0  0  -0.0142  -0.011043  0  3.99983  0
C  C46  1  0.22167988  0.62016429  0.93059581  1  0  -0.185711  0  3.688364  0  0  -0.210795  0  3.935274  0  0  -0.21753  0  3.955882  0  0  -0.09426  -0.206234  0  3.921487  0
C  C47  1  0.77831480  0.37984099  0.06940156  1  0  -0.185777  0  3.688085  0  0  -0.210826  0  3.934948  0  0  -0.217561  0  3.955559  0  0  -0.094306  -0.206262  0  3.921155  0
C  C48  1  0.13420700  0.60147506  0.05705252  1  0  0.314896  0  3.789551  0  0  0.307108  0  4.036729  0  0  0.318483  0  4.057349  0  0  0.104699  0.299452  0  4.022476  0
C  C49  1  0.86579170  0.39852618  0.94294243  1  0  0.314913  0  3.789532  0  0  0.307111  0  4.03672  0  0  0.318487  0  4.057341  0  0  0.10477  0.299412  0  4.022532  0
N  N50  1  0.02262982  0.73656544  0.08577519  1  0  -0.680649  0  3.093052  0  0  -0.650706  0  3.316284  0  0  -0.670363  0  3.315844  0  0  -0.602003  -0.636674  0  3.31616  0
N  N51  1  0.97736482  0.26344113  0.91422102  1  0  -0.680486  0  3.092971  0  0  -0.650575  0  3.31624  0  0  -0.670215  0  3.315826  0  0  -0.602002  -0.636536  0  3.316129  0
O  O52  1  0.36104808  0.29283975  0.54883421  1  0  -0.930991  0  1.802329  0  0  -0.884718  0  1.98399  0  0  -0.901352  0  1.949844  0  0  -0.713821  -0.872814  0  2.00793  0
O  O53  1  0.63896254  0.70715270  0.45116691  1  0  -0.931037  0  1.802229  0  0  -0.884713  0  1.983834  0  0  -0.901356  0  1.949688  0  0  -0.713799  -0.87281  0  2.007778  0
O  O54  1  0.04989667  0.99084016  0.71946844  1  0  -0.889895  0  1.77971  0  0  -0.849139  0  1.955996  0  0  -0.863822  0  1.923906  0  0  -0.668451  -0.838634  0  1.978545  0
O  O55  1  0.95011242  0.00916009  0.28052855  1  0  -0.890004  0  1.779661  0  0  -0.849221  0  1.955887  0  0  -0.863915  0  1.923794  0  0  -0.66849  -0.838717  0  1.978434  0
O  O56  1  0.67770904  0.00761383  0.55551660  1  0  -0.926191  0  1.765545  0  0  -0.88272  0  1.938838  0  0  -0.898916  0  1.906452  0  0  -0.700534  -0.871149  0  1.961494  0
O  O57  1  0.32229347  0.99238909  0.44448352  1  0  -0.926237  0  1.765418  0  0  -0.882758  0  1.938717  0  0  -0.898957  0  1.906327  0  0  -0.700525  -0.871193  0  1.961369  0
O  O58  1  0.40410888  0.03446601  0.83454526  1  0  -0.86038  0  1.753861  0  0  -0.820803  0  1.921813  0  0  -0.836185  0  1.892445  0  0  -0.648199  -0.809826  0  1.941373  0
O  O59  1  0.59589903  0.96552933  0.16546184  1  0  -0.860481  0  1.753943  0  0  -0.820919  0  1.921838  0  0  -0.836312  0  1.892342  0  0  -0.648151  -0.809946  0  1.941407  0
O  O60  1  0.77975206  0.31979110  0.56210116  1  0  -0.892436  0  1.88654  0  0  -0.840246  0  2.065106  0  0  -0.858191  0  2.029864  0  0  -0.645502  -0.827442  0  2.089771  0
O  O61  1  0.22025313  0.68020921  0.43789911  1  0  -0.892358  0  1.886566  0  0  -0.840148  0  2.065154  0  0  -0.858095  0  2.029915  0  0  -0.645465  -0.827344  0  2.089813  0
O  O62  1  0.08399839  0.24784801  0.35940692  1  0  -0.720345  0  1.994532  0  0  -0.652862  0  2.214788  0  0  -0.677065  0  2.201304  0  0  -0.376298  -0.635893  0  2.223588  0
O  O63  1  0.91599376  0.75215470  0.64059409  1  0  -0.72045  0  1.994323  0  0  -0.652972  0  2.214625  0  0  -0.677179  0  2.201144  0  0  -0.376292  -0.635993  0  2.223418  0
O  O64  1  0.95519987  0.51630336  0.32157141  1  0  -0.687283  0  1.97916  0  0  -0.632204  0  2.212987  0  0  -0.655584  0  2.200288  0  0  -0.374856  -0.615889  0  2.221286  0
O  O65  1  0.04477459  0.48368676  0.67842741  1  0  -0.687257  0  1.979284  0  0  -0.632089  0  2.213087  0  0  -0.655458  0  2.200389  0  0  -0.374846  -0.615773  0  2.221388  0
O  O66  1  0.49389527  0.37671409  0.72852600  1  0  -0.673765  0  2.033617  0  0  -0.591278  0  2.241195  0  0  -0.618828  0  2.230282  0  0  -0.308533  -0.572065  0  2.248239  0
O  O67  1  0.50610868  0.62328371  0.27147855  1  0  -0.673874  0  2.033492  0  0  -0.591406  0  2.241075  0  0  -0.618957  0  2.230155  0  0  -0.308602  -0.572193  0  2.248122  0
O  O68  1  0.42904307  0.66855997  0.68211559  1  0  -0.656577  0  1.962708  0  0  -0.601684  0  2.195258  0  0  -0.625578  0  2.184728  0  0  -0.365152  -0.585005  0  2.202033  0
O  O69  1  0.57095965  0.33143732  0.31787870  1  0  -0.656573  0  1.962982  0  0  -0.60169  0  2.195521  0  0  -0.625586  0  2.184992  0  0  -0.365139  -0.585019  0  2.202306  0
