# generated using pymatgen
data_SnH14C13SN3Cl
_symmetry_space_group_name_H-M   'P 1'
_cell_length_a   8.42523579
_cell_length_b   10.36544882
_cell_length_c   17.10501551
_cell_angle_alpha   90.00007141
_cell_angle_beta   91.59839348
_cell_angle_gamma   90.00006605
_symmetry_Int_Tables_number   1
_chemical_formula_structural   SnH14C13SN3Cl
_chemical_formula_sum   'Sn4 H56 C52 S4 N12 Cl4'
_cell_volume   1493.22285917
_cell_formula_units_Z   4
loop_
 _symmetry_equiv_pos_site_id
 _symmetry_equiv_pos_as_xyz
  1  'x, y, z'
loop_
 _atom_site_type_symbol
 _atom_site_label
 _atom_site_symmetry_multiplicity
 _atom_site_fract_x
 _atom_site_fract_y
 _atom_site_fract_z
 _atom_site_occupancy
 _atom_site_hle17_bader_spin_density
 _atom_site_hle17_ddec_charge
 _atom_site_hle17_ddec_spin_density
 _atom_site_hle17_ddec_sum_bond_order
 _atom_site_hle17_magmom
 _atom_site_hse06_10hf_bader_spin_density
 _atom_site_hse06_10hf_ddec_charge
 _atom_site_hse06_10hf_ddec_spin_density
 _atom_site_hse06_10hf_ddec_sum_bond_order
 _atom_site_hse06_10hf_magmom
 _atom_site_hse06_bader_spin_density
 _atom_site_hse06_ddec_charge
 _atom_site_hse06_ddec_spin_density
 _atom_site_hse06_ddec_sum_bond_order
 _atom_site_hse06_magmom
 _atom_site_pbe_bader_spin_density
 _atom_site_pbe_cm5_charge
 _atom_site_pbe_ddec_charge
 _atom_site_pbe_ddec_spin_density
 _atom_site_pbe_ddec_sum_bond_order
 _atom_site_pbe_magmom
Sn  Sn0  1  0.33884526  0.26938068  0.92866682  1  0  1.336523  0  3.000603  0  0  1.177527  0  3.49976  0  0  1.222713  0  3.484077  0  0  0.569376  1.146609  0  3.509961  0
Sn  Sn1  1  0.66115231  0.76937328  0.57133619  1  0  1.336628  0  3.000533  0  0  1.177661  0  3.499644  0  0  1.222864  0  3.483964  0  0  0.569406  1.146746  0  3.509844  0
Sn  Sn2  1  0.66115397  0.73062577  0.07133545  1  0  1.336561  0  3.000623  0  0  1.177596  0  3.499672  0  0  1.222781  0  3.483989  0  0  0.569396  1.146676  0  3.509871  0
Sn  Sn3  1  0.33884933  0.23062448  0.42866495  1  0  1.33657  0  3.000543  0  0  1.177565  0  3.499663  0  0  1.222745  0  3.483982  0  0  0.569379  1.146648  0  3.509863  0
H  H4  1  0.52157206  0.48521801  0.92845677  1  0  0.156975  0  1.012488  0  0  0.168556  0  1.080617  0  0  0.171623  0  1.081528  0  0  0.077598  0.166409  0  1.079994  0
H  H5  1  0.47842826  0.98521527  0.57154353  1  0  0.156963  0  1.012529  0  0  0.168532  0  1.080673  0  0  0.171599  0  1.081584  0  0  0.077585  0.166385  0  1.080051  0
H  H6  1  0.47843078  0.51478360  0.07154322  1  0  0.156963  0  1.012535  0  0  0.168536  0  1.080673  0  0  0.171604  0  1.081582  0  0  0.077572  0.166389  0  1.08005  0
H  H7  1  0.52157339  0.01478442  0.42845702  1  0  0.157  0  1.0125  0  0  0.168577  0  1.080631  0  0  0.171644  0  1.08154  0  0  0.077593  0.166429  0  1.08001  0
H  H8  1  0.35322490  0.50274147  0.86197915  1  0  0.155177  0  0.996803  0  0  0.168217  0  1.06189  0  0  0.170751  0  1.064215  0  0  0.080825  0.166232  0  1.060693  0
H  H9  1  0.64677709  0.00273794  0.63802141  1  0  0.155211  0  0.996795  0  0  0.168245  0  1.061897  0  0  0.170779  0  1.064222  0  0  0.080824  0.166259  0  1.060702  0
H  H10  1  0.64677796  0.49726111  0.13802026  1  0  0.155236  0  0.996755  0  0  0.168252  0  1.061869  0  0  0.170779  0  1.064219  0  0  0.080825  0.166267  0  1.060672  0
H  H11  1  0.35322574  0.99725982  0.36197975  1  0  0.155242  0  0.996762  0  0  0.168282  0  1.061844  0  0  0.170818  0  1.064168  0  0  0.080842  0.166296  0  1.060649  0
H  H12  1  0.52192116  0.41015219  0.83373512  1  0  0.145792  0  1.000321  0  0  0.162052  0  1.062992  0  0  0.164999  0  1.062987  0  0  0.079151  0.159894  0  1.06301  0
H  H13  1  0.47808019  0.91015157  0.66626748  1  0  0.145781  0  1.000387  0  0  0.162043  0  1.063059  0  0  0.164992  0  1.06305  0  0  0.079142  0.15989  0  1.063072  0
H  H14  1  0.47808165  0.58984847  0.16626662  1  0  0.145765  0  1.00031  0  0  0.162023  0  1.063  0  0  0.164974  0  1.062988  0  0  0.079127  0.159865  0  1.063017  0
H  H15  1  0.52192025  0.08984909  0.33373422  1  0  0.145811  0  1.00037  0  0  0.162071  0  1.063042  0  0  0.165019  0  1.063035  0  0  0.079154  0.159916  0  1.063057  0
H  H16  1  0.27051750  0.01861389  0.93111230  1  0  0.15456  0  1.001094  0  0  0.169892  0  1.060704  0  0  0.172006  0  1.063554  0  0  0.081032  0.168089  0  1.059431  0
H  H17  1  0.72948685  0.51860848  0.56888949  1  0  0.154555  0  1.001076  0  0  0.169877  0  1.060701  0  0  0.171992  0  1.06355  0  0  0.081015  0.168075  0  1.059428  0
H  H18  1  0.72948656  0.98138870  0.06888655  1  0  0.154573  0  1.001082  0  0  0.169849  0  1.060751  0  0  0.171963  0  1.0636  0  0  0.081005  0.168046  0  1.059478  0
H  H19  1  0.27051237  0.48138831  0.43111336  1  0  0.154563  0  1.00111  0  0  0.169847  0  1.060765  0  0  0.17196  0  1.063615  0  0  0.081012  0.168045  0  1.059491  0
H  H20  1  0.09320730  0.10734901  0.95142270  1  0  0.157616  0  0.980933  0  0  0.173849  0  1.040385  0  0  0.177117  0  1.040647  0  0  0.083322  0.171481  0  1.040261  0
H  H21  1  0.90679602  0.60735241  0.54857796  1  0  0.157628  0  0.980934  0  0  0.173873  0  1.040375  0  0  0.177142  0  1.040637  0  0  0.083316  0.171506  0  1.04025  0
H  H22  1  0.90679676  0.89265068  0.04857614  1  0  0.15766  0  0.980894  0  0  0.173868  0  1.04037  0  0  0.177137  0  1.040632  0  0  0.083342  0.1715  0  1.040246  0
H  H23  1  0.09320089  0.39264825  0.45142192  1  0  0.157685  0  0.98083  0  0  0.173889  0  1.040312  0  0  0.177159  0  1.040572  0  0  0.08333  0.171521  0  1.040188  0
H  H24  1  0.23981391  0.08000150  0.02771809  1  0  0.147624  0  1.030775  0  0  0.159523  0  1.099811  0  0  0.162808  0  1.100294  0  0  0.072923  0.15723  0  1.099329  0
H  H25  1  0.76019034  0.57999889  0.47228279  1  0  0.147645  0  1.030759  0  0  0.159545  0  1.099791  0  0  0.16283  0  1.100271  0  0  0.072923  0.157252  0  1.099308  0
H  H26  1  0.76019015  0.92000012  0.97228076  1  0  0.147604  0  1.030814  0  0  0.159503  0  1.09985  0  0  0.162788  0  1.100331  0  0  0.072907  0.157208  0  1.099368  0
H  H27  1  0.23981012  0.41999984  0.52771774  1  0  0.147606  0  1.030776  0  0  0.159502  0  1.09981  0  0  0.162786  0  1.100293  0  0  0.072918  0.157208  0  1.09933  0
H  H28  1  0.26640941  0.16114396  0.75769805  1  0  0.083296  0  0.951277  0  0  0.093086  0  1.012397  0  0  0.095728  0  1.010031  0  0  0.11753  0.091161  0  1.014136  0
H  H29  1  0.73358684  0.66114277  0.74230369  1  0  0.083228  0  0.951291  0  0  0.093005  0  1.012434  0  0  0.095668  0  1.010041  0  0  0.117507  0.09107  0  1.014181  0
H  H30  1  0.73358982  0.83885670  0.24230422  1  0  0.083286  0  0.951253  0  0  0.093073  0  1.012379  0  0  0.095743  0  1.009978  0  0  0.117535  0.091138  0  1.014127  0
H  H31  1  0.26641363  0.33885885  0.25769626  1  0  0.083244  0  0.951272  0  0  0.093043  0  1.012392  0  0  0.095713  0  1.009991  0  0  0.117508  0.091108  0  1.014142  0
H  H32  1  0.06443578  0.15568619  0.64860711  1  0  0.107769  0  0.995341  0  0  0.11508  0  1.061524  0  0  0.118211  0  1.060662  0  0  0.096307  0.112726  0  1.062627  0
H  H33  1  0.93556284  0.65568735  0.85139467  1  0  0.107734  0  0.995336  0  0  0.115045  0  1.061517  0  0  0.118175  0  1.060655  0  0  0.096296  0.112691  0  1.06262  0
H  H34  1  0.93556467  0.84431060  0.35139401  1  0  0.107751  0  0.995394  0  0  0.115071  0  1.061559  0  0  0.118199  0  1.060701  0  0  0.096307  0.112718  0  1.06266  0
H  H35  1  0.06443882  0.34431620  0.14860530  1  0  0.107779  0  0.995256  0  0  0.115084  0  1.061446  0  0  0.118214  0  1.060581  0  0  0.096257  0.112731  0  1.062549  0
H  H36  1  0.77918780  0.41517664  0.78516661  1  0  0.107482  0  0.94911  0  0  0.120865  0  1.005472  0  0  0.123513  0  1.005307  0  0  0.110447  0.118938  0  1.005975  0
H  H37  1  0.22081719  0.91517395  0.71483314  1  0  0.107452  0  0.949094  0  0  0.120827  0  1.005476  0  0  0.123477  0  1.005308  0  0  0.110406  0.1189  0  1.00598  0
H  H38  1  0.22081394  0.58482594  0.21482985  1  0  0.107453  0  0.949109  0  0  0.120836  0  1.005472  0  0  0.123485  0  1.005305  0  0  0.110428  0.11891  0  1.005973  0
H  H39  1  0.77918565  0.08482574  0.28516744  1  0  0.107461  0  0.949105  0  0  0.120838  0  1.005484  0  0  0.123487  0  1.005318  0  0  0.110421  0.11891  0  1.005987  0
H  H40  1  0.99388148  0.40876227  0.88828244  1  0  0.082383  0  0.965914  0  0  0.085886  0  1.039594  0  0  0.08865  0  1.037113  0  0  0.106511  0.083864  0  1.041423  0
H  H41  1  0.00611755  0.90875916  0.61171778  1  0  0.082409  0  0.965864  0  0  0.085918  0  1.039541  0  0  0.0887  0  1.037038  0  0  0.106532  0.083894  0  1.041374  0
H  H42  1  0.00611427  0.59124128  0.11171625  1  0  0.082414  0  0.965873  0  0  0.085882  0  1.039604  0  0  0.088659  0  1.037105  0  0  0.106518  0.083858  0  1.041438  0
H  H43  1  0.99388766  0.09123956  0.38828285  1  0  0.082367  0  0.965875  0  0  0.085862  0  1.039574  0  0  0.088638  0  1.037076  0  0  0.106508  0.083838  0  1.041407  0
H  H44  1  0.93886245  0.23937801  0.55082167  1  0  0.11539  0  0.973421  0  0  0.12429  0  1.03499  0  0  0.127715  0  1.033861  0  0  0.104298  0.121897  0  1.035953  0
H  H45  1  0.06113396  0.73937565  0.94917837  1  0  0.115409  0  0.973434  0  0  0.124327  0  1.034989  0  0  0.12775  0  1.033862  0  0  0.104285  0.121933  0  1.035951  0
H  H46  1  0.06113687  0.76062554  0.44917650  1  0  0.115444  0  0.973373  0  0  0.124314  0  1.034967  0  0  0.127739  0  1.033838  0  0  0.10428  0.12192  0  1.035929  0
H  H47  1  0.93886533  0.26062114  0.05082156  1  0  0.115465  0  0.973401  0  0  0.124388  0  1.034931  0  0  0.127814  0  1.033801  0  0  0.104317  0.121994  0  1.035895  0
H  H48  1  0.72305867  0.22468862  0.44982241  1  0  0.081084  0  0.937259  0  0  0.090543  0  1.000374  0  0  0.092322  0  0.999295  0  0  0.120171  0.089112  0  1.001475  0
H  H49  1  0.27694109  0.72468853  0.05017616  1  0  0.081092  0  0.937236  0  0  0.090532  0  1.000363  0  0  0.092311  0  0.999283  0  0  0.120159  0.089102  0  1.001463  0
H  H50  1  0.27693703  0.77531300  0.55017862  1  0  0.081068  0  0.937266  0  0  0.090525  0  1.000378  0  0  0.092304  0  0.999299  0  0  0.120159  0.089094  0  1.001478  0
H  H51  1  0.72306181  0.27531212  0.94982091  1  0  0.081121  0  0.937243  0  0  0.090607  0  1.000325  0  0  0.092385  0  0.999245  0  0  0.120179  0.089175  0  1.001427  0
H  H52  1  0.37669043  0.29108806  0.61267127  1  0  0.070787  0  0.976349  0  0  0.074665  0  1.050886  0  0  0.077203  0  1.049054  0  0  0.110458  0.072772  0  1.052271  0
H  H53  1  0.62330961  0.79108900  0.88732889  1  0  0.070798  0  0.976336  0  0  0.074678  0  1.050873  0  0  0.077218  0  1.04904  0  0  0.110452  0.072784  0  1.05226  0
H  H54  1  0.62330883  0.70891259  0.38732983  1  0  0.070808  0  0.97632  0  0  0.074697  0  1.050855  0  0  0.077237  0  1.04902  0  0  0.110463  0.072803  0  1.052243  0
H  H55  1  0.37669441  0.20891165  0.11267171  1  0  0.070839  0  0.976271  0  0  0.07473  0  1.050805  0  0  0.077269  0  1.04897  0  0  0.110479  0.072835  0  1.052193  0
H  H56  1  0.57644919  0.30801276  0.72107091  1  0  0.111063  0  0.959562  0  0  0.119836  0  1.023204  0  0  0.122761  0  1.02276  0  0  0.109729  0.117745  0  1.023734  0
H  H57  1  0.42354968  0.80801426  0.77892982  1  0  0.111084  0  0.959609  0  0  0.119851  0  1.023255  0  0  0.122779  0  1.022808  0  0  0.109739  0.117761  0  1.023783  0
H  H58  1  0.42355248  0.69198500  0.27892848  1  0  0.111161  0  0.959524  0  0  0.119882  0  1.023208  0  0  0.122808  0  1.022766  0  0  0.10976  0.117794  0  1.023731  0
H  H59  1  0.57645316  0.19198640  0.22107076  1  0  0.1111  0  0.959569  0  0  0.119876  0  1.023206  0  0  0.122803  0  1.022761  0  0  0.109747  0.117789  0  1.023726  0
C  C60  1  0.44860660  0.43854075  0.88267497  1  0  -0.677615  0  3.508313  0  0  -0.728557  0  3.751758  0  0  -0.743969  0  3.760365  0  0  -0.33419  -0.717477  0  3.74562  0
C  C61  1  0.55139125  0.93853623  0.61732642  1  0  -0.677656  0  3.508366  0  0  -0.728598  0  3.751815  0  0  -0.744024  0  3.760443  0  0  -0.334198  -0.717522  0  3.745669  0
C  C62  1  0.55139506  0.56146184  0.11732501  1  0  -0.677655  0  3.508279  0  0  -0.728579  0  3.75174  0  0  -0.743994  0  3.760335  0  0  -0.334162  -0.717504  0  3.745621  0
C  C63  1  0.44860801  0.06146249  0.38267467  1  0  -0.677723  0  3.508351  0  0  -0.728665  0  3.75178  0  0  -0.744082  0  3.760392  0  0  -0.334204  -0.717587  0  3.745638  0
C  C64  1  0.22049156  0.09753378  0.96502645  1  0  -0.676136  0  3.499525  0  0  -0.722902  0  3.736297  0  0  -0.738112  0  3.744262  0  0  -0.333216  -0.712129  0  3.731155  0
C  C65  1  0.77951293  0.59753028  0.53497423  1  0  -0.676165  0  3.499472  0  0  -0.722967  0  3.736264  0  0  -0.738179  0  3.744228  0  0  -0.333202  -0.712194  0  3.73112  0
C  C66  1  0.77951367  0.90246880  0.03497300  1  0  -0.67615  0  3.499476  0  0  -0.722853  0  3.736315  0  0  -0.738058  0  3.744277  0  0  -0.333192  -0.712078  0  3.731174  0
C  C67  1  0.22048634  0.40246844  0.46502628  1  0  -0.676187  0  3.499413  0  0  -0.722892  0  3.736248  0  0  -0.738098  0  3.74421  0  0  -0.333207  -0.712119  0  3.731107  0
C  C68  1  0.15567926  0.21529400  0.76082116  1  0  0.132201  0  3.70111  0  0  0.098232  0  3.95357  0  0  0.105781  0  3.969908  0  0  0.052556  0.093774  0  3.942459  0
C  C69  1  0.84431707  0.71529484  0.73918062  1  0  0.132485  0  3.701055  0  0  0.098529  0  3.953521  0  0  0.106065  0  3.969851  0  0  0.052745  0.094078  0  3.942413  0
C  C70  1  0.84431885  0.78470473  0.23917816  1  0  0.13237  0  3.701209  0  0  0.098421  0  3.953671  0  0  0.105951  0  3.969997  0  0  0.052676  0.093971  0  3.94256  0
C  C71  1  0.15568460  0.28470678  0.26081877  1  0  0.132362  0  3.701106  0  0  0.098375  0  3.953568  0  0  0.105903  0  3.969899  0  0  0.052663  0.093926  0  3.942456  0
C  C72  1  0.04223906  0.21301902  0.70056447  1  0  -0.146456  0  3.700736  0  0  -0.165987  0  3.950002  0  0  -0.172983  0  3.969772  0  0  -0.07947  -0.161915  0  3.937697  0
C  C73  1  0.95775729  0.71302009  0.79943614  1  0  -0.146411  0  3.700585  0  0  -0.165919  0  3.949804  0  0  -0.172916  0  3.96958  0  0  -0.079508  -0.161848  0  3.937499  0
C  C74  1  0.95775903  0.78697874  0.29943602  1  0  -0.146474  0  3.700606  0  0  -0.166008  0  3.949853  0  0  -0.173005  0  3.969632  0  0  -0.079511  -0.161937  0  3.937548  0
C  C75  1  0.04224079  0.28698346  0.20056434  1  0  -0.146461  0  3.700546  0  0  -0.165963  0  3.94976  0  0  -0.17296  0  3.969538  0  0  -0.079449  -0.16189  0  3.937456  0
C  C76  1  0.90162562  0.28379205  0.70771652  1  0  0.098933  0  3.750603  0  0  0.111233  0  3.979374  0  0  0.115485  0  3.9995  0  0  0.016366  0.10837  0  3.96569  0
C  C77  1  0.09837324  0.78379134  0.79228302  1  0  0.098826  0  3.750695  0  0  0.111142  0  3.979484  0  0  0.115394  0  3.99961  0  0  0.01634  0.10828  0  3.965798  0
C  C78  1  0.09837602  0.71620667  0.29228462  1  0  0.098912  0  3.750538  0  0  0.111221  0  3.979317  0  0  0.115473  0  3.999438  0  0  0.016389  0.108355  0  3.965646  0
C  C79  1  0.90162842  0.21620835  0.20771695  1  0  0.098862  0  3.750595  0  0  0.111173  0  3.979379  0  0  0.115425  0  3.999504  0  0  0.016355  0.108302  0  3.965708  0
C  C80  1  0.88439802  0.35648072  0.77620105  1  0  -0.144477  0  3.688594  0  0  -0.165471  0  3.939747  0  0  -0.172648  0  3.960374  0  0  -0.076528  -0.161234  0  3.926675  0
C  C81  1  0.11560331  0.85647795  0.72379859  1  0  -0.144407  0  3.688573  0  0  -0.165382  0  3.939701  0  0  -0.17256  0  3.960333  0  0  -0.076479  -0.161146  0  3.926631  0
C  C82  1  0.11560123  0.64351897  0.22380063  1  0  -0.144442  0  3.688533  0  0  -0.165419  0  3.939666  0  0  -0.172596  0  3.960295  0  0  -0.076518  -0.161183  0  3.926595  0
C  C83  1  0.88439953  0.14352174  0.27620140  1  0  -0.144393  0  3.688557  0  0  -0.165374  0  3.939705  0  0  -0.172552  0  3.960335  0  0  -0.076487  -0.161135  0  3.926636  0
C  C84  1  0.00373319  0.35402316  0.83400185  1  0  0.124884  0  3.702112  0  0  0.091016  0  3.957814  0  0  0.098359  0  3.974778  0  0  0.051743  0.086908  0  3.945998  0
C  C85  1  0.99626813  0.85402013  0.66599837  1  0  0.124861  0  3.70209  0  0  0.090988  0  3.957798  0  0  0.09832  0  3.974757  0  0  0.051704  0.08688  0  3.945984  0
C  C86  1  0.99626254  0.64597460  0.16599742  1  0  0.124869  0  3.701994  0  0  0.091025  0  3.957722  0  0  0.098361  0  3.974681  0  0  0.051711  0.086917  0  3.945905  0
C  C87  1  0.00373708  0.14597955  0.33400225  1  0  0.124899  0  3.701898  0  0  0.091027  0  3.957623  0  0  0.098364  0  3.974583  0  0  0.051725  0.086919  0  3.945807  0
C  C88  1  0.77707899  0.27767256  0.64540821  1  0  0.100884  0  3.733118  0  0  0.111655  0  3.961742  0  0  0.116423  0  3.981434  0  0  0.020157  0.109285  0  3.94854  0
C  C89  1  0.22291870  0.77767016  0.85459013  1  0  0.100907  0  3.733112  0  0  0.111601  0  3.961883  0  0  0.116365  0  3.981578  0  0  0.020136  0.109231  0  3.948679  0
C  C90  1  0.22292149  0.72232713  0.35459174  1  0  0.100918  0  3.733144  0  0  0.111653  0  3.961784  0  0  0.116422  0  3.981476  0  0  0.020123  0.109283  0  3.948579  0
C  C91  1  0.77708300  0.22232760  0.14540808  1  0  0.100942  0  3.733029  0  0  0.111645  0  3.961746  0  0  0.116412  0  3.981437  0  0  0.02014  0.109277  0  3.948543  0
C  C92  1  0.81625182  0.25301365  0.56758592  1  0  -0.139585  0  3.664875  0  0  -0.155358  0  3.906647  0  0  -0.162455  0  3.925394  0  0  -0.07136  -0.15152  0  3.895696  0
C  C93  1  0.18374581  0.75300848  0.93241299  1  0  -0.139645  0  3.664971  0  0  -0.155455  0  3.906821  0  0  -0.162552  0  3.925568  0  0  -0.071346  -0.151616  0  3.895868  0
C  C94  1  0.18374984  0.74698990  0.43241405  1  0  -0.139739  0  3.664997  0  0  -0.155456  0  3.906752  0  0  -0.162558  0  3.925498  0  0  -0.071381  -0.151616  0  3.895798  0
C  C95  1  0.81625351  0.24698735  0.06758518  1  0  -0.139718  0  3.664976  0  0  -0.155492  0  3.906758  0  0  -0.16259  0  3.925504  0  0  -0.071396  -0.151653  0  3.895805  0
C  C96  1  0.69623858  0.24398836  0.51064484  1  0  0.148912  0  3.689396  0  0  0.115177  0  3.940937  0  0  0.123233  0  3.957996  0  0  0.062034  0.109356  0  3.930778  0
C  C97  1  0.30375785  0.74398728  0.98935404  1  0  0.148931  0  3.689381  0  0  0.115237  0  3.940929  0  0  0.123293  0  3.957989  0  0  0.062036  0.109416  0  3.93077  0
C  C98  1  0.30376189  0.75601519  0.48935511  1  0  0.148914  0  3.68954  0  0  0.115193  0  3.941087  0  0  0.123251  0  3.958147  0  0  0.062055  0.109372  0  3.930929  0
C  C99  1  0.69624147  0.25601241  0.01064413  1  0  0.148827  0  3.68937  0  0  0.115105  0  3.940918  0  0  0.123163  0  3.957977  0  0  0.062018  0.109284  0  3.930759  0
C  C100  1  0.50281336  0.28170308  0.60148069  1  0  0.138658  0  3.701288  0  0  0.107431  0  3.948293  0  0  0.114785  0  3.9658  0  0  0.057808  0.102566  0  3.936861  0
C  C101  1  0.49718546  0.78170296  0.89852002  1  0  0.13858  0  3.701359  0  0  0.107345  0  3.948379  0  0  0.114698  0  3.965886  0  0  0.057759  0.102479  0  3.936948  0
C  C102  1  0.49718471  0.71829660  0.39852039  1  0  0.138604  0  3.701322  0  0  0.107364  0  3.948381  0  0  0.114718  0  3.965888  0  0  0.057769  0.102499  0  3.936948  0
C  C103  1  0.50281738  0.21829673  0.10147997  1  0  0.138489  0  3.701392  0  0  0.107249  0  3.948464  0  0  0.114602  0  3.965971  0  0  0.057733  0.102383  0  3.937033  0
C  C104  1  0.61580285  0.29270803  0.66170726  1  0  -0.139538  0  3.669791  0  0  -0.158376  0  3.918091  0  0  -0.165699  0  3.938125  0  0  -0.072394  -0.154289  0  3.905536  0
C  C105  1  0.38419720  0.79270864  0.83829231  1  0  -0.139466  0  3.669786  0  0  -0.15826  0  3.918106  0  0  -0.165586  0  3.938145  0  0  -0.072321  -0.154174  0  3.905551  0
C  C106  1  0.38419763  0.70728973  0.33829211  1  0  -0.139623  0  3.669774  0  0  -0.158388  0  3.918104  0  0  -0.165714  0  3.93814  0  0  -0.072366  -0.1543  0  3.905547  0
C  C107  1  0.61580564  0.20729008  0.16170768  1  0  -0.139506  0  3.669806  0  0  -0.158296  0  3.918114  0  0  -0.165621  0  3.938149  0  0  -0.072335  -0.154209  0  3.905558  0
C  C108  1  0.60982339  0.09383597  0.83702147  1  0  0.297439  0  4.07139  0  0  0.276008  0  4.377961  0  0  0.300601  0  4.391174  0  0  0.146421  0.259695  0  4.368179  0
C  C109  1  0.39014913  0.59382079  0.66297451  1  0  0.297384  0  4.071384  0  0  0.275939  0  4.37797  0  0  0.300535  0  4.391194  0  0  0.146384  0.259623  0  4.368185  0
C  C110  1  0.39017477  0.90616468  0.16297551  1  0  0.29746  0  4.071254  0  0  0.276027  0  4.377832  0  0  0.300618  0  4.391044  0  0  0.146422  0.259713  0  4.368052  0
C  C111  1  0.60982516  0.40616539  0.33702787  1  0  0.297409  0  4.071628  0  0  0.27597  0  4.378193  0  0  0.300562  0  4.391404  0  0  0.146404  0.259656  0  4.368408  0
S  S112  1  0.77493182  0.02094676  0.82396231  1  0  -0.321838  0  2.060107  0  0  -0.301326  0  2.345103  0  0  -0.318286  0  2.34801  0  0  -0.146934  -0.289355  0  2.343252  0
S  S113  1  0.22505119  0.52094496  0.67603791  1  0  -0.321594  0  2.060537  0  0  -0.301064  0  2.345509  0  0  -0.31801  0  2.348403  0  0  -0.146822  -0.289097  0  2.343654  0
S  S114  1  0.22506981  0.97905292  0.17603883  1  0  -0.321825  0  2.060077  0  0  -0.301322  0  2.345082  0  0  -0.318277  0  2.347982  0  0  -0.146954  -0.289353  0  2.343232  0
S  S115  1  0.77493385  0.47905473  0.32396175  1  0  -0.321806  0  2.059957  0  0  -0.301282  0  2.34493  0  0  -0.318245  0  2.347844  0  0  -0.146914  -0.289307  0  2.343077  0
N  N116  1  0.13695932  0.28390855  0.82662614  1  0  -0.320095  0  3.268571  0  0  -0.235637  0  3.507993  0  0  -0.253252  0  3.529021  0  0  -0.288953  -0.22341  0  3.492589  0
N  N117  1  0.86303949  0.78390831  0.67337573  1  0  -0.32027  0  3.268678  0  0  -0.235845  0  3.508137  0  0  -0.253465  0  3.52918  0  0  -0.289047  -0.223616  0  3.492729  0
N  N118  1  0.86304111  0.71609307  0.17337614  1  0  -0.320187  0  3.268847  0  0  -0.235772  0  3.508305  0  0  -0.253387  0  3.529343  0  0  -0.289013  -0.223541  0  3.492893  0
N  N119  1  0.13696455  0.21609428  0.32662370  1  0  -0.320224  0  3.268544  0  0  -0.235771  0  3.507975  0  0  -0.253389  0  3.529019  0  0  -0.289012  -0.22354  0  3.492563  0
N  N120  1  0.54205380  0.25800796  0.52709861  1  0  -0.326584  0  3.266013  0  0  -0.239042  0  3.498796  0  0  -0.25773  0  3.521034  0  0  -0.2893  -0.226292  0  3.483862  0
N  N121  1  0.45794383  0.75800796  0.97290089  1  0  -0.326585  0  3.266007  0  0  -0.239048  0  3.498802  0  0  -0.257736  0  3.52104  0  0  -0.289305  -0.226299  0  3.483868  0
N  N122  1  0.45794546  0.74199269  0.47290248  1  0  -0.326477  0  3.266038  0  0  -0.239004  0  3.498932  0  0  -0.257691  0  3.521167  0  0  -0.289304  -0.226256  0  3.484  0
N  N123  1  0.54205548  0.24199270  0.02709787  1  0  -0.32641  0  3.265939  0  0  -0.238952  0  3.498845  0  0  -0.25764  0  3.521084  0  0  -0.28927  -0.226202  0  3.483908  0
N  N124  1  0.48587704  0.14792620  0.84508953  1  0  -0.602439  0  2.926656  0  0  -0.538507  0  3.190594  0  0  -0.560894  0  3.198903  0  0  -0.382572  -0.52296  0  3.184296  0
N  N125  1  0.51410981  0.64792462  0.65490676  1  0  -0.602632  0  2.926256  0  0  -0.538674  0  3.190168  0  0  -0.561086  0  3.198512  0  0  -0.382633  -0.523121  0  3.183862  0
N  N126  1  0.51412581  0.85207639  0.15491047  1  0  -0.602473  0  2.926641  0  0  -0.538526  0  3.190547  0  0  -0.56093  0  3.198887  0  0  -0.382542  -0.522977  0  3.184244  0
N  N127  1  0.48587888  0.35207796  0.34508887  1  0  -0.602427  0  2.92701  0  0  -0.538489  0  3.190931  0  0  -0.560879  0  3.199243  0  0  -0.382574  -0.522953  0  3.184655  0
Cl  Cl128  1  0.18590559  0.41324126  0.02292922  1  0  -0.560721  0  0.869871  0  0  -0.503485  0  1.105607  0  0  -0.516787  0  1.092094  0  0  -0.251817  -0.493556  0  1.115473  0
Cl  Cl129  1  0.81409319  0.91323678  0.47707298  1  0  -0.560767  0  0.869797  0  0  -0.503517  0  1.105507  0  0  -0.516821  0  1.091998  0  0  -0.251847  -0.493589  0  1.115374  0
Cl  Cl130  1  0.81409722  0.58676036  0.97707253  1  0  -0.560747  0  0.8698  0  0  -0.503509  0  1.105513  0  0  -0.51681  0  1.092001  0  0  -0.251843  -0.49358  0  1.11538  0
Cl  Cl131  1  0.18590730  0.08676195  0.52292639  1  0  -0.560729  0  0.869793  0  0  -0.503484  0  1.105508  0  0  -0.516785  0  1.091998  0  0  -0.251832  -0.493556  0  1.115375  0
