# generated using pymatgen
data_AgH5C7N3(OF)3
_symmetry_space_group_name_H-M   'P 1'
_cell_length_a   7.06340117
_cell_length_b   7.15133778
_cell_length_c   10.66240305
_cell_angle_alpha   92.40741424
_cell_angle_beta   95.87774389
_cell_angle_gamma   114.49636356
_symmetry_Int_Tables_number   1
_chemical_formula_structural   AgH5C7N3(OF)3
_chemical_formula_sum   'Ag2 H10 C14 N6 O6 F6'
_cell_volume   485.40414065
_cell_formula_units_Z   2
loop_
 _symmetry_equiv_pos_site_id
 _symmetry_equiv_pos_as_xyz
  1  'x, y, z'
loop_
 _atom_site_type_symbol
 _atom_site_label
 _atom_site_symmetry_multiplicity
 _atom_site_fract_x
 _atom_site_fract_y
 _atom_site_fract_z
 _atom_site_occupancy
 _atom_site_hle17_bader_spin_density
 _atom_site_hle17_ddec_charge
 _atom_site_hle17_ddec_spin_density
 _atom_site_hle17_ddec_sum_bond_order
 _atom_site_hle17_magmom
 _atom_site_hse06_10hf_bader_spin_density
 _atom_site_hse06_10hf_ddec_charge
 _atom_site_hse06_10hf_ddec_spin_density
 _atom_site_hse06_10hf_ddec_sum_bond_order
 _atom_site_hse06_10hf_magmom
 _atom_site_hse06_bader_spin_density
 _atom_site_hse06_ddec_charge
 _atom_site_hse06_ddec_spin_density
 _atom_site_hse06_ddec_sum_bond_order
 _atom_site_hse06_magmom
 _atom_site_pbe_bader_spin_density
 _atom_site_pbe_cm5_charge
 _atom_site_pbe_ddec_charge
 _atom_site_pbe_ddec_spin_density
 _atom_site_pbe_ddec_sum_bond_order
 _atom_site_pbe_magmom
Ag  Ag0  1  0.68043357  0.44375780  0.47241115  1  0  0.597525  0  1.316937  0  0  0.469992  0  1.749049  0  0  0.504135  0  1.697065  0  0  0.436442  0.446428  0  1.785075  0
Ag  Ag1  1  0.31956937  0.55624256  0.52758721  1  0  0.597582  0  1.316826  0  0  0.470063  0  1.748925  0  0  0.504207  0  1.696941  0  0  0.436479  0.446503  0  1.784949  0
H  H2  1  0.19416934  0.35212817  0.79500654  1  0  0.3625  0  0.886874  0  0  0.34006  0  0.955308  0  0  0.349207  0  0.947177  0  0  0.304289  0.333624  0  0.961013  0
H  H3  1  0.80584496  0.64787510  0.20498712  1  0  0.362538  0  0.886906  0  0  0.340072  0  0.955383  0  0  0.349218  0  0.94725  0  0  0.3043  0.333636  0  0.961088  0
H  H4  1  0.96819471  0.19847067  0.86555750  1  0  0.338963  0  0.895798  0  0  0.308369  0  0.982344  0  0  0.31749  0  0.972947  0  0  0.302155  0.30225  0  0.988283  0
H  H5  1  0.03180888  0.80153113  0.13444378  1  0  0.338997  0  0.895875  0  0  0.308411  0  0.982381  0  0  0.317529  0  0.97299  0  0  0.302205  0.302294  0  0.988317  0
H  H6  1  0.23857254  0.10715932  0.53045636  1  0  0.088758  0  0.923686  0  0  0.099694  0  0.984861  0  0  0.102375  0  0.981705  0  0  0.120725  0.097651  0  0.987351  0
H  H7  1  0.76142386  0.89282696  0.46954659  1  0  0.088796  0  0.923706  0  0  0.099735  0  0.984872  0  0  0.102416  0  0.981715  0  0  0.120724  0.097689  0  0.987361  0
H  H8  1  0.36005566  0.85435748  0.87501433  1  0  0.091055  0  0.906908  0  0  0.097068  0  0.9684  0  0  0.100511  0  0.964467  0  0  0.117747  0.094544  0  0.971226  0
H  H9  1  0.63994995  0.14563946  0.12498877  1  0  0.091121  0  0.90678  0  0  0.097131  0  0.968281  0  0  0.100579  0  0.964349  0  0  0.117775  0.094607  0  0.971106  0
H  H10  1  0.09355089  0.86769303  0.69970978  1  0  0.139621  0  0.978975  0  0  0.145189  0  1.040412  0  0  0.149973  0  1.037909  0  0  0.109322  0.141861  0  1.042205  0
H  H11  1  0.90645325  0.13230075  0.30029496  1  0  0.139572  0  0.979076  0  0  0.145173  0  1.040472  0  0  0.149958  0  1.037966  0  0  0.109321  0.141845  0  1.042264  0
C  C12  1  0.64583469  0.63790751  0.75208038  1  0  0.491286  0  4.050564  0  0  0.432571  0  4.358792  0  0  0.463038  0  4.355054  0  0  0.184463  0.412372  0  4.359707  0
C  C13  1  0.35414910  0.36207923  0.24792262  1  0  0.491436  0  4.050683  0  0  0.43274  0  4.358914  0  0  0.463206  0  4.355172  0  0  0.184537  0.412553  0  4.359805  0
C  C14  1  0.75065241  0.66819851  0.89179655  1  0  0.67207  0  3.62537  0  0  0.598805  0  3.974211  0  0  0.627047  0  3.945481  0  0  0.293643  0.579773  0  3.992732  0
C  C15  1  0.24933873  0.33181020  0.10820037  1  0  0.671998  0  3.625121  0  0  0.598601  0  3.974163  0  0  0.626858  0  3.945413  0  0  0.293535  0.579562  0  3.992692  0
C  C16  1  0.67640560  0.16161775  0.69601865  1  0  0.256593  0  3.744071  0  0  0.246288  0  3.992898  0  0  0.254793  0  4.009244  0  0  0.243438  0.240599  0  3.981757  0
C  C17  1  0.32360218  0.83838388  0.30398292  1  0  0.256686  0  3.74403  0  0  0.24639  0  3.992823  0  0  0.254901  0  4.009171  0  0  0.243494  0.240692  0  3.981687  0
C  C18  1  0.34077817  0.08447645  0.60636657  1  0  0.183845  0  3.659197  0  0  0.145537  0  3.922429  0  0  0.155609  0  3.937046  0  0  0.065949  0.138872  0  3.912956  0
C  C19  1  0.65921136  0.91551648  0.39363334  1  0  0.183674  0  3.659576  0  0  0.145349  0  3.922826  0  0  0.155423  0  3.937446  0  0  0.065919  0.138692  0  3.913344  0
C  C20  1  0.40860975  0.94637855  0.79538533  1  0  0.190647  0  3.652522  0  0  0.155456  0  3.925001  0  0  0.165759  0  3.936828  0  0  0.067843  0.148703  0  3.917121  0
C  C21  1  0.59139576  0.05361825  0.20462151  1  0  0.190603  0  3.652336  0  0  0.15538  0  3.924852  0  0  0.165678  0  3.936681  0  0  0.067821  0.148623  0  3.916972  0
C  C22  1  0.26213505  0.95557437  0.70054362  1  0  -0.150524  0  3.647115  0  0  -0.163405  0  3.903931  0  0  -0.171738  0  3.920292  0  0  -0.075697  -0.158218  0  3.893386  0
C  C23  1  0.73787046  0.04442243  0.29946322  1  0  -0.150437  0  3.64735  0  0  -0.163311  0  3.904137  0  0  -0.171646  0  3.920498  0  0  -0.075681  -0.158122  0  3.893588  0
C  C24  1  0.90968267  0.26896481  0.68805665  1  0  0.562169  0  3.84017  0  0  0.515889  0  4.114777  0  0  0.54394  0  4.116262  0  0  0.24679  0.496881  0  4.113141  0
C  C25  1  0.09031664  0.73103702  0.31194807  1  0  0.562142  0  3.840157  0  0  0.515919  0  4.114669  0  0  0.543952  0  4.11619  0  0  0.246842  0.496918  0  4.113028  0
N  N26  1  0.54828297  0.18863509  0.60376218  1  0  -0.364398  0  3.28234  0  0  -0.293629  0  3.556938  0  0  -0.314036  0  3.573067  0  0  -0.324911  -0.27985  0  3.546043  0
N  N27  1  0.45170798  0.81136403  0.39623902  1  0  -0.36427  0  3.282509  0  0  -0.293529  0  3.557144  0  0  -0.313936  0  3.573272  0  0  -0.324914  -0.279755  0  3.546253  0
N  N28  1  0.61605438  0.04829369  0.79312884  1  0  -0.350604  0  3.046741  0  0  -0.319836  0  3.31852  0  0  -0.332977  0  3.330876  0  0  -0.309679  -0.310885  0  3.310019  0
N  N29  1  0.38394501  0.95171138  0.20687320  1  0  -0.350668  0  3.046585  0  0  -0.319913  0  3.318383  0  0  -0.333053  0  3.330737  0  0  -0.309711  -0.310955  0  3.309881  0
N  N30  1  0.03480164  0.27262924  0.79143619  1  0  -0.653884  0  3.118674  0  0  -0.620814  0  3.365604  0  0  -0.643074  0  3.358528  0  0  -0.557863  -0.604949  0  3.369426  0
N  N31  1  0.96520285  0.72737439  0.20855772  1  0  -0.654022  0  3.118747  0  0  -0.620962  0  3.365692  0  0  -0.643218  0  3.358622  0  0  -0.557997  -0.605096  0  3.369512  0
O  O32  1  0.76559263  0.70740144  0.66995977  1  0  -0.564473  0  2.051889  0  0  -0.520183  0  2.303876  0  0  -0.545162  0  2.29497  0  0  -0.307899  -0.502351  0  2.308927  0
O  O33  1  0.23439921  0.29259330  0.33003193  1  0  -0.564517  0  2.052339  0  0  -0.520253  0  2.304334  0  0  -0.545223  0  2.295424  0  0  -0.307976  -0.50243  0  2.309381  0
O  O34  1  0.44803384  0.53859184  0.73765552  1  0  -0.588039  0  2.124507  0  0  -0.532899  0  2.387066  0  0  -0.561561  0  2.379293  0  0  -0.315961  -0.512672  0  2.391219  0
O  O35  1  0.55196420  0.46140715  0.26234243  1  0  -0.588068  0  2.124298  0  0  -0.532907  0  2.386811  0  0  -0.561577  0  2.379046  0  0  -0.31593  -0.512679  0  2.390951  0
O  O36  1  0.97165917  0.34558177  0.58842137  1  0  -0.556059  0  2.062702  0  0  -0.486995  0  2.319114  0  0  -0.513771  0  2.309913  0  0  -0.296317  -0.468353  0  2.325104  0
O  O37  1  0.02833257  0.65441900  0.41157714  1  0  -0.556037  0  2.062873  0  0  -0.486966  0  2.319212  0  0  -0.513731  0  2.310021  0  0  -0.296298  -0.468326  0  2.325201  0
F  F38  1  0.75805881  0.48847569  0.92560735  1  0  -0.250429  0  1.166341  0  0  -0.207008  0  1.327304  0  0  -0.220188  0  1.316091  0  0  -0.108418  -0.200023  0  1.337706  0
F  F39  1  0.24195625  0.51153850  0.07438774  1  0  -0.250473  0  1.166336  0  0  -0.206972  0  1.327293  0  0  -0.220159  0  1.316088  0  0  -0.108409  -0.199986  0  1.337697  0
F  F40  1  0.95283628  0.81592291  0.91090689  1  0  -0.253409  0  1.19296  0  0  -0.206623  0  1.360244  0  0  -0.219829  0  1.347912  0  0  -0.09604  -0.199581  0  1.371496  0
F  F41  1  0.04715522  0.18409876  0.08908026  1  0  -0.253361  0  1.192961  0  0  -0.206511  0  1.36025  0  0  -0.21974  0  1.347935  0  0  -0.095955  -0.199469  0  1.371505  0
F  F42  1  0.64507457  0.72212900  0.97575243  1  0  -0.243242  0  1.19197  0  0  -0.203578  0  1.361442  0  0  -0.211585  0  1.344839  0  0  -0.100037  -0.196731  0  1.371989  0
F  F43  1  0.35492762  0.27787285  0.02424875  1  0  -0.243264  0  1.191819  0  0  -0.203587  0  1.361329  0  0  -0.211595  0  1.344723  0  0  -0.100066  -0.196739  0  1.37188  0
