# generated using pymatgen
data_SmH7C11N3O7
_symmetry_space_group_name_H-M   'P 1'
_cell_length_a   8.19998672
_cell_length_b   11.65823273
_cell_length_c   15.09865303
_cell_angle_alpha   89.99981677
_cell_angle_beta   90.00001008
_cell_angle_gamma   92.15880317
_symmetry_Int_Tables_number   1
_chemical_formula_structural   SmH7C11N3O7
_chemical_formula_sum   'Sm4 H28 C44 N12 O28'
_cell_volume   1442.36683933
_cell_formula_units_Z   4
loop_
 _symmetry_equiv_pos_site_id
 _symmetry_equiv_pos_as_xyz
  1  'x, y, z'
loop_
 _atom_site_type_symbol
 _atom_site_label
 _atom_site_symmetry_multiplicity
 _atom_site_fract_x
 _atom_site_fract_y
 _atom_site_fract_z
 _atom_site_occupancy
 _atom_site_pbe_bader_charge
 _atom_site_pbe_bader_spin_density
 _atom_site_pbe_cm5_charge
 _atom_site_pbe_ddec_charge
 _atom_site_pbe_ddec_spin_density
 _atom_site_pbe_ddec_sum_bond_order
 _atom_site_pbe_magmom
Sm  Sm0  1  0.77997144  0.92543155  0.86963871  1  2.230343  0  1.500238  2.087774  0  2.182734  0
Sm  Sm1  1  0.22002684  0.57456776  0.36963889  1  2.230317  0  1.50025  2.087702  0  2.182783  0
Sm  Sm2  1  0.22003297  0.07456780  0.13036055  1  2.230322  0  1.500213  2.087692  0  2.182865  0
Sm  Sm3  1  0.77996784  0.42543237  0.63036037  1  2.230361  0  1.500184  2.087712  0  2.182841  0
H  H4  1  0.16252838  0.85522087  0.55638633  1  0.510712  0  0.349355  0.316649  0  0.877295  0
H  H5  1  0.83747241  0.64478233  0.05638705  1  0.510765  0  0.349336  0.316595  0  0.877398  0
H  H6  1  0.83747106  0.14477587  0.44361294  1  0.5107  0  0.349369  0.316647  0  0.877285  0
H  H7  1  0.16252982  0.35522387  0.94361420  1  0.510625  0  0.349353  0.316644  0  0.877297  0
H  H8  1  0.53444076  0.96145096  0.72732464  1  0.617094  0  0.315059  0.404853  0  0.898784  0
H  H9  1  0.46555748  0.53854808  0.22732559  1  0.617061  0  0.315067  0.404863  0  0.898775  0
H  H10  1  0.46556006  0.03855008  0.27267728  1  0.617067  0  0.315081  0.404856  0  0.898775  0
H  H11  1  0.53443958  0.46145035  0.77267566  1  0.617089  0  0.315055  0.40485  0  0.898785  0
H  H12  1  0.46646767  0.83947131  0.77305337  1  0.62565  0  0.283481  0.342301  0  1.025584  0
H  H13  1  0.53353179  0.66052755  0.27305403  1  0.625654  0  0.283485  0.342318  0  1.02556  0
H  H14  1  0.53353312  0.16052887  0.22694722  1  0.62565  0  0.28348  0.342312  0  1.025566  0
H  H15  1  0.46646533  0.33947260  0.72694524  1  0.6257  0  0.283473  0.342293  0  1.025597  0
H  H16  1  0.08811456  0.09761922  0.56230898  1  0.081475  0  0.110213  0.117164  0  1.000611  0
H  H17  1  0.91188871  0.40238211  0.06230907  1  0.081452  0  0.110221  0.117185  0  1.000544  0
H  H18  1  0.91188134  0.90238092  0.43769028  1  0.081521  0  0.110232  0.117219  0  1.000595  0
H  H19  1  0.08811942  0.59761899  0.93769019  1  0.081519  0  0.110231  0.117211  0  1.000607  0
H  H20  1  0.25405193  0.27853959  0.58476309  1  0.139379  0  0.125243  0.103444  0  0.994472  0
H  H21  1  0.74595007  0.22145992  0.08476229  1  0.139751  0  0.125213  0.10337  0  0.99448  0
H  H22  1  0.74594397  0.72146055  0.41523684  1  0.139361  0  0.125198  0.103373  0  0.994509  0
H  H23  1  0.25405678  0.77853945  0.91523632  1  0.139398  0  0.125235  0.103415  0  0.994524  0
H  H24  1  0.41161411  0.17280484  0.83162962  1  0.10988  0  0.126356  0.102066  0  0.96915  0
H  H25  1  0.58838910  0.32719280  0.33162920  1  0.109876  0  0.126364  0.102061  0  0.969192  0
H  H26  1  0.58838292  0.82719273  0.16836965  1  0.109844  0  0.126392  0.1021  0  0.969131  0
H  H27  1  0.41161419  0.67280911  0.66836874  1  0.1098  0  0.126361  0.10208  0  0.969163  0
H  H28  1  0.24999991  0.98642770  0.81988980  1  0.125944  0  0.122929  0.133573  0  0.99221  0
H  H29  1  0.74999955  0.51357096  0.31988952  1  0.125968  0  0.122916  0.133564  0  0.992189  0
H  H30  1  0.74999477  0.01357243  0.18010946  1  0.125948  0  0.122908  0.133551  0  0.992228  0
H  H31  1  0.25000367  0.48642923  0.68010974  1  0.125954  0  0.122911  0.13357  0  0.992217  0
C  C32  1  0.81621734  0.68000701  0.76170158  1  1.637118  0  0.225752  0.623921  0  4.223054  0
C  C33  1  0.18378469  0.81999534  0.26170247  1  1.637368  0  0.225687  0.623815  0  4.223178  0
C  C34  1  0.18378710  0.31999319  0.23830100  1  1.637396  0  0.225831  0.624075  0  4.222745  0
C  C35  1  0.81621741  0.18000742  0.73830143  1  1.637397  0  0.225782  0.623922  0  4.222944  0
C  C36  1  0.03598676  0.64440679  0.56528473  1  1.664791  0  0.237568  0.631742  0  4.236432  0
C  C37  1  0.96401155  0.85559548  0.06528428  1  1.66481  0  0.237557  0.631692  0  4.236435  0
C  C38  1  0.96401878  0.35558999  0.43471586  1  1.664916  0  0.23744  0.631472  0  4.236325  0
C  C39  1  0.03598580  0.14441067  0.93472029  1  1.664881  0  0.237479  0.631476  0  4.236365  0
C  C40  1  0.00562792  0.74112294  0.62634104  1  0.350405  0  0.100712  0.016855  0  3.880904  0
C  C41  1  0.99437402  0.75887825  0.12633951  1  0.350392  0  0.100695  0.016852  0  3.880835  0
C  C42  1  0.99437395  0.25887381  0.37366087  1  0.350319  0  0.100648  0.016836  0  3.880996  0
C  C43  1  0.00562689  0.24112536  0.87366174  1  0.350369  0  0.100646  0.016912  0  3.880868  0
C  C44  1  0.93064923  0.75525709  0.70823248  1  0.456646  0  0.096987  0.016859  0  3.961117  0
C  C45  1  0.06935276  0.74474463  0.20823222  1  0.456346  0  0.096998  0.016838  0  3.961079  0
C  C46  1  0.06935396  0.24474225  0.29176943  1  0.456379  0  0.097011  0.016797  0  3.961057  0
C  C47  1  0.93064812  0.25525812  0.79176969  1  0.456667  0  0.096977  0.016794  0  3.961062  0
C  C48  1  0.06915448  0.91517836  0.68052249  1  1.014214  0  0.237713  0.322652  0  3.986136  0
C  C49  1  0.93084873  0.58482348  0.18052204  1  1.014379  0  0.237687  0.322589  0  3.986081  0
C  C50  1  0.93084505  0.08482095  0.31947678  1  1.013786  0  0.237677  0.322601  0  3.986136  0
C  C51  1  0.06915581  0.41517930  0.81947789  1  1.013916  0  0.23771  0.322654  0  3.986031  0
C  C52  1  0.15738445  0.02630020  0.68960056  1  0.002262  0  0.016816  0.047901  0  4.007178  0
C  C53  1  0.84261885  0.47370060  0.18959915  1  0.002224  0  0.0168  0.047954  0  4.007118  0
C  C54  1  0.84261387  0.97369910  0.31039804  1  0.002702  0  0.016839  0.047938  0  4.007172  0
C  C55  1  0.15738569  0.52630218  0.81039880  1  0.002702  0  0.016832  0.047935  0  4.007165  0
C  C56  1  0.15930241  0.10976884  0.62273555  1  -0.06518  0  -0.074412  -0.156673  0  3.930615  0
C  C57  1  0.84069853  0.39023479  0.12273567  1  -0.065215  0  -0.074414  -0.156716  0  3.930547  0
C  C58  1  0.84069233  0.89023301  0.37726371  1  -0.065199  0  -0.074421  -0.156743  0  3.930621  0
C  C59  1  0.15930598  0.60976713  0.87726360  1  -0.065226  0  -0.074418  -0.156726  0  3.930632  0
C  C60  1  0.24990772  0.21200236  0.63562002  1  0.529632  0  0.062865  0.108426  0  3.917774  0
C  C61  1  0.75009312  0.28799864  0.13561972  1  0.529393  0  0.062919  0.108533  0  3.917558  0
C  C62  1  0.75008821  0.78799863  0.36438057  1  0.529639  0  0.06293  0.108538  0  3.917637  0
C  C63  1  0.24991010  0.71200156  0.86437954  1  0.529317  0  0.062879  0.108471  0  3.91767  0
C  C64  1  0.33652465  0.15294686  0.77343836  1  0.499317  0  0.053648  0.086065  0  3.943013  0
C  C65  1  0.66347614  0.34705186  0.27343724  1  0.499352  0  0.05364  0.086099  0  3.943026  0
C  C66  1  0.66347115  0.84705070  0.22656157  1  0.499302  0  0.053613  0.086079  0  3.942932  0
C  C67  1  0.33652711  0.65294920  0.72656004  1  0.499315  0  0.053679  0.086081  0  3.942972  0
C  C68  1  0.24845199  0.04906901  0.76662463  1  -0.034986  0  -0.071525  -0.153067  0  3.954837  0
C  C69  1  0.75154883  0.45093060  0.26662326  1  -0.034945  0  -0.071492  -0.153092  0  3.954694  0
C  C70  1  0.75154266  0.95093026  0.23337596  1  -0.034959  0  -0.071483  -0.153054  0  3.954788  0
C  C71  1  0.24845442  0.54907046  0.73337468  1  -0.034979  0  -0.071501  -0.153045  0  3.954789  0
C  C72  1  0.53387948  0.06333341  0.99844000  1  1.584672  0  0.203746  0.480619  0  4.28325  0
C  C73  1  0.46611284  0.43666518  0.49843732  1  1.605911  0  0.203656  0.480399  0  4.283579  0
C  C74  1  0.46611617  0.93665986  0.00155728  1  1.606314  0  0.203714  0.480581  0  4.283192  0
C  C75  1  0.53387575  0.56333490  0.50155797  1  1.585262  0  0.203754  0.480662  0  4.283158  0
N  N76  1  0.33669627  0.23338198  0.70967561  1  -1.222276  0  -0.29555  -0.216576  0  3.396681  0
N  N77  1  0.66330578  0.26661788  0.20967469  1  -1.222405  0  -0.295576  -0.21662  0  3.396591  0
N  N78  1  0.66330083  0.76661731  0.29032431  1  -1.222324  0  -0.295598  -0.216689  0  3.396659  0
N  N79  1  0.33669748  0.73338318  0.79032258  1  -1.221963  0  -0.295629  -0.216672  0  3.396643  0
N  N80  1  0.97220277  0.86324419  0.74063590  1  -1.191108  0  -0.38302  -0.466218  0  3.401841  0
N  N81  1  0.02779919  0.63675653  0.24063525  1  -1.191226  0  -0.382953  -0.466087  0  3.401741  0
N  N82  1  0.02779673  0.13675426  0.25936403  1  -1.191113  0  -0.383004  -0.466147  0  3.401761  0
N  N83  1  0.97220532  0.36324539  0.75936402  1  -1.191198  0  -0.383004  -0.466166  0  3.401606  0
N  N84  1  0.08786931  0.84414148  0.60997059  1  -1.260724  0  -0.360481  -0.269846  0  3.618061  0
N  N85  1  0.91213267  0.65586064  0.10996996  1  -1.260764  0  -0.360491  -0.269815  0  3.618098  0
N  N86  1  0.91213138  0.15585612  0.39002868  1  -1.260679  0  -0.360452  -0.26978  0  3.617978  0
N  N87  1  0.08786831  0.34414468  0.89002996  1  -1.260649  0  -0.360469  -0.26988  0  3.618001  0
O  O88  1  0.76643717  0.72342773  0.83353972  1  -1.184222  0  -0.392595  -0.628303  0  2.219899  0
O  O89  1  0.23355998  0.77657429  0.33354072  1  -1.184235  0  -0.392546  -0.628239  0  2.220001  0
O  O90  1  0.23356959  0.27656906  0.16646220  1  -1.184213  0  -0.392688  -0.628406  0  2.219668  0
O  O91  1  0.76643489  0.22343099  0.66646252  1  -1.184186  0  -0.392637  -0.628331  0  2.219722  0
O  O92  1  0.77469416  0.58027638  0.73484566  1  -1.20295  0  -0.397449  -0.659724  0  2.320895  0
O  O93  1  0.22530905  0.91972523  0.23484565  1  -1.202924  0  -0.397431  -0.659637  0  2.320864  0
O  O94  1  0.22530897  0.41972124  0.26515361  1  -1.202967  0  -0.397456  -0.659753  0  2.320933  0
O  O95  1  0.77469064  0.08027837  0.76515495  1  -1.203261  0  -0.397418  -0.659639  0  2.320978  0
O  O96  1  0.00683406  0.54275371  0.59132625  1  -1.193065  0  -0.399793  -0.670518  0  2.386357  0
O  O97  1  0.99316666  0.95724762  0.09132422  1  -1.193116  0  -0.399783  -0.670476  0  2.386323  0
O  O98  1  0.99316891  0.45723962  0.40867832  1  -1.193199  0  -0.399723  -0.670331  0  2.386386  0
O  O99  1  0.00682825  0.04275851  0.90868365  1  -1.193273  0  -0.39973  -0.670411  0  2.386372  0
O  O100  1  0.10306751  0.67406933  0.49246893  1  -1.190849  0  -0.387574  -0.650608  0  2.264111  0
O  O101  1  0.89692844  0.82593203  0.99246900  1  -1.190857  0  -0.387578  -0.650583  0  2.264141  0
O  O102  1  0.89693067  0.32592653  0.50753431  1  -1.190907  0  -0.387535  -0.650529  0  2.263797  0
O  O103  1  0.10307022  0.17407671  0.00753688  1  -1.190859  0  -0.387517  -0.650462  0  2.26391  0
O  O104  1  0.66258234  0.08241013  0.95339623  1  -1.193316  0  -0.377986  -0.614455  0  2.278156  0
O  O105  1  0.33741823  0.41758099  0.45339491  1  -1.193378  0  -0.377881  -0.614272  0  2.278547  0
O  O106  1  0.33741566  0.91758059  0.04659773  1  -1.193688  0  -0.377865  -0.614346  0  2.278258  0
O  O107  1  0.66257511  0.58241570  0.54659707  1  -1.193661  0  -0.377899  -0.614365  0  2.278223  0
O  O108  1  0.45551770  0.13668430  0.04106643  1  -1.189601  0  -0.375902  -0.598314  0  2.27796  0
O  O109  1  0.54449244  0.36330516  0.54106175  1  -1.189816  0  -0.375933  -0.59834  0  2.277624  0
O  O110  1  0.54448742  0.86330132  0.95893151  1  -1.189866  0  -0.375962  -0.598392  0  2.277701  0
O  O111  1  0.45550214  0.63669240  0.45893487  1  -1.189764  0  -0.375944  -0.598356  0  2.277601  0
O  O112  1  0.56417980  0.89554769  0.76230930  1  -1.261675  0  -0.652394  -0.858561  0  2.154774  0
O  O113  1  0.43582091  0.60445208  0.26230942  1  -1.261648  0  -0.65239  -0.858559  0  2.15474  0
O  O114  1  0.43582101  0.10445335  0.23769262  1  -1.261645  0  -0.652411  -0.858573  0  2.154816  0
O  O115  1  0.56417506  0.39554977  0.73768918  1  -1.261733  0  -0.652376  -0.858544  0  2.154835  0
