# generated using pymatgen
data_Zn2H26C41N2O9
_symmetry_space_group_name_H-M   'P 1'
_cell_length_a   13.39476738
_cell_length_b   13.94062669
_cell_length_c   15.31693882
_cell_angle_alpha   90.96248000
_cell_angle_beta   91.67411913
_cell_angle_gamma   68.39210589
_symmetry_Int_Tables_number   1
_chemical_formula_structural   Zn2H26C41N2O9
_chemical_formula_sum   'Zn2 H26 C41 N2 O9'
_cell_volume   2657.96788550
_cell_formula_units_Z   1
loop_
 _symmetry_equiv_pos_site_id
 _symmetry_equiv_pos_as_xyz
  1  'x, y, z'
loop_
 _atom_site_type_symbol
 _atom_site_label
 _atom_site_symmetry_multiplicity
 _atom_site_fract_x
 _atom_site_fract_y
 _atom_site_fract_z
 _atom_site_occupancy
 _atom_site_pbe_bader_charge
 _atom_site_pbe_bader_spin_density
 _atom_site_pbe_cm5_charge
 _atom_site_pbe_ddec_charge
 _atom_site_pbe_ddec_spin_density
 _atom_site_pbe_ddec_sum_bond_order
 _atom_site_pbe_magmom
Zn  Zn0  1  0.50590051  0.39701113  0.50229167  1  1.286422  0  0.666236  0.817852  0  2.432476  0
Zn  Zn1  1  0.48996871  0.60087068  0.50569350  1  1.285088  0  0.665996  0.814993  0  2.418613  0
H  H2  1  0.14371086  0.74277025  0.40871331  1  0.085116  0  0.100367  0.103284  0  1.004602  0
H  H3  1  0.65245607  0.69581953  0.55197544  1  0.13579  0  0.131804  0.111744  0  0.982653  0
H  H4  1  0.34161376  0.80583531  0.45111305  1  0.146166  0  0.130806  0.110638  0  0.979653  0
H  H5  1  0.80071794  0.71175086  0.36008982  1  0.05173  0  0.094673  0.0958  0  1.00745  0
H  H6  1  0.33754143  0.98698064  0.44465775  1  0.096357  0  0.111848  0.113895  0  1.013071  0
H  H7  1  0.40690943  0.09925799  0.37895683  1  0.079795  0  0.115961  0.122182  0  0.988825  0
H  H8  1  0.41206460  0.27742959  0.38660036  1  0.125558  0  0.131996  0.109714  0  0.973819  0
H  H9  1  0.58723925  0.21570032  0.61897135  1  0.130781  0  0.131937  0.10857  0  0.974292  0
H  H10  1  0.59099711  0.03435689  0.62212562  1  0.079696  0  0.116871  0.12325  0  0.987133  0
H  H11  1  0.95294824  0.77208182  0.36695535  1  0.058596  0  0.097293  0.096723  0  1.002307  0
H  H12  1  0.18807143  0.44378152  0.50440074  1  0.070192  0  0.100218  0.10675  0  1.032129  0
H  H13  1  0.56235321  0.33054681  0.77944517  1  0.059654  0  0.09902  0.099395  0  1.012769  0
H  H14  1  0.85704343  0.25009814  0.53429496  1  0.090629  0  0.111129  0.131944  0  0.988166  0
H  H15  1  0.13467235  0.33127274  0.50491261  1  0.026892  0  0.098823  0.10752  0  1.058087  0
H  H16  1  0.72156678  0.58559725  0.40274995  1  0.130576  0  0.102087  0.113152  0  1.021493  0
H  H17  1  0.56599602  0.32883134  0.94234727  1  0.055383  0  0.098871  0.097147  0  1.007955  0
H  H18  1  0.19844118  0.19901906  0.60087283  1  0.057706  0  0.101134  0.10034  0  0.981209  0
H  H19  1  0.20967083  0.15706236  0.48907395  1  0.031122  0  0.09022  0.080131  0  1.017586  0
H  H20  1  0.20724976  0.07035490  0.57397291  1  0.101881  0  0.107191  0.112645  0  0.978904  0
H  H21  1  0.45306019  0.66040059  0.78212027  1  0.096101  0  0.103353  0.108128  0  1.000774  0
H  H22  1  0.45373515  0.66087616  0.94525104  1  0.073887  0  0.098951  0.096956  0  1.008061  0
H  H23  1  0.56867277  0.61791988  0.07004992  1  0.051137  0  0.099626  0.098175  0  1.00595  0
H  H24  1  0.56095106  0.61802417  0.23272610  1  0.078876  0  0.102002  0.106387  0  1.002256  0
H  H25  1  0.44469255  0.37006381  0.22018825  1  0.099035  0  0.100623  0.101987  0  1.007615  0
H  H26  1  0.44724401  0.37134247  0.05744473  1  0.039113  0  0.098915  0.097223  0  1.009034  0
H  H27  1  0.66281628  0.87188657  0.55090348  1  0.093428  0  0.117579  0.124637  0  0.984424  0
C  C28  1  0.50365502  0.49590988  0.67337119  1  1.559364  0  0.214643  0.597958  0  4.159924  0
C  C29  1  0.82541060  0.40281931  0.48701043  1  0.018186  0  -0.010085  -0.042288  0  3.934239  0
C  C30  1  0.53985828  0.40198820  0.90760674  1  -0.113429  0  -0.094953  -0.140081  0  3.997674  0
C  C31  1  0.70659104  0.43206112  0.49663464  1  1.57494  0  0.215246  0.599916  0  4.159367  0
C  C32  1  0.53870549  0.40235964  0.81679330  1  0.052091  0  -0.087645  -0.088894  0  4.004445  0
C  C33  1  0.50724774  0.49552285  0.77117632  1  -0.033617  0  -0.020691  -0.035754  0  3.967751  0
C  C34  1  0.47809590  0.58838845  0.81834314  1  -0.062042  0  -0.085163  -0.086338  0  3.990045  0
C  C35  1  0.47940614  0.58799999  0.90921462  1  -0.012073  0  -0.093288  -0.137828  0  3.994173  0
C  C36  1  0.50970857  0.49489719  0.95556090  1  0.002831  0  -0.005031  0.074363  0  4.001493  0
C  C37  1  0.53969602  0.56439838  0.10243683  1  -0.040353  0  -0.092719  -0.137287  0  3.992605  0
C  C38  1  0.53647865  0.56437081  0.19314252  1  -0.022802  0  -0.086319  -0.088682  0  3.992357  0
C  C39  1  0.98255491  0.45014480  0.46918824  1  -0.004661  0  -0.002599  0.062634  0  3.972685  0
C  C40  1  0.50249354  0.49408622  0.23591867  1  -0.041605  0  -0.020426  -0.033457  0  3.972487  0
C  C41  1  0.47167732  0.42388572  0.18625606  1  -0.102657  0  -0.086634  -0.087528  0  3.999664  0
C  C42  1  0.47425116  0.42438178  0.09557716  1  -0.008596  0  -0.093936  -0.139179  0  3.995703  0
C  C43  1  0.49903757  0.49433826  0.33341870  1  1.587018  0  0.212315  0.591691  0  4.171792  0
C  C44  1  0.50831035  0.49455811  0.05192484  1  -0.052566  0  -0.005281  0.07338  0  4.000819  0
C  C45  1  0.58915643  0.86148981  0.52939917  1  -0.028322  0  -0.074761  -0.173515  0  3.938032  0
C  C46  1  0.58455934  0.76349293  0.53015603  1  0.527753  0  0.065764  0.111551  0  3.899646  0
C  C47  1  0.41045787  0.82518549  0.47218666  1  0.464469  0  0.0636  0.106966  0  3.911814  0
C  C48  1  0.40938911  0.92502720  0.46871729  1  -0.002946  0  -0.078356  -0.178127  0  3.955996  0
C  C49  1  0.49965646  0.94514591  0.49904643  1  -0.058198  0  0.014656  0.102448  0  3.994322  0
C  C50  1  0.86968361  0.47566337  0.45860638  1  -0.020353  0  -0.009579  0.040714  0  3.965839  0
C  C51  1  0.44724774  0.12168695  0.43387910  1  -0.005252  0  -0.077238  -0.179252  0  3.952041  0
C  C52  1  0.44987583  0.22041869  0.43717579  1  0.491844  0  0.065026  0.109208  0  3.910774  0
C  C53  1  0.54960113  0.18522102  0.56707281  1  0.470856  0  0.064486  0.108428  0  3.913752  0
C  C54  1  0.55129470  0.08500354  0.56797659  1  0.054466  0  -0.075406  -0.175309  0  3.944641  0
C  C55  1  0.29025412  0.56926565  0.48612103  1  1.572532  0  0.211517  0.593792  0  4.166511  0
C  C56  1  0.49962697  0.05108439  0.50000726  1  -0.054509  0  0.015431  0.106626  0  3.989681  0
C  C57  1  0.00449729  0.69973442  0.39724331  1  -0.060013  0  -0.097031  -0.145645  0  4.012731  0
C  C58  1  0.17572997  0.59033683  0.45954407  1  -0.011288  0  -0.023293  -0.035732  0  3.989577  0
C  C59  1  0.89162998  0.30556568  0.51429403  1  0.014461  0  -0.092706  -0.205234  0  3.96151  0
C  C60  1  0.00386189  0.27867517  0.51867102  1  0.380132  0  0.076692  0.255623  0  4.099349  0
C  C61  1  0.02729567  0.52802005  0.45112887  1  -0.053655  0  -0.007336  0.026884  0  3.949599  0
C  C62  1  0.04844092  0.35075498  0.49866494  1  0.06289  0  -0.116896  -0.285685  0  4.003383  0
C  C63  1  0.17557920  0.15082164  0.55252181  1  0.383878  0  -0.137481  -0.171097  0  3.954298  0
C  C64  1  0.96019416  0.62384890  0.41320016  1  -0.012585  0  -0.009514  0.082149  0  4.024432  0
C  C65  1  0.84998932  0.64080454  0.39359855  1  -0.056289  0  -0.104661  -0.159545  0  4.047565  0
C  C66  1  0.80602956  0.57085679  0.41705758  1  -0.069125  0  -0.092637  -0.122808  0  4.015046  0
C  C67  1  0.13433173  0.51414217  0.47323652  1  -0.028748  0  -0.084181  -0.1312  0  3.943928  0
C  C68  1  0.10989557  0.68408062  0.42021349  1  -0.033249  0  -0.090884  -0.097103  0  4.013619  0
N  N69  1  0.49623023  0.74615718  0.50292135  1  -1.238215  0  -0.313534  -0.190334  0  3.503424  0
N  N70  1  0.50045665  0.25137070  0.50251200  1  -1.247425  0  -0.312377  -0.18765  0  3.505991  0
O  O71  1  0.53009129  0.40862372  0.63451802  1  -1.174699  0  -0.321547  -0.558238  0  2.328033  0
O  O72  1  0.47413228  0.58344786  0.63611480  1  -1.163474  0  -0.321145  -0.546881  0  2.313148  0
O  O73  1  0.66700386  0.36305069  0.48166125  1  -1.156563  0  -0.321322  -0.543587  0  2.284903  0
O  O74  1  0.65479868  0.52383768  0.52276360  1  -1.174919  0  -0.314938  -0.556121  0  2.348239  0
O  O75  1  0.47793712  0.42213398  0.36913248  1  -1.168006  0  -0.320369  -0.55654  0  2.318318  0
O  O76  1  0.51759416  0.56685517  0.37404876  1  -1.169427  0  -0.320519  -0.55722  0  2.329726  0
O  O77  1  0.34401920  0.47961457  0.51594336  1  -1.179792  0  -0.325949  -0.563453  0  2.342594  0
O  O78  1  0.32729794  0.64072854  0.47661544  1  -1.175674  0  -0.321019  -0.551193  0  2.288659  0
O  O79  1  0.06201376  0.17983526  0.54530000  1  -1.09729  0  -0.195455  -0.16671  0  2.53928  0
