# generated using pymatgen
data_Ho2Fe3H30C42(NO5)6
_symmetry_space_group_name_H-M   'P 1'
_cell_length_a   15.21542216
_cell_length_b   15.21541894
_cell_length_c   15.54254977
_cell_angle_alpha   90.00003025
_cell_angle_beta   89.99986210
_cell_angle_gamma   119.99994970
_symmetry_Int_Tables_number   1
_chemical_formula_structural   Ho2Fe3H30C42(NO5)6
_chemical_formula_sum   'Ho4 Fe6 H60 C84 N12 O60'
_cell_volume   3116.16926399
_cell_formula_units_Z   2
loop_
 _symmetry_equiv_pos_site_id
 _symmetry_equiv_pos_as_xyz
  1  'x, y, z'
loop_
 _atom_site_type_symbol
 _atom_site_label
 _atom_site_symmetry_multiplicity
 _atom_site_fract_x
 _atom_site_fract_y
 _atom_site_fract_z
 _atom_site_occupancy
 _atom_site_pbe_bader_charge
 _atom_site_pbe_bader_spin_density
 _atom_site_pbe_cm5_charge
 _atom_site_pbe_ddec_charge
 _atom_site_pbe_ddec_spin_density
 _atom_site_pbe_ddec_sum_bond_order
 _atom_site_pbe_magmom
Ho  Ho0  1  0.33332315  0.66664573  0.75001187  1  2.099687  -0.000942  1.528158  1.832661  -0.001413  2.278893  0.0
Ho  Ho1  1  0.66667162  0.33330894  0.74999595  1  2.099563  -0.000942  1.528241  1.832928  -0.001413  2.278392  0.0
Ho  Ho2  1  0.66667111  0.33335119  0.24998339  1  2.09972  -0.000942  1.528181  1.832677  -0.001413  2.278941  0.0
Ho  Ho3  1  0.33329268  0.66665878  0.25001025  1  2.099641  -0.000942  1.528226  1.832949  -0.001412  2.278387  0.0
Fe  Fe4  1  0.50000144  0.00000036  0.49999910  1  1.536188  3.782734  0.732357  1.127749  4.038073  2.484593  3.756
Fe  Fe5  1  0.00000342  0.50000254  0.50000046  1  1.534097  3.782899  0.73249  1.127888  4.038096  2.484707  3.756
Fe  Fe6  1  0.49999769  0.50000053  0.49999924  1  1.530781  3.783267  0.732445  1.127788  4.038091  2.484437  3.756
Fe  Fe7  1  0.00000067  0.50000232  0.00000078  1  1.536167  3.7827  0.732345  1.127604  4.038022  2.484631  3.756
Fe  Fe8  1  0.50000198  0.00000343  0.00000006  1  1.534029  3.782898  0.73243  1.127799  4.038093  2.484653  3.756
Fe  Fe9  1  0.50000064  0.49999791  0.99999828  1  1.530767  3.783275  0.732445  1.127784  4.038102  2.484631  3.756
H  H10  1  0.36022212  0.82709907  0.55169435  1  0.626411  0.00078  0.295517  0.387283  0.000382  0.944317  0.001
H  H11  1  0.71528821  0.95557471  0.64794909  1  0.102908  -8.5e-05  0.115209  0.126134  -0.000314  0.991055  0.0
H  H12  1  0.17289852  0.53311788  0.55169256  1  0.636584  0.000778  0.29553  0.387276  0.000382  0.944351  0.001
H  H13  1  0.04443196  0.75971496  0.64794725  1  0.134592  -4.3e-05  0.115255  0.126193  -0.000313  0.991095  0.0
H  H14  1  0.46687639  0.63977532  0.55169804  1  0.628422  0.000787  0.295526  0.387257  0.000382  0.944371  0.001
H  H15  1  0.24027588  0.28470039  0.64795140  1  0.120446  -6.2e-05  0.115221  0.126088  -0.000313  0.991094  0.0
H  H16  1  0.63977748  0.17289494  0.55169900  1  0.626744  0.00078  0.295553  0.387326  0.000382  0.944258  0.001
H  H17  1  0.28470775  0.04442649  0.64794420  1  0.107088  -8.3e-05  0.115249  0.12615  -0.000313  0.991052  0.0
H  H18  1  0.82710143  0.46688104  0.55169629  1  0.634933  0.000787  0.295556  0.387309  0.000382  0.944302  0.001
H  H19  1  0.95557185  0.24028497  0.64795055  1  0.134567  -4.4e-05  0.115234  0.126183  -0.000313  0.991093  0.0
H  H20  1  0.53311771  0.36022155  0.55169660  1  0.628365  0.000787  0.295534  0.387289  0.000382  0.944336  0.001
H  H21  1  0.75971562  0.71528951  0.64794512  1  0.115319  -6.3e-05  0.11528  0.126209  -0.000313  0.990991  0.0
H  H22  1  0.82710002  0.36022019  0.94830621  1  0.626334  0.00078  0.295507  0.387274  0.000382  0.944329  0.001
H  H23  1  0.95557126  0.71528195  0.85205233  1  0.101864  -8.5e-05  0.115239  0.126196  -0.000313  0.991088  0.0
H  H24  1  0.53311841  0.17289838  0.94830393  1  0.634953  0.000787  0.295521  0.387267  0.000382  0.944358  0.001
H  H25  1  0.75972032  0.04442984  0.85205173  1  0.134707  -4.3e-05  0.115275  0.126224  -0.000313  0.99106  0.0
H  H26  1  0.63977624  0.46687594  0.94830324  1  0.628357  0.000787  0.295543  0.387338  0.000382  0.944261  0.001
H  H27  1  0.28470672  0.24028227  0.85205105  1  0.117658  -6.4e-05  0.115231  0.126153  -0.000313  0.991037  0.0
H  H28  1  0.17289912  0.63977797  0.94830255  1  0.626832  0.000779  0.295554  0.387314  0.000382  0.94428  0.001
H  H29  1  0.04442539  0.28470593  0.85205456  1  0.102789  -8.5e-05  0.115258  0.126152  -0.000313  0.990993  0.0
H  H30  1  0.46688600  0.82710504  0.94830483  1  0.634588  0.000787  0.295539  0.387263  0.000382  0.944364  0.001
H  H31  1  0.24028826  0.95556846  0.85205322  1  0.13448  -4.4e-05  0.115243  0.126159  -0.000313  0.991107  0.0
H  H32  1  0.36022097  0.53311496  0.94830101  1  0.628352  0.000787  0.295499  0.387247  0.000382  0.94438  0.001
H  H33  1  0.71529223  0.75971778  0.85205519  1  0.115271  -6.3e-05  0.115252  0.12616  -0.000313  0.991065  0.0
H  H34  1  0.63977826  0.17290093  0.44830605  1  0.626412  0.00078  0.295532  0.387303  0.000382  0.944288  0.001
H  H35  1  0.28471186  0.04442954  0.35205196  1  0.102587  -8.5e-05  0.11525  0.126194  -0.000314  0.991066  0.0
H  H36  1  0.82710646  0.46688672  0.44830720  1  0.636645  0.000778  0.295516  0.387291  0.000382  0.944337  0.001
H  H37  1  0.95557312  0.24028823  0.35205444  1  0.134488  -4.3e-05  0.115255  0.126169  -0.000313  0.991065  0.0
H  H38  1  0.53312378  0.36022752  0.44830237  1  0.628463  0.000786  0.29554  0.387328  0.000382  0.944262  0.001
H  H39  1  0.75972523  0.71530414  0.35205158  1  0.120168  -6.2e-05  0.115236  0.126066  -0.000313  0.991035  0.0
H  H40  1  0.36021989  0.82710282  0.44830141  1  0.626827  0.00078  0.295537  0.387314  0.000382  0.944271  0.001
H  H41  1  0.71528544  0.95557544  0.35205556  1  0.107124  -8.3e-05  0.115239  0.12613  -0.000313  0.991075  0.0
H  H42  1  0.17289867  0.53311793  0.44830219  1  0.634927  0.000787  0.295553  0.387314  0.000382  0.944297  0.001
H  H43  1  0.04443268  0.75971614  0.35205178  1  0.134631  -4.3e-05  0.115238  0.126172  -0.000313  0.99113  0.0
H  H44  1  0.46688219  0.63978025  0.44830252  1  0.628343  0.000787  0.29555  0.387328  0.000382  0.944277  0.001
H  H45  1  0.24028137  0.28470862  0.35205207  1  0.115319  -6.3e-05  0.11523  0.126137  -0.000313  0.991109  0.0
H  H46  1  0.17289876  0.63977746  0.05169419  1  0.626327  0.00078  0.295544  0.387292  0.000382  0.944298  0.001
H  H47  1  0.04442859  0.28471069  0.14794937  1  0.102083  -8.5e-05  0.115233  0.126153  -0.000313  0.991085  0.0
H  H48  1  0.46688045  0.82710315  0.05169519  1  0.634964  0.000787  0.29554  0.387287  0.000382  0.944325  0.001
H  H49  1  0.24028306  0.95557242  0.14795125  1  0.134603  -4.3e-05  0.115231  0.126178  -0.000313  0.991096  0.0
H  H50  1  0.36022594  0.53312359  0.05169587  1  0.628361  0.000787  0.2955  0.387274  0.000382  0.944353  0.001
H  H51  1  0.71529715  0.75971819  0.14794485  1  0.117828  -6.4e-05  0.11522  0.126118  -0.000313  0.990981  0.0
H  H52  1  0.82709936  0.36022393  0.05169850  1  0.626805  0.000779  0.295528  0.387295  0.000382  0.944303  0.001
H  H53  1  0.95557630  0.71529539  0.14794842  1  0.102822  -8.5e-05  0.115213  0.126095  -0.000314  0.991059  0.0
H  H54  1  0.53311954  0.17290164  0.05169558  1  0.634538  0.000788  0.295537  0.387275  0.000382  0.944373  0.001
H  H55  1  0.75971416  0.04443738  0.14794847  1  0.134595  -4.3e-05  0.115256  0.126117  -0.000313  0.991172  0.0
H  H56  1  0.63978073  0.46688636  0.05169939  1  0.628351  0.000787  0.295506  0.387263  0.000382  0.944364  0.001
H  H57  1  0.28471030  0.24028665  0.14794650  1  0.115282  -6.3e-05  0.115209  0.126093  -0.000313  0.991056  0.0
H  H58  1  0.81397270  0.90698912  0.75000172  1  0.050243  -0.00025  0.101345  0.086263  -0.000116  1.006817  0.0
H  H59  1  0.09302086  0.90698624  0.74999998  1  0.057992  -0.000245  0.101298  0.086219  -0.000116  1.006945  0.0
H  H60  1  0.09300739  0.18601839  0.75000301  1  0.050027  -0.000251  0.101419  0.086322  -0.000116  1.006851  0.0
H  H61  1  0.18601985  0.09301115  0.74999966  1  0.077794  -0.00024  0.101372  0.086283  -0.000116  1.006805  0.0
H  H62  1  0.90698704  0.09302103  0.75000075  1  0.057942  -0.000246  0.101292  0.086176  -0.000117  1.006963  0.0
H  H63  1  0.90698560  0.81397093  0.75000030  1  0.048843  -0.000253  0.101316  0.08621  -0.000116  1.006812  0.0
H  H64  1  0.18603020  0.09301493  0.24999676  1  0.07802  -0.000239  0.101329  0.086238  -0.000117  1.006831  0.0
H  H65  1  0.90698270  0.09301847  0.24999978  1  0.058043  -0.000245  0.101326  0.086258  -0.000116  1.006948  0.0
H  H66  1  0.90699382  0.81398472  0.24999740  1  0.048501  -0.000254  0.101444  0.086397  -0.000116  1.006894  0.0
H  H67  1  0.81398240  0.90699224  0.25000268  1  0.050054  -0.00025  0.101348  0.086256  -0.000116  1.006814  0.0
H  H68  1  0.09302284  0.90698393  0.25000609  1  0.058053  -0.000246  0.101283  0.086206  -0.000117  1.006968  0.0
H  H69  1  0.09301281  0.18602710  0.25000139  1  0.050227  -0.00025  0.101345  0.086229  -0.000116  1.006877  0.0
C  C70  1  0.50672079  0.86112482  0.63910327  1  1.573737  -0.017247  0.224944  0.568763  -0.019905  4.184298  -0.011
C  C71  1  0.57199144  0.83830830  0.69598382  1  0.443027  -0.001127  0.125034  0.1314  -0.002695  3.969837  0.003
C  C72  1  0.67794239  0.89309941  0.69336123  1  0.054268  -0.015472  -0.068077  -0.119978  -0.01617  3.919122  -0.009
C  C73  1  0.13886587  0.64558523  0.63910622  1  1.564483  -0.01722  0.224853  0.568594  -0.019908  4.184422  -0.011
C  C74  1  0.16168790  0.73367287  0.69598748  1  0.501122  -0.001078  0.125059  0.131476  -0.002694  3.969902  0.003
C  C75  1  0.10690503  0.78484101  0.69336187  1  0.030014  -0.015447  -0.06805  -0.119989  -0.016155  3.919249  -0.009
C  C76  1  0.35440554  0.49326551  0.63910464  1  1.560748  -0.017262  0.224852  0.568514  -0.019912  4.184541  -0.011
C  C77  1  0.26631720  0.42799891  0.69598599  1  0.499673  -0.00109  0.124934  0.131237  -0.002703  3.970027  0.003
C  C78  1  0.21515381  0.32204812  0.69336290  1  0.041249  -0.015429  -0.067905  -0.119618  -0.016153  3.918888  -0.009
C  C79  1  0.49327357  0.13886489  0.63910567  1  1.573835  -0.017265  0.224867  0.568583  -0.019925  4.184394  -0.011
C  C80  1  0.42800375  0.16168692  0.69598509  1  0.442132  -0.001132  0.124994  0.131305  -0.002701  3.969989  0.003
C  C81  1  0.32205289  0.10689967  0.69336015  1  0.050164  -0.015466  -0.068053  -0.119934  -0.016161  3.919169  -0.009
C  C82  1  0.86112987  0.35440966  0.63910530  1  1.563824  -0.01723  0.224892  0.568764  -0.019918  4.184402  -0.011
C  C83  1  0.83830722  0.26631848  0.69598529  1  0.501369  -0.001086  0.125096  0.131386  -0.002701  3.969929  0.003
C  C84  1  0.89309695  0.21515794  0.69336144  1  0.03004  -0.015457  -0.068031  -0.119933  -0.016166  3.919201  -0.009
C  C85  1  0.64558619  0.50672156  0.63910559  1  1.560904  -0.017249  0.224914  0.568784  -0.019898  4.184208  -0.011
C  C86  1  0.73367567  0.57198942  0.69598742  1  0.498857  -0.001079  0.125077  0.13147  -0.002693  3.969699  0.003
C  C87  1  0.78484114  0.67794077  0.69336041  1  0.046352  -0.015417  -0.06811  -0.120049  -0.016147  3.919148  -0.009
C  C88  1  0.86112813  0.50671821  0.86089263  1  1.573772  -0.017242  0.224954  0.568756  -0.019899  4.184369  -0.011
C  C89  1  0.83831098  0.57198976  0.80401333  1  0.443097  -0.00112  0.125105  0.131468  -0.002688  3.969896  0.003
C  C90  1  0.89309860  0.67794026  0.80663770  1  0.0554  -0.015457  -0.068065  -0.120026  -0.016154  3.919251  -0.009
C  C91  1  0.64559024  0.13886415  0.86089535  1  1.563986  -0.017236  0.22483  0.56849  -0.019925  4.184388  -0.011
C  C92  1  0.73367741  0.16168422  0.80401463  1  0.501273  -0.001092  0.125044  0.131516  -0.002706  3.969839  0.003
C  C93  1  0.78484336  0.10690218  0.80663961  1  0.029828  -0.015452  -0.068071  -0.120051  -0.01616  3.919349  -0.009
C  C94  1  0.49327181  0.35440663  0.86089430  1  1.560872  -0.017256  0.2248  0.568555  -0.019906  4.184551  -0.011
C  C95  1  0.42800343  0.26632028  0.80401308  1  0.499486  -0.001085  0.124982  0.131402  -0.002698  3.969915  0.003
C  C96  1  0.32205435  0.21515783  0.80663953  1  0.044309  -0.015432  -0.06804  -0.119941  -0.016163  3.919097  -0.009
C  C97  1  0.13886567  0.49326987  0.86089733  1  1.573528  -0.017252  0.224869  0.568731  -0.01991  4.184478  -0.011
C  C98  1  0.16168714  0.42799949  0.80401601  1  0.443271  -0.001128  0.124981  0.131275  -0.002696  3.969993  0.003
C  C99  1  0.10689837  0.32205011  0.80663981  1  0.054913  -0.015463  -0.067974  -0.119777  -0.016159  3.919044  -0.009
C  C100  1  0.35441327  0.86112604  0.86089396  1  1.563947  -0.017219  0.224908  0.568751  -0.019906  4.18426  -0.011
C  C101  1  0.26632485  0.83830614  0.80401342  1  0.501636  -0.001079  0.125088  0.131598  -0.002693  3.969779  0.003
C  C102  1  0.21516094  0.89309402  0.80663919  1  0.031311  -0.015448  -0.068015  -0.119968  -0.016157  3.919292  -0.009
C  C103  1  0.50672451  0.64558549  0.86089179  1  1.561383  -0.017274  0.224903  0.568563  -0.019927  4.184355  -0.011
C  C104  1  0.57199389  0.73367500  0.80401111  1  0.498943  -0.00109  0.124991  0.131422  -0.002703  3.969909  0.003
C  C105  1  0.67794408  0.78484160  0.80663863  1  0.046448  -0.015433  -0.068103  -0.120034  -0.016159  3.919314  -0.009
C  C106  1  0.49327911  0.13887698  0.36089906  1  1.573754  -0.017247  0.224958  0.568798  -0.019903  4.184187  -0.011
C  C107  1  0.42800891  0.16169699  0.30401980  1  0.442975  -0.001128  0.124959  0.131276  -0.002696  3.970005  0.003
C  C108  1  0.32205834  0.10690550  0.30664110  1  0.054658  -0.015476  -0.068014  -0.119891  -0.016174  3.919259  -0.009
C  C109  1  0.86113544  0.35441647  0.36089869  1  1.564427  -0.017217  0.224818  0.568499  -0.019905  4.184575  -0.011
C  C110  1  0.83831247  0.26632714  0.30401871  1  0.501269  -0.001076  0.125095  0.131623  -0.002693  3.969754  0.003
C  C111  1  0.89309732  0.21516096  0.30664176  1  0.029958  -0.015448  -0.06807  -0.119999  -0.016156  3.919285  -0.009
C  C112  1  0.64559765  0.50673957  0.36089898  1  1.560669  -0.017257  0.224858  0.568549  -0.019908  4.184332  -0.011
C  C113  1  0.73368581  0.57200372  0.30401763  1  0.499825  -0.001088  0.124971  0.131213  -0.002701  3.969859  0.003
C  C114  1  0.78485013  0.67795620  0.30664007  1  0.041446  -0.01543  -0.067912  -0.119559  -0.016155  3.918714  -0.009
C  C115  1  0.50671779  0.86112837  0.36088959  1  1.573535  -0.017247  0.225076  0.569077  -0.019905  4.184109  -0.011
C  C116  1  0.57199172  0.83831274  0.30400952  1  0.44209  -0.001121  0.124984  0.131421  -0.002691  3.969734  0.003
C  C117  1  0.67794390  0.89310129  0.30663768  1  0.050458  -0.015449  -0.068077  -0.119976  -0.016143  3.919166  -0.009
C  C118  1  0.13886629  0.64558536  0.36088867  1  1.564179  -0.017243  0.224972  0.568816  -0.019933  4.184255  -0.011
C  C119  1  0.16168641  0.73367250  0.30400611  1  0.501545  -0.001093  0.124926  0.131309  -0.002707  3.970028  0.003
C  C120  1  0.10690298  0.78483857  0.30663639  1  0.029944  -0.015454  -0.068043  -0.119987  -0.016162  3.919476  -0.009
C  C121  1  0.35441052  0.49327553  0.36089031  1  1.561013  -0.017262  0.224841  0.568665  -0.019913  4.184405  -0.011
C  C122  1  0.26632311  0.42800823  0.30400977  1  0.499292  -0.00109  0.124987  0.131439  -0.002702  3.969818  0.003
C  C123  1  0.21515896  0.32205820  0.30663871  1  0.046358  -0.015425  -0.068037  -0.11992  -0.016155  3.919304  -0.009
C  C124  1  0.13886806  0.49327153  0.13910134  1  1.573308  -0.017257  0.224861  0.568486  -0.019915  4.184393  -0.011
C  C125  1  0.16169264  0.42800438  0.19598064  1  0.443273  -0.001127  0.124997  0.131374  -0.002695  3.970035  0.003
C  C126  1  0.10690181  0.32205445  0.19336013  1  0.055081  -0.015467  -0.067992  -0.119813  -0.016164  3.919189  -0.009
C  C127  1  0.35440761  0.86113180  0.13909926  1  1.56375  -0.017225  0.22487  0.568573  -0.019911  4.184311  -0.011
C  C128  1  0.26632026  0.83830929  0.19598063  1  0.501344  -0.001088  0.125037  0.131447  -0.002703  3.969969  0.003
C  C129  1  0.21515881  0.89309735  0.19336080  1  0.029985  -0.015457  -0.068055  -0.119982  -0.016166  3.919305  -0.009
C  C130  1  0.50673302  0.64559024  0.13909967  1  1.56102  -0.01723  0.224819  0.568689  -0.019877  4.184218  -0.011
C  C131  1  0.57199881  0.73368311  0.19598089  1  0.499575  -0.001068  0.12496  0.131334  -0.002683  3.969748  0.003
C  C132  1  0.67795035  0.78484574  0.19335766  1  0.044053  -0.01542  -0.068029  -0.119818  -0.01615  3.918898  -0.009
C  C133  1  0.86113527  0.50673221  0.13910694  1  1.573668  -0.017249  0.224857  0.568693  -0.019908  4.184505  -0.011
C  C134  1  0.83831542  0.57199966  0.19599019  1  0.443084  -0.001128  0.124998  0.131282  -0.002694  3.970003  0.003
C  C135  1  0.89310540  0.67795176  0.19336252  1  0.054999  -0.015465  -0.067929  -0.119714  -0.016161  3.918921  -0.009
C  C136  1  0.64558926  0.13887839  0.13911095  1  1.563261  -0.017224  0.224953  0.56877  -0.01991  4.184192  -0.011
C  C137  1  0.73367609  0.16169594  0.19599213  1  0.501853  -0.001081  0.12501  0.131481  -0.002695  3.969948  0.003
C  C138  1  0.78483924  0.10690882  0.19336507  1  0.031411  -0.015446  -0.068045  -0.119889  -0.016154  3.919406  -0.009
C  C139  1  0.49327774  0.35441790  0.13911054  1  1.561003  -0.017282  0.224901  0.568639  -0.019937  4.184339  -0.011
C  C140  1  0.42800853  0.26633084  0.19599187  1  0.498724  -0.001095  0.124983  0.131341  -0.002709  3.969971  0.003
C  C141  1  0.32205835  0.21516424  0.19336242  1  0.04638  -0.015433  -0.068011  -0.11986  -0.016159  3.919221  -0.009
C  C142  1  0.73114165  0.86557133  0.75000245  1  -0.051461  -0.004544  -0.071398  -0.045683  -0.004688  4.00851  -0.001
C  C143  1  0.13443414  0.86556768  0.75000057  1  -0.143477  -0.004631  -0.071378  -0.04567  -0.004681  4.008706  -0.001
C  C144  1  0.13442255  0.26884683  0.75000105  1  -0.052154  -0.004546  -0.071661  -0.046035  -0.004691  4.008632  -0.001
C  C145  1  0.26885072  0.13442649  0.75000086  1  -0.080733  -0.00456  -0.071507  -0.045816  -0.00469  4.008478  -0.001
C  C146  1  0.86557116  0.13443167  0.75000210  1  -0.142447  -0.004644  -0.071387  -0.045638  -0.004695  4.008636  -0.001
C  C147  1  0.86557036  0.73113862  0.74999582  1  -0.05109  -0.004534  -0.071424  -0.045685  -0.004678  4.008601  -0.001
C  C148  1  0.26886011  0.13443386  0.24999860  1  -0.080591  -0.004562  -0.071479  -0.045819  -0.004692  4.008664  -0.001
C  C149  1  0.86556810  0.13443571  0.25000112  1  -0.143475  -0.004631  -0.071414  -0.04576  -0.004682  4.008825  -0.001
C  C150  1  0.86557828  0.73115666  0.24999871  1  -0.052213  -0.004542  -0.071718  -0.046173  -0.004687  4.008759  -0.001
C  C151  1  0.73114776  0.86557541  0.24999890  1  -0.051822  -0.00453  -0.071419  -0.045767  -0.004674  4.008494  -0.001
C  C152  1  0.13443243  0.86556775  0.25000024  1  -0.142443  -0.004645  -0.071309  -0.045576  -0.004696  4.008536  -0.001
C  C153  1  0.13442825  0.26885658  0.25000458  1  -0.051106  -0.004545  -0.071419  -0.045766  -0.004688  4.008608  -0.001
N  N154  1  0.52086193  0.76042527  0.74999687  1  -1.240516  -0.0176  -0.386307  -0.348295  -0.018252  3.542786  -0.014
N  N155  1  0.23956900  0.76042226  0.75000170  1  -1.229258  -0.017592  -0.386432  -0.348456  -0.018237  3.542869  -0.014
N  N156  1  0.23956776  0.47912878  0.74999970  1  -1.240695  -0.017597  -0.386368  -0.348348  -0.018248  3.543145  -0.014
N  N157  1  0.47913369  0.23956669  0.75000193  1  -1.239636  -0.017604  -0.386285  -0.348247  -0.018254  3.542703  -0.014
N  N158  1  0.76042502  0.23956734  0.75000032  1  -1.228472  -0.017616  -0.386556  -0.348435  -0.018261  3.542999  -0.014
N  N159  1  0.76043117  0.52086117  0.74999975  1  -1.240336  -0.017576  -0.386368  -0.348391  -0.018228  3.542804  -0.014
N  N160  1  0.47914050  0.23958058  0.25000739  1  -1.239975  -0.017608  -0.38629  -0.348191  -0.018259  3.54276  -0.014
N  N161  1  0.76043128  0.23957916  0.25000513  1  -1.229316  -0.017593  -0.386366  -0.348433  -0.018238  3.542828  -0.014
N  N162  1  0.76043695  0.52087479  0.25000650  1  -1.240659  -0.01759  -0.386388  -0.34834  -0.018241  3.54319  -0.014
N  N163  1  0.52086669  0.76043332  0.24999075  1  -1.239542  -0.01757  -0.38615  -0.348414  -0.018219  3.542766  -0.014
N  N164  1  0.23956701  0.76042129  0.24998979  1  -1.22908  -0.017618  -0.386493  -0.348391  -0.018262  3.542935  -0.014
N  N165  1  0.23956941  0.47913600  0.24999422  1  -1.24075  -0.017597  -0.386415  -0.348415  -0.018248  3.542793  -0.014
O  O166  1  0.41048229  0.79928960  0.64283377  1  -1.17668  -0.008079  -0.363065  -0.626239  -0.008503  2.287675  -0.006
O  O167  1  0.55115195  0.93874879  0.59192694  1  -1.152391  0.066752  -0.301387  -0.531428  0.030887  2.350531  0.056
O  O168  1  0.20069391  0.61117012  0.64283911  1  -1.17186  -0.00808  -0.363036  -0.626035  -0.008503  2.287535  -0.006
O  O169  1  0.06125029  0.61240025  0.59192356  1  -1.149581  0.066773  -0.301364  -0.531411  0.03089  2.350567  0.056
O  O170  1  0.38881445  0.58950292  0.64283503  1  -1.169865  -0.008079  -0.362951  -0.625895  -0.008506  2.287865  -0.006
O  O171  1  0.38759062  0.44883009  0.59192443  1  -1.15116  0.066711  -0.301402  -0.531369  0.030887  2.350278  0.056
O  O172  1  0.58951692  0.20069130  0.64283984  1  -1.176761  -0.008085  -0.363057  -0.626056  -0.008508  2.287773  -0.006
O  O173  1  0.44884317  0.06124691  0.59192489  1  -1.152615  0.066753  -0.301337  -0.531313  0.030885  2.350445  0.056
O  O174  1  0.79929168  0.38881387  0.64283964  1  -1.171546  -0.008084  -0.363067  -0.62613  -0.008507  2.287578  -0.006
O  O175  1  0.93874827  0.38760647  0.59192763  1  -1.149482  0.066765  -0.301377  -0.531466  0.030891  2.350773  0.056
O  O176  1  0.61117843  0.41047774  0.64283987  1  -1.169975  -0.008071  -0.363114  -0.626294  -0.0085  2.287427  -0.006
O  O177  1  0.61240130  0.55114647  0.59192548  1  -1.150953  0.066704  -0.301321  -0.531409  0.030886  2.350693  0.056
O  O178  1  0.79930169  0.41048012  0.85716291  1  -1.176757  -0.008076  -0.363058  -0.626149  -0.008499  2.2877  -0.006
O  O179  1  0.93875140  0.55115249  0.90807014  1  -1.152457  0.066744  -0.301402  -0.53143  0.030887  2.350476  0.056
O  O180  1  0.61117865  0.20069268  0.85716179  1  -1.171574  -0.008087  -0.362985  -0.625962  -0.008509  2.287802  -0.006
O  O181  1  0.61240388  0.06124186  0.90807489  1  -1.149659  0.066769  -0.301367  -0.531356  0.030888  2.350324  0.056
O  O182  1  0.58950923  0.38881026  0.85716766  1  -1.170035  -0.008076  -0.3629  -0.626061  -0.008504  2.287722  -0.006
O  O183  1  0.44883942  0.38759247  0.90807517  1  -1.151042  0.066718  -0.30141  -0.531427  0.03089  2.350469  0.056
O  O184  1  0.20070511  0.58951337  0.85716173  1  -1.176586  -0.008077  -0.363049  -0.626108  -0.008501  2.287739  -0.006
O  O185  1  0.06125191  0.44884823  0.90807242  1  -1.152488  0.066723  -0.301309  -0.531338  0.030877  2.350761  0.056
O  O186  1  0.38882113  0.79929075  0.85715899  1  -1.171735  -0.008079  -0.363107  -0.626219  -0.008503  2.287398  -0.006
O  O187  1  0.38760480  0.93874298  0.90807217  1  -1.149342  0.066763  -0.301332  -0.531421  0.030888  2.350695  0.056
O  O188  1  0.41048142  0.61116784  0.85715763  1  -1.17022  -0.008083  -0.363061  -0.626017  -0.008511  2.287729  -0.006
O  O189  1  0.55115328  0.61239915  0.90807511  1  -1.151071  0.066717  -0.30134  -0.531298  0.030888  2.350463  0.056
O  O190  1  0.58951668  0.20071051  0.35716663  1  -1.176651  -0.00808  -0.363076  -0.62623  -0.008504  2.287673  -0.006
O  O191  1  0.44884645  0.06124925  0.40807153  1  -1.152376  0.066744  -0.301386  -0.531448  0.030886  2.350425  0.056
O  O192  1  0.79930844  0.38883186  0.35716580  1  -1.171825  -0.00808  -0.36296  -0.626025  -0.008502  2.287644  -0.006
O  O193  1  0.93875496  0.38760539  0.40808006  1  -1.149848  0.066779  -0.3014  -0.531423  0.030898  2.350615  0.056
O  O194  1  0.61118808  0.41050151  0.35716859  1  -1.169796  -0.008077  -0.362934  -0.625974  -0.008505  2.28782  -0.006
O  O195  1  0.61241077  0.55117548  0.40807791  1  -1.151265  0.066714  -0.301383  -0.531305  0.030887  2.350113  0.056
O  O196  1  0.41047381  0.79929601  0.35715671  1  -1.176707  -0.008075  -0.363113  -0.62632  -0.0085  2.287499  -0.006
O  O197  1  0.55114264  0.93874005  0.40807036  1  -1.15222  0.066729  -0.301435  -0.531567  0.030881  2.350672  0.056
O  O198  1  0.20069828  0.61117420  0.35715368  1  -1.171926  -0.008089  -0.363118  -0.626154  -0.008511  2.287682  -0.006
O  O199  1  0.06124880  0.61239553  0.40806827  1  -1.149468  0.066761  -0.301365  -0.531394  0.030884  2.350546  0.056
O  O200  1  0.38881620  0.58951881  0.35715668  1  -1.17019  -0.008079  -0.363025  -0.626167  -0.008507  2.287433  -0.006
O  O201  1  0.38759438  0.44885035  0.40807300  1  -1.150916  0.066708  -0.301291  -0.531349  0.030881  2.350619  0.056
O  O202  1  0.20069532  0.58951273  0.14283106  1  -1.176749  -0.008081  -0.363005  -0.626007  -0.008504  2.287712  -0.006
O  O203  1  0.06124119  0.44883821  0.09192898  1  -1.152331  0.066751  -0.301388  -0.531309  0.030881  2.35045  0.056
O  O204  1  0.38881357  0.79929840  0.14283218  1  -1.171228  -0.008083  -0.363001  -0.626028  -0.008507  2.287525  -0.006
O  O205  1  0.38759943  0.93875652  0.09192294  1  -1.149648  0.066772  -0.301352  -0.53139  0.030892  2.350488  0.056
O  O206  1  0.41049138  0.61118163  0.14282889  1  -1.169917  -0.008061  -0.362826  -0.626048  -0.00849  2.287471  -0.006
O  O207  1  0.55116549  0.61240827  0.09192202  1  -1.15126  0.066708  -0.301445  -0.531498  0.030888  2.350489  0.056
O  O208  1  0.79929648  0.41048937  0.14284061  1  -1.17656  -0.008076  -0.363044  -0.626057  -0.0085  2.287691  -0.006
O  O209  1  0.93874723  0.55115433  0.09192992  1  -1.152433  0.066717  -0.301335  -0.531351  0.030876  2.350717  0.056
O  O210  1  0.61118139  0.20071368  0.14284270  1  -1.171485  -0.00808  -0.363076  -0.626119  -0.008504  2.287321  -0.006
O  O211  1  0.61239838  0.06126211  0.09193145  1  -1.149148  0.066763  -0.301385  -0.53146  0.030883  2.350561  0.056
O  O212  1  0.58952120  0.38883518  0.14284471  1  -1.170311  -0.008087  -0.363103  -0.626093  -0.008514  2.287785  -0.006
O  O213  1  0.44884880  0.38760179  0.09192594  1  -1.151008  0.066713  -0.301333  -0.531347  0.030887  2.350477  0.056
O  O214  1  0.35527420  0.86332456  0.49999822  1  -1.225844  0.080204  -0.575604  -0.739132  0.037112  2.037957  0.055
O  O215  1  0.13667904  0.49194499  0.49999837  1  -1.240842  0.080037  -0.575639  -0.739183  0.037114  2.038042  0.055
O  O216  1  0.50805088  0.64473041  0.49999927  1  -1.225705  0.07999  -0.575627  -0.739153  0.037114  2.038017  0.055
O  O217  1  0.64472787  0.13667638  0.50000090  1  -1.225816  0.080206  -0.575637  -0.73918  0.037113  2.037905  0.055
O  O218  1  0.86332604  0.50805820  0.50000332  1  -1.240906  0.080036  -0.575618  -0.739153  0.037114  2.038024  0.055
O  O219  1  0.49194854  0.35527318  0.50000050  1  -1.225798  0.079996  -0.575629  -0.739177  0.037115  2.037941  0.055
O  O220  1  0.86332225  0.35527333  0.00000488  1  -1.225716  0.080201  -0.575562  -0.739106  0.03711  2.038006  0.055
O  O221  1  0.49194539  0.13668079  0.00000204  1  -1.238845  0.080027  -0.575601  -0.739121  0.037112  2.03805  0.055
O  O222  1  0.64472661  0.50805101  0.99999940  1  -1.225647  0.079993  -0.575617  -0.739172  0.037115  2.038006  0.055
O  O223  1  0.13667726  0.64472885  0.99999681  1  -1.225772  0.080208  -0.575645  -0.739155  0.037112  2.037936  0.055
O  O224  1  0.50805883  0.86332458  0.99999965  1  -1.238887  0.080024  -0.575639  -0.739111  0.037113  2.038019  0.055
O  O225  1  0.35527578  0.49194896  0.99999973  1  -1.225694  0.079996  -0.575587  -0.739128  0.037115  2.038046  0.055
