# generated using pymatgen
data_ZnH11C19(NO2)2
_symmetry_space_group_name_H-M   'P 1'
_cell_length_a   11.49343344
_cell_length_b   15.22169843
_cell_length_c   18.17099082
_cell_angle_alpha   89.99998808
_cell_angle_beta   89.99999691
_cell_angle_gamma   89.99996464
_symmetry_Int_Tables_number   1
_chemical_formula_structural   ZnH11C19(NO2)2
_chemical_formula_sum   'Zn4 H44 C76 N8 O16'
_cell_volume   3179.00717079
_cell_formula_units_Z   4
loop_
 _symmetry_equiv_pos_site_id
 _symmetry_equiv_pos_as_xyz
  1  'x, y, z'
loop_
 _atom_site_type_symbol
 _atom_site_label
 _atom_site_symmetry_multiplicity
 _atom_site_fract_x
 _atom_site_fract_y
 _atom_site_fract_z
 _atom_site_occupancy
 _atom_site_hle17_bader_spin_density
 _atom_site_hle17_ddec_charge
 _atom_site_hle17_ddec_spin_density
 _atom_site_hle17_ddec_sum_bond_order
 _atom_site_hle17_magmom
 _atom_site_hse06_10hf_bader_spin_density
 _atom_site_hse06_10hf_ddec_charge
 _atom_site_hse06_10hf_ddec_spin_density
 _atom_site_hse06_10hf_ddec_sum_bond_order
 _atom_site_hse06_10hf_magmom
 _atom_site_hse06_bader_spin_density
 _atom_site_hse06_ddec_charge
 _atom_site_hse06_ddec_spin_density
 _atom_site_hse06_ddec_sum_bond_order
 _atom_site_hse06_magmom
 _atom_site_pbe_bader_spin_density
 _atom_site_pbe_cm5_charge
 _atom_site_pbe_ddec_charge
 _atom_site_pbe_ddec_spin_density
 _atom_site_pbe_ddec_sum_bond_order
 _atom_site_pbe_magmom
Zn  Zn0  1  0.50000006  0.44769094  0.90165139  1  0  1.051514  0  1.857575  0  0  0.858058  0  2.347228  0  0  0.910175  0  2.283774  0  0  0.684505  0.822071  0  2.390784  0
Zn  Zn1  1  0.50000006  0.55230880  0.09834846  1  0  1.051521  0  1.857531  0  0  0.858066  0  2.347216  0  0  0.91018  0  2.283761  0  0  0.684502  0.822087  0  2.390776  0
Zn  Zn2  1  0.50000025  0.05230937  0.40165117  1  0  1.051515  0  1.85755  0  0  0.858085  0  2.347192  0  0  0.910202  0  2.283736  0  0  0.684509  0.8221  0  2.390727  0
Zn  Zn3  1  0.49999987  0.94769103  0.59834868  1  0  1.05152  0  1.857571  0  0  0.858069  0  2.347227  0  0  0.910185  0  2.283771  0  0  0.684499  0.82208  0  2.390762  0
H  H4  1  0.50000027  0.02824835  0.16715818  1  0  0.119033  0  0.931744  0  0  0.128024  0  0.990478  0  0  0.132739  0  0.986218  0  0  0.109729  0.124563  0  0.993666  0
H  H5  1  0.49999985  0.97175205  0.83284167  1  0  0.119035  0  0.931729  0  0  0.128027  0  0.990464  0  0  0.132742  0  0.986204  0  0  0.109737  0.124573  0  0.993645  0
H  H6  1  0.50000006  0.47175202  0.66715840  1  0  0.119028  0  0.931736  0  0  0.128019  0  0.990473  0  0  0.132733  0  0.986212  0  0  0.109733  0.124559  0  0.993668  0
H  H7  1  0.50000006  0.52824838  0.33284145  1  0  0.119039  0  0.931728  0  0  0.128031  0  0.990465  0  0  0.132746  0  0.986204  0  0  0.109755  0.12457  0  0.993655  0
H  H8  1  0.50000016  0.20400262  0.97964496  1  0  0.123206  0  0.93419  0  0  0.132753  0  0.99304  0  0  0.137125  0  0.989179  0  0  0.110451  0.129525  0  0.995947  0
H  H9  1  0.49999996  0.79599712  0.02035489  1  0  0.123181  0  0.934206  0  0  0.132725  0  0.993062  0  0  0.137097  0  0.989201  0  0  0.110459  0.129503  0  0.99597  0
H  H10  1  0.50000014  0.29599702  0.47964470  1  0  0.123162  0  0.934219  0  0  0.132707  0  0.993075  0  0  0.137078  0  0.989215  0  0  0.110444  0.129477  0  0.995988  0
H  H11  1  0.49999998  0.70400273  0.52035515  1  0  0.12318  0  0.934197  0  0  0.132728  0  0.99305  0  0  0.1371  0  0.98919  0  0  0.110457  0.129497  0  0.995961  0
H  H12  1  0.50000015  0.30723890  0.20089380  1  0  0.118108  0  0.937152  0  0  0.124079  0  1.002178  0  0  0.129388  0  0.996574  0  0  0.106681  0.120163  0  1.006318  0
H  H13  1  0.49999997  0.69276085  0.79910660  1  0  0.118093  0  0.937159  0  0  0.124053  0  1.002198  0  0  0.12936  0  0.996595  0  0  0.106669  0.120138  0  1.006331  0
H  H14  1  0.50000018  0.19276081  0.70089351  1  0  0.118111  0  0.937151  0  0  0.124083  0  1.002177  0  0  0.129391  0  0.996573  0  0  0.106683  0.120167  0  1.006326  0
H  H15  1  0.49999994  0.80723959  0.29910634  1  0  0.118077  0  0.937063  0  0  0.124047  0  1.002099  0  0  0.129357  0  0.996495  0  0  0.106657  0.120132  0  1.00625  0
H  H16  1  0.30234725  0.32274566  0.95211646  1  0  0.09495  0  0.926849  0  0  0.105385  0  0.982776  0  0  0.10751  0  0.981431  0  0  0.125785  0.103803  0  0.983876  0
H  H17  1  0.30234715  0.67725418  0.04788340  1  0  0.094949  0  0.926856  0  0  0.105394  0  0.982772  0  0  0.107519  0  0.981427  0  0  0.125789  0.103813  0  0.983874  0
H  H18  1  0.69765305  0.17725398  0.45211621  1  0  0.09496  0  0.926828  0  0  0.105398  0  0.982757  0  0  0.107523  0  0.981411  0  0  0.125796  0.103817  0  0.98386  0
H  H19  1  0.69765366  0.82274567  0.54788363  1  0  0.094947  0  0.926845  0  0  0.105391  0  0.982762  0  0  0.107516  0  0.981417  0  0  0.125786  0.10381  0  0.98387  0
H  H20  1  0.69765374  0.67725343  0.04788394  1  0  0.094947  0  0.926898  0  0  0.105381  0  0.982822  0  0  0.107507  0  0.981475  0  0  0.125781  0.1038  0  0.983929  0
H  H21  1  0.69765297  0.32274623  0.95211645  1  0  0.094959  0  0.926845  0  0  0.105395  0  0.98277  0  0  0.107519  0  0.981425  0  0  0.125787  0.103812  0  0.983868  0
H  H22  1  0.30234620  0.82274642  0.54788364  1  0  0.094957  0  0.926832  0  0  0.105402  0  0.982749  0  0  0.107527  0  0.981403  0  0  0.125791  0.103818  0  0.983861  0
H  H23  1  0.30234646  0.17725407  0.45211622  1  0  0.094955  0  0.926833  0  0  0.105398  0  0.98275  0  0  0.107523  0  0.981404  0  0  0.125785  0.103809  0  0.983858  0
H  H24  1  0.08697906  0.31535757  0.95266019  1  0  0.103852  0  0.951252  0  0  0.117077  0  1.003901  0  0  0.120321  0  1.002864  0  0  0.111126  0.115009  0  1.004374  0
H  H25  1  0.08697982  0.68464171  0.04733968  1  0  0.103863  0  0.951253  0  0  0.117089  0  1.0039  0  0  0.120333  0  1.002862  0  0  0.11113  0.115023  0  1.004368  0
H  H26  1  0.91302038  0.18464207  0.45266048  1  0  0.103859  0  0.951267  0  0  0.117085  0  1.003914  0  0  0.120328  0  1.002876  0  0  0.111123  0.115021  0  1.004388  0
H  H27  1  0.91302011  0.81535814  0.54734046  1  0  0.103864  0  0.95125  0  0  0.117091  0  1.003895  0  0  0.120335  0  1.002857  0  0  0.111138  0.115029  0  1.004373  0
H  H28  1  0.91302019  0.68464217  0.04734022  1  0  0.103877  0  0.951235  0  0  0.117104  0  1.003881  0  0  0.120348  0  1.002844  0  0  0.111137  0.115034  0  1.004354  0
H  H29  1  0.91302030  0.31535804  0.95266017  1  0  0.10386  0  0.951249  0  0  0.117086  0  1.003896  0  0  0.120329  0  1.002858  0  0  0.111129  0.115021  0  1.004367  0
H  H30  1  0.08697974  0.81535833  0.54733992  1  0  0.103874  0  0.951245  0  0  0.117101  0  1.00389  0  0  0.120345  0  1.002852  0  0  0.11114  0.115035  0  1.004374  0
H  H31  1  0.08697914  0.18464226  0.45265994  1  0  0.103864  0  0.951243  0  0  0.11709  0  1.003891  0  0  0.120334  0  1.002853  0  0  0.111132  0.11502  0  1.004371  0
H  H32  1  0.08661614  0.57531018  0.85512393  1  0  0.102932  0  0.951742  0  0  0.116491  0  1.004254  0  0  0.119694  0  1.00327  0  0  0.110807  0.11441  0  1.004824  0
H  H33  1  0.08661624  0.42468976  0.14487594  1  0  0.102905  0  0.951744  0  0  0.116465  0  1.00426  0  0  0.119665  0  1.003278  0  0  0.110798  0.114387  0  1.004821  0
H  H34  1  0.91338376  0.92468959  0.35512418  1  0  0.102926  0  0.951746  0  0  0.116485  0  1.004258  0  0  0.119687  0  1.003274  0  0  0.110808  0.11441  0  1.004832  0
H  H35  1  0.91338410  0.07531062  0.64487620  1  0  0.102921  0  0.951733  0  0  0.116479  0  1.004248  0  0  0.11968  0  1.003266  0  0  0.110802  0.114401  0  1.00482  0
H  H36  1  0.91338398  0.42468957  0.14487592  1  0  0.102929  0  0.951739  0  0  0.116488  0  1.004252  0  0  0.11969  0  1.003268  0  0  0.110807  0.114407  0  1.004818  0
H  H37  1  0.91338388  0.57530999  0.85512391  1  0  0.102944  0  0.951724  0  0  0.116504  0  1.004238  0  0  0.119706  0  1.003255  0  0  0.110813  0.114424  0  1.004805  0
H  H38  1  0.08661636  0.07531081  0.64487622  1  0  0.102934  0  0.951737  0  0  0.116492  0  1.004249  0  0  0.119694  0  1.003265  0  0  0.110806  0.114409  0  1.004827  0
H  H39  1  0.08661602  0.92468978  0.35512420  1  0  0.102931  0  0.951732  0  0  0.116491  0  1.004244  0  0  0.119693  0  1.003262  0  0  0.110817  0.114412  0  1.004826  0
H  H40  1  0.30175638  0.56957818  0.85801095  1  0  0.095115  0  0.925137  0  0  0.105406  0  0.980263  0  0  0.107699  0  0.978677  0  0  0.126042  0.103788  0  0.981412  0
H  H41  1  0.30175734  0.43042166  0.14198891  1  0  0.095154  0  0.925109  0  0  0.105462  0  0.980211  0  0  0.107742  0  0.978641  0  0  0.126061  0.103844  0  0.981354  0
H  H42  1  0.69824352  0.93042159  0.35801120  1  0  0.09516  0  0.925139  0  0  0.105456  0  0.980255  0  0  0.107747  0  0.978671  0  0  0.126057  0.103841  0  0.98141  0
H  H43  1  0.69824299  0.06957872  0.64198919  1  0  0.095159  0  0.92511  0  0  0.105464  0  0.980214  0  0  0.107745  0  0.978643  0  0  0.126059  0.103848  0  0.981368  0
H  H44  1  0.69824287  0.43042156  0.14198946  1  0  0.09516  0  0.925123  0  0  0.105466  0  0.980228  0  0  0.107747  0  0.978657  0  0  0.126048  0.103846  0  0.981375  0
H  H45  1  0.69824365  0.56957809  0.85801094  1  0  0.095116  0  0.925133  0  0  0.105406  0  0.980257  0  0  0.107699  0  0.978671  0  0  0.126045  0.103789  0  0.981404  0
H  H46  1  0.30175660  0.06957816  0.64198920  1  0  0.095157  0  0.92512  0  0  0.105465  0  0.980222  0  0  0.107745  0  0.978651  0  0  0.126055  0.103845  0  0.981377  0
H  H47  1  0.30175713  0.93042168  0.35801066  1  0  0.095166  0  0.925112  0  0  0.105473  0  0.980213  0  0  0.107753  0  0.978642  0  0  0.126062  0.103855  0  0.981372  0
C  C48  1  0.50000021  0.16607068  0.19198400  1  0  -0.055187  0  3.766757  0  0  -0.029171  0  4.000367  0  0  -0.038641  0  4.024446  0  0  -0.020324  -0.023436  0  3.984256  0
C  C49  1  0.49999991  0.83392841  0.80801640  1  0  -0.055259  0  3.766866  0  0  -0.029271  0  4.00053  0  0  -0.038739  0  4.024604  0  0  -0.020333  -0.023521  0  3.98441  0
C  C50  1  0.50000012  0.33392903  0.69198369  1  0  -0.055185  0  3.76673  0  0  -0.029167  0  4.00034  0  0  -0.038641  0  4.024419  0  0  -0.020323  -0.023444  0  3.984244  0
C  C51  1  0.50000000  0.66607138  0.30801616  1  0  -0.055223  0  3.766774  0  0  -0.029206  0  4.000386  0  0  -0.038677  0  4.024463  0  0  -0.020339  -0.023486  0  3.98429  0
C  C52  1  0.49999937  0.09425347  0.14407413  1  0  -0.08864  0  3.640359  0  0  -0.122811  0  3.881063  0  0  -0.120385  0  3.896837  0  0  -0.071182  -0.123904  0  3.870234  0
C  C53  1  0.49999988  0.90574561  0.85592572  1  0  -0.088572  0  3.64034  0  0  -0.122741  0  3.881059  0  0  -0.120314  0  3.896831  0  0  -0.07116  -0.12383  0  3.870221  0
C  C54  1  0.50000009  0.40574625  0.64407381  1  0  -0.088582  0  3.640312  0  0  -0.122752  0  3.881013  0  0  -0.120325  0  3.896788  0  0  -0.071168  -0.123849  0  3.870197  0
C  C55  1  0.50000003  0.59425416  0.35592605  1  0  -0.088597  0  3.640325  0  0  -0.122771  0  3.88103  0  0  -0.120343  0  3.896803  0  0  -0.071175  -0.123863  0  3.870203  0
C  C56  1  0.49999937  0.10642033  0.06713501  1  0  0.113856  0  3.917987  0  0  0.132727  0  4.150657  0  0  0.132595  0  4.172885  0  0  -0.00552  0.132456  0  4.135654  0
C  C57  1  0.49999988  0.89357942  0.93286484  1  0  0.113764  0  3.91802  0  0  0.132639  0  4.150699  0  0  0.132507  0  4.172926  0  0  -0.005545  0.13238  0  4.135691  0
C  C58  1  0.50000010  0.39357941  0.56713469  1  0  0.113768  0  3.918028  0  0  0.132645  0  4.150705  0  0  0.13251  0  4.172933  0  0  -0.005571  0.132366  0  4.135695  0
C  C59  1  0.49999915  0.60642099  0.43286516  1  0  0.113752  0  3.917993  0  0  0.13263  0  4.15067  0  0  0.132495  0  4.172897  0  0  -0.0056  0.132355  0  4.135649  0
C  C60  1  0.49999934  0.19256643  0.03890099  1  0  -0.107528  0  3.664439  0  0  -0.140289  0  3.905159  0  0  -0.138553  0  3.922499  0  0  -0.079336  -0.141025  0  3.893404  0
C  C61  1  0.49999991  0.80743331  0.96109886  1  0  -0.107358  0  3.66441  0  0  -0.140115  0  3.905136  0  0  -0.138381  0  3.922476  0  0  -0.079278  -0.140853  0  3.893392  0
C  C62  1  0.50000014  0.30743331  0.53890068  1  0  -0.107349  0  3.664401  0  0  -0.140106  0  3.905124  0  0  -0.13837  0  3.922465  0  0  -0.079287  -0.140845  0  3.89337  0
C  C63  1  0.49999998  0.69256643  0.46109862  1  0  -0.107357  0  3.664374  0  0  -0.140117  0  3.905089  0  0  -0.138382  0  3.92243  0  0  -0.079258  -0.140851  0  3.893328  0
C  C64  1  0.49999930  0.26444211  0.08700348  1  0  -0.094735  0  3.818507  0  0  -0.070794  0  4.062497  0  0  -0.082229  0  4.088571  0  0  -0.032575  -0.063626  0  4.045066  0
C  C65  1  0.49999995  0.73555763  0.91299637  1  0  -0.094742  0  3.818575  0  0  -0.07081  0  4.062564  0  0  -0.082243  0  4.088639  0  0  -0.032536  -0.06364  0  4.045148  0
C  C66  1  0.50000016  0.23555762  0.58700373  1  0  -0.09471  0  3.818562  0  0  -0.070775  0  4.062552  0  0  -0.082211  0  4.088628  0  0  -0.032539  -0.06361  0  4.045119  0
C  C67  1  0.49999996  0.76444278  0.41299667  1  0  -0.094754  0  3.818555  0  0  -0.070816  0  4.06255  0  0  -0.082252  0  4.088621  0  0  -0.032604  -0.063659  0  4.045127  0
C  C68  1  0.50000018  0.25138048  0.16340163  1  0  -0.072639  0  3.701427  0  0  -0.109821  0  3.948976  0  0  -0.106327  0  3.96724  0  0  -0.080556  -0.111721  0  3.936656  0
C  C69  1  0.49999994  0.74861992  0.83659822  1  0  -0.072573  0  3.701517  0  0  -0.109732  0  3.949086  0  0  -0.106236  0  3.967345  0  0  -0.08053  -0.111631  0  3.93676  0
C  C70  1  0.50000016  0.24861989  0.66340188  1  0  -0.072662  0  3.701454  0  0  -0.109844  0  3.949004  0  0  -0.106346  0  3.967266  0  0  -0.080571  -0.111748  0  3.936697  0
C  C71  1  0.49999996  0.75137986  0.33659852  1  0  -0.072629  0  3.701382  0  0  -0.109813  0  3.948936  0  0  -0.106317  0  3.967198  0  0  -0.080554  -0.111718  0  3.936633  0
C  C72  1  0.50000021  0.15106052  0.27419912  1  0  0.624824  0  3.959213  0  0  0.580589  0  4.250216  0  0  0.614128  0  4.244804  0  0  0.185682  0.558104  0  4.253266  0
C  C73  1  0.49999991  0.84893922  0.72580074  1  0  0.624836  0  3.959226  0  0  0.580586  0  4.250253  0  0  0.614126  0  4.244842  0  0  0.185683  0.558091  0  4.253312  0
C  C74  1  0.50000011  0.34893917  0.77419935  1  0  0.62485  0  3.959208  0  0  0.580604  0  4.250215  0  0  0.614144  0  4.244802  0  0  0.185686  0.558125  0  4.253272  0
C  C75  1  0.50000001  0.65106124  0.22580105  1  0  0.624877  0  3.959151  0  0  0.580645  0  4.250148  0  0  0.614184  0  4.244734  0  0  0.185709  0.55817  0  4.253201  0
C  C76  1  0.50000014  0.35556598  0.05582520  1  0  0.663868  0  3.908764  0  0  0.607641  0  4.208914  0  0  0.643677  0  4.199898  0  0  0.217086  0.583223  0  4.214736  0
C  C77  1  0.49999998  0.64443311  0.94417520  1  0  0.663807  0  3.908872  0  0  0.607598  0  4.208999  0  0  0.643626  0  4.199996  0  0  0.217083  0.583183  0  4.214822  0
C  C78  1  0.50000020  0.14443311  0.55582493  1  0  0.663779  0  3.908903  0  0  0.607567  0  4.209033  0  0  0.643596  0  4.200029  0  0  0.21706  0.583145  0  4.214861  0
C  C79  1  0.49999992  0.85556730  0.44417493  1  0  0.663831  0  3.908841  0  0  0.607602  0  4.208994  0  0  0.643644  0  4.199969  0  0  0.217092  0.583186  0  4.21481  0
C  C80  1  0.49999940  0.03250020  0.01964944  1  0  -0.11129  0  3.898615  0  0  -0.111656  0  4.148102  0  0  -0.115295  0  4.179788  0  0  -0.049659  -0.109235  0  4.126835  0
C  C81  1  0.49999985  0.96749955  0.98035096  1  0  -0.111339  0  3.898657  0  0  -0.111704  0  4.14814  0  0  -0.115344  0  4.179826  0  0  -0.049636  -0.109294  0  4.126873  0
C  C82  1  0.50000007  0.46749956  0.51964910  1  0  -0.111451  0  3.898679  0  0  -0.111829  0  4.148178  0  0  -0.115465  0  4.17986  0  0  -0.049719  -0.109409  0  4.126919  0
C  C83  1  0.49999918  0.53250085  0.48035075  1  0  -0.11124  0  3.898582  0  0  -0.111607  0  4.148072  0  0  -0.115242  0  4.179753  0  0  -0.049619  -0.109199  0  4.126813  0
C  C84  1  0.25005911  0.37722317  0.93143734  1  0  0.139276  0  3.697726  0  0  0.108835  0  3.94616  0  0  0.115368  0  3.965471  0  0  0.056417  0.104725  0  3.932546  0
C  C85  1  0.25005905  0.62277669  0.06856307  1  0  0.139287  0  3.697729  0  0  0.108841  0  3.946164  0  0  0.115375  0  3.965474  0  0  0.056429  0.104735  0  3.932561  0
C  C86  1  0.74994120  0.12277582  0.43143765  1  0  0.139304  0  3.69766  0  0  0.10885  0  3.946115  0  0  0.115385  0  3.965424  0  0  0.056409  0.10474  0  3.932511  0
C  C87  1  0.74994088  0.87722315  0.56856274  1  0  0.139281  0  3.697704  0  0  0.108837  0  3.946138  0  0  0.115372  0  3.965447  0  0  0.056417  0.104724  0  3.932547  0
C  C88  1  0.74994101  0.62277592  0.06856306  1  0  0.139287  0  3.697799  0  0  0.108861  0  3.946236  0  0  0.115395  0  3.965547  0  0  0.056442  0.104749  0  3.932633  0
C  C89  1  0.74994107  0.37722305  0.93143733  1  0  0.139253  0  3.697751  0  0  0.108812  0  3.946187  0  0  0.115346  0  3.965497  0  0  0.056405  0.104703  0  3.932572  0
C  C90  1  0.25005892  0.87722392  0.56856275  1  0  0.139299  0  3.697706  0  0  0.108852  0  3.946146  0  0  0.115386  0  3.965456  0  0  0.056418  0.104731  0  3.932552  0
C  C91  1  0.25005924  0.12277594  0.43143711  1  0  0.139286  0  3.697701  0  0  0.108854  0  3.946143  0  0  0.115388  0  3.965453  0  0  0.056429  0.104742  0  3.932527  0
C  C92  1  0.12915704  0.37408689  0.93132232  1  0  -0.16547  0  3.714641  0  0  -0.181772  0  3.963119  0  0  -0.189061  0  3.985255  0  0  -0.0811  -0.176272  0  3.948095  0
C  C93  1  0.12915697  0.62591303  0.06867754  1  0  -0.165485  0  3.714662  0  0  -0.18179  0  3.963142  0  0  -0.189074  0  3.985281  0  0  -0.08111  -0.176289  0  3.948116  0
C  C94  1  0.87084327  0.12591342  0.43132263  1  0  -0.165514  0  3.714627  0  0  -0.181812  0  3.963111  0  0  -0.189096  0  3.985248  0  0  -0.08109  -0.176314  0  3.948093  0
C  C95  1  0.87084296  0.87408681  0.56867776  1  0  -0.165475  0  3.714662  0  0  -0.181782  0  3.963142  0  0  -0.18907  0  3.985274  0  0  -0.081121  -0.176288  0  3.948134  0
C  C96  1  0.87084221  0.62591286  0.06867808  1  0  -0.165507  0  3.714657  0  0  -0.181811  0  3.963132  0  0  -0.189101  0  3.985267  0  0  -0.081115  -0.176309  0  3.948105  0
C  C97  1  0.87084228  0.37408671  0.93132231  1  0  -0.16548  0  3.714663  0  0  -0.181784  0  3.963142  0  0  -0.189073  0  3.985277  0  0  -0.081115  -0.176285  0  3.948119  0
C  C98  1  0.12915685  0.87408698  0.56867832  1  0  -0.165507  0  3.714642  0  0  -0.181812  0  3.963124  0  0  -0.189096  0  3.985263  0  0  -0.081124  -0.176318  0  3.94812  0
C  C99  1  0.12915716  0.12591294  0.43132209  1  0  -0.165479  0  3.714633  0  0  -0.181788  0  3.96311  0  0  -0.189077  0  3.985244  0  0  -0.081115  -0.176291  0  3.94809  0
C  C100  1  0.06451662  0.44554542  0.90438047  1  0  0.099836  0  3.744003  0  0  0.104496  0  3.991578  0  0  0.10707  0  4.016911  0  0  0.011404  0.101823  0  3.977064  0
C  C101  1  0.06451661  0.55445453  0.09561939  1  0  0.099821  0  3.744054  0  0  0.104482  0  3.99163  0  0  0.107042  0  4.016979  0  0  0.011434  0.101814  0  3.977112  0
C  C102  1  0.93548282  0.05445489  0.40438024  1  0  0.099842  0  3.74401  0  0  0.104501  0  3.991585  0  0  0.107064  0  4.016928  0  0  0.011406  0.101836  0  3.977074  0
C  C103  1  0.93548245  0.94554597  0.59561905  1  0  0.099728  0  3.744109  0  0  0.104391  0  3.991688  0  0  0.106971  0  4.017018  0  0  0.011376  0.101726  0  3.977167  0
C  C104  1  0.93548263  0.55445432  0.09561993  1  0  0.099805  0  3.744028  0  0  0.104466  0  3.991605  0  0  0.107045  0  4.016941  0  0  0.011386  0.101791  0  3.977083  0
C  C105  1  0.93548264  0.44554522  0.90438046  1  0  0.099746  0  3.744042  0  0  0.104408  0  3.991618  0  0  0.106983  0  4.016945  0  0  0.011377  0.101738  0  3.977105  0
C  C106  1  0.06451643  0.94554551  0.59562016  1  0  0.099823  0  3.744032  0  0  0.104481  0  3.991608  0  0  0.107039  0  4.01696  0  0  0.011393  0.101802  0  3.97709  0
C  C107  1  0.06451680  0.05445444  0.40437970  1  0  0.099781  0  3.744039  0  0  0.104446  0  3.991616  0  0  0.107024  0  4.016949  0  0  0.011392  0.101767  0  3.977108  0
C  C108  1  0.12887769  0.51714714  0.87745898  1  0  -0.164285  0  3.716321  0  0  -0.181212  0  3.965266  0  0  -0.18848  0  3.987424  0  0  -0.081066  -0.176085  0  3.950496  0
C  C109  1  0.12887774  0.48285277  0.12254033  1  0  -0.164264  0  3.716334  0  0  -0.1812  0  3.965288  0  0  -0.188461  0  3.987444  0  0  -0.08107  -0.176066  0  3.950506  0
C  C110  1  0.87112222  0.98285262  0.37745868  1  0  -0.164274  0  3.716352  0  0  -0.181202  0  3.9653  0  0  -0.188467  0  3.987458  0  0  -0.081077  -0.176078  0  3.950545  0
C  C111  1  0.87112173  0.01714827  0.62254116  1  0  -0.164196  0  3.71632  0  0  -0.181131  0  3.96526  0  0  -0.188397  0  3.987414  0  0  -0.081037  -0.176007  0  3.950495  0
C  C112  1  0.87112156  0.48285260  0.12254087  1  0  -0.164255  0  3.716396  0  0  -0.181183  0  3.965343  0  0  -0.188451  0  3.987496  0  0  -0.081071  -0.176053  0  3.950565  0
C  C113  1  0.87112151  0.51714763  0.87745897  1  0  -0.164245  0  3.716298  0  0  -0.181181  0  3.965238  0  0  -0.18845  0  3.987396  0  0  -0.081034  -0.176052  0  3.950466  0
C  C114  1  0.12887790  0.01714712  0.62254117  1  0  -0.16427  0  3.716343  0  0  -0.181197  0  3.965292  0  0  -0.18846  0  3.987451  0  0  -0.081079  -0.176076  0  3.950532  0
C  C115  1  0.12887839  0.98285279  0.37745924  1  0  -0.164232  0  3.71634  0  0  -0.181165  0  3.965284  0  0  -0.188432  0  3.987437  0  0  -0.081071  -0.176043  0  3.950537  0
C  C116  1  0.24973627  0.51509741  0.87900760  1  0  0.13937  0  3.698644  0  0  0.109277  0  3.947431  0  0  0.115943  0  3.966394  0  0  0.056231  0.105138  0  3.934113  0
C  C117  1  0.24973631  0.48490245  0.12099226  1  0  0.139334  0  3.698613  0  0  0.109236  0  3.947393  0  0  0.115913  0  3.966357  0  0  0.056221  0.105103  0  3.934063  0
C  C118  1  0.75026451  0.98490235  0.37900730  1  0  0.139324  0  3.698675  0  0  0.109231  0  3.947459  0  0  0.1159  0  3.966421  0  0  0.056239  0.105088  0  3.934156  0
C  C119  1  0.75026402  0.01509793  0.62099254  1  0  0.139305  0  3.698661  0  0  0.109214  0  3.947432  0  0  0.115885  0  3.966403  0  0  0.056231  0.105073  0  3.934123  0
C  C120  1  0.75026472  0.48490168  0.12099280  1  0  0.139282  0  3.698687  0  0  0.109194  0  3.947472  0  0  0.115869  0  3.966438  0  0  0.056246  0.105059  0  3.934146  0
C  C121  1  0.75026381  0.51509729  0.87900760  1  0  0.13937  0  3.698626  0  0  0.109286  0  3.947409  0  0  0.11595  0  3.966374  0  0  0.056226  0.105148  0  3.934089  0
C  C122  1  0.24973648  0.01509805  0.62099255  1  0  0.139315  0  3.698671  0  0  0.109214  0  3.947452  0  0  0.11589  0  3.966417  0  0  0.056226  0.105069  0  3.934139  0
C  C123  1  0.24973610  0.98490247  0.37900731  1  0  0.139277  0  3.698692  0  0  0.109194  0  3.94747  0  0  0.11587  0  3.966435  0  0  0.056223  0.105046  0  3.934167  0
N  N124  1  0.30992196  0.44682512  0.90631982  1  0  -0.301576  0  3.242352  0  0  -0.227033  0  3.508777  0  0  -0.245083  0  3.525142  0  0  -0.308168  -0.214321  0  3.496956  0
N  N125  1  0.30992195  0.55317472  0.09368003  1  0  -0.30158  0  3.242346  0  0  -0.227046  0  3.508782  0  0  -0.245096  0  3.525143  0  0  -0.308169  -0.214333  0  3.496962  0
N  N126  1  0.69007835  0.05317454  0.40631960  1  0  -0.301616  0  3.242346  0  0  -0.227077  0  3.508784  0  0  -0.245129  0  3.525148  0  0  -0.308196  -0.214364  0  3.496964  0
N  N127  1  0.69007884  0.94682512  0.59368025  1  0  -0.301573  0  3.24238  0  0  -0.227041  0  3.508815  0  0  -0.24509  0  3.525177  0  0  -0.308174  -0.214327  0  3.496997  0
N  N128  1  0.69007729  0.55317463  0.09368058  1  0  -0.301551  0  3.242322  0  0  -0.227051  0  3.508789  0  0  -0.2451  0  3.52515  0  0  -0.308202  -0.214339  0  3.496969  0
N  N129  1  0.69007817  0.44682503  0.90631982  1  0  -0.301571  0  3.242356  0  0  -0.227032  0  3.508782  0  0  -0.245084  0  3.525148  0  0  -0.308167  -0.214318  0  3.496957  0
N  N130  1  0.30992264  0.94682521  0.59368025  1  0  -0.301596  0  3.242387  0  0  -0.227065  0  3.508835  0  0  -0.245115  0  3.525195  0  0  -0.308191  -0.214351  0  3.497009  0
N  N131  1  0.30992215  0.05317463  0.40631906  1  0  -0.301569  0  3.242385  0  0  -0.227073  0  3.508855  0  0  -0.245122  0  3.525214  0  0  -0.308207  -0.214358  0  3.497023  0
O  O132  1  0.50000010  0.36195346  0.98607002  1  0  -0.652672  0  2.171757  0  0  -0.588568  0  2.469414  0  0  -0.615837  0  2.450385  0  0  -0.315075  -0.570185  0  2.482248  0
O  O133  1  0.50000002  0.63804695  0.01393038  1  0  -0.652669  0  2.171781  0  0  -0.588567  0  2.46943  0  0  -0.615835  0  2.450408  0  0  -0.315082  -0.570178  0  2.482261  0
O  O134  1  0.50000021  0.13804684  0.48606979  1  0  -0.652666  0  2.171789  0  0  -0.588572  0  2.46944  0  0  -0.615841  0  2.45042  0  0  -0.315093  -0.570192  0  2.482269  0
O  O135  1  0.49999991  0.86195291  0.51393006  1  0  -0.65266  0  2.171742  0  0  -0.588563  0  2.469415  0  0  -0.615837  0  2.450388  0  0  -0.315078  -0.570168  0  2.482225  0
O  O136  1  0.50000011  0.41895049  0.10145177  1  0  -0.639342  0  2.128116  0  0  -0.569687  0  2.406492  0  0  -0.596959  0  2.389048  0  0  -0.313816  -0.551311  0  2.418256  0
O  O137  1  0.50000001  0.58104925  0.89854808  1  0  -0.639284  0  2.128151  0  0  -0.569634  0  2.406519  0  0  -0.596908  0  2.389086  0  0  -0.313787  -0.551247  0  2.418271  0
O  O138  1  0.50000023  0.08104924  0.60145150  1  0  -0.639276  0  2.12817  0  0  -0.569631  0  2.40655  0  0  -0.596903  0  2.389111  0  0  -0.313789  -0.551259  0  2.418316  0
O  O139  1  0.49999989  0.91895051  0.39854835  1  0  -0.639294  0  2.128144  0  0  -0.569638  0  2.406516  0  0  -0.596916  0  2.389073  0  0  -0.313785  -0.551255  0  2.418265  0
O  O140  1  0.50000024  0.06878061  0.29333182  1  0  -0.661862  0  2.038794  0  0  -0.594291  0  2.299241  0  0  -0.625163  0  2.285469  0  0  -0.348514  -0.573922  0  2.308809  0
O  O141  1  0.49999987  0.93121914  0.70666859  1  0  -0.661856  0  2.038819  0  0  -0.594261  0  2.299258  0  0  -0.625132  0  2.285488  0  0  -0.348488  -0.573892  0  2.308831  0
O  O142  1  0.50000008  0.43121908  0.79333149  1  0  -0.661857  0  2.038804  0  0  -0.594264  0  2.299241  0  0  -0.625136  0  2.28547  0  0  -0.348487  -0.573898  0  2.308817  0
O  O143  1  0.50000004  0.56878067  0.20666836  1  0  -0.661851  0  2.038755  0  0  -0.594277  0  2.299198  0  0  -0.625149  0  2.285427  0  0  -0.348496  -0.573906  0  2.308766  0
O  O144  1  0.50000018  0.21440167  0.31789568  1  0  -0.618483  0  1.84587  0  0  -0.580656  0  2.045005  0  0  -0.602363  0  2.035756  0  0  -0.352552  -0.565743  0  2.051006  0
O  O145  1  0.49999994  0.78559741  0.68210362  1  0  -0.61852  0  1.845862  0  0  -0.580682  0  2.045  0  0  -0.602392  0  2.035751  0  0  -0.3526  -0.565775  0  2.051009  0
O  O146  1  0.50000013  0.28559800  0.81789593  1  0  -0.618515  0  1.845867  0  0  -0.580689  0  2.045006  0  0  -0.602395  0  2.035755  0  0  -0.352578  -0.565784  0  2.05102  0
O  O147  1  0.49999999  0.71440240  0.18210392  1  0  -0.618537  0  1.845847  0  0  -0.580711  0  2.044984  0  0  -0.602417  0  2.035733  0  0  -0.352584  -0.565801  0  2.050992  0
