# generated using pymatgen
data_CuH9C8N2ClO2
_symmetry_space_group_name_H-M   'P 1'
_cell_length_a   7.21193074
_cell_length_b   8.86764532
_cell_length_c   15.63951083
_cell_angle_alpha   104.19521850
_cell_angle_beta   97.63835762
_cell_angle_gamma   89.82438239
_symmetry_Int_Tables_number   1
_chemical_formula_structural   CuH9C8N2ClO2
_chemical_formula_sum   'Cu4 H36 C32 N8 Cl4 O8'
_cell_volume   960.59326818
_cell_formula_units_Z   4
loop_
 _symmetry_equiv_pos_site_id
 _symmetry_equiv_pos_as_xyz
  1  'x, y, z'
loop_
 _atom_site_type_symbol
 _atom_site_label
 _atom_site_symmetry_multiplicity
 _atom_site_fract_x
 _atom_site_fract_y
 _atom_site_fract_z
 _atom_site_occupancy
 _atom_site_pbe_cm5_charge
 _atom_site_pbe_ddec_charge
 _atom_site_pbe_ddec_spin_density
 _atom_site_pbe_ddec_sum_bond_order
 _atom_site_pbe_magmom
Cu  Cu0  1  0.16692310  0.21888707  0.28483381  1  0.636622  0.672611  -0.707399  2.374868  -0.53
Cu  Cu1  1  0.83280308  0.78112296  0.71528284  1  0.636178  0.671449  0.73665  2.374415  0.526
Cu  Cu2  1  0.66649201  0.03658030  0.28618632  1  0.635901  0.673371  -0.710457  2.375888  -0.532
Cu  Cu3  1  0.33318691  0.96351113  0.71388981  1  0.636092  0.673208  -0.704675  2.375567  -0.528
H  H4  1  0.86010865  0.27421154  0.20821162  1  0.29435  0.255526  -5.7e-05  0.988485  0.0
H  H5  1  0.13981841  0.72584402  0.79175808  1  0.294367  0.255551  0.000139  0.988797  0.0
H  H6  1  0.36094905  0.91442221  0.20879211  1  0.294641  0.254718  -5.1e-05  0.989366  0.0
H  H7  1  0.63897942  0.08553313  0.79114799  1  0.294483  0.254615  -8.4e-05  0.989716  0.0
H  H8  1  0.33795532  0.47450862  0.44515511  1  0.112356  0.089429  -0.001417  1.014288  -0.002
H  H9  1  0.66192679  0.52541314  0.55493787  1  0.112325  0.08954  0.001481  1.014827  0.002
H  H10  1  0.35257002  0.76595339  0.48055355  1  0.093924  0.123081  0.000612  1.039416  -0.001
H  H11  1  0.64754020  0.23394817  0.51949715  1  0.093978  0.12283  -0.000525  1.039447  0.001
H  H12  1  0.21344339  0.89852556  0.36189228  1  0.09854  0.111383  0.000102  1.030277  0.0
H  H13  1  0.78673818  0.10136615  0.63813742  1  0.098501  0.111066  -4.3e-05  1.030561  0.0
H  H14  1  0.06634861  0.73347166  0.21508595  1  0.104443  0.121883  -0.000812  1.043124  -0.001
H  H15  1  0.93387120  0.26645701  0.78493914  1  0.104345  0.121702  0.000848  1.04322  0.001
H  H16  1  0.93119171  0.46538908  0.13217072  1  0.115378  0.112678  -0.004039  0.943509  -0.005
H  H17  1  0.06894705  0.53466452  0.86786044  1  0.115458  0.113033  0.004229  0.943047  0.005
H  H18  1  0.15649255  0.38534599  0.12259625  1  0.1223  0.125315  -9.2e-05  0.96293  0.0
H  H19  1  0.84357667  0.61460224  0.87744282  1  0.122295  0.125261  3.1e-05  0.962869  0.0
H  H20  1  0.06779455  0.14046788  0.06093484  1  0.117649  0.128137  0.000272  1.00401  0.0
H  H21  1  0.93221670  0.85949576  0.93909681  1  0.117544  0.128198  -0.000735  1.003863  0.0
H  H22  1  0.82787365  0.11595792  0.06808100  1  0.107945  0.107007  -0.003124  1.000919  -0.003
H  H23  1  0.17210025  0.88398024  0.93193579  1  0.10805  0.107108  0.003008  1.000927  0.003
H  H24  1  0.83259149  0.92141481  0.44872915  1  0.113255  0.095467  -0.001567  0.999831  -0.002
H  H25  1  0.16730474  0.07871564  0.55128204  1  0.113069  0.095457  -0.001491  0.999888  -0.002
H  H26  1  0.85795618  0.66159480  0.48265238  1  0.097273  0.11646  -0.001845  1.031222  -0.001
H  H27  1  0.14215393  0.33854468  0.51732793  1  0.097232  0.116229  -0.001875  1.031709  -0.001
H  H28  1  0.72438965  0.42395416  0.36360454  1  0.097829  0.11064  0.000107  1.032015  0.0
H  H29  1  0.27575288  0.57616310  0.63638378  1  0.098022  0.110934  1.6e-05  1.031945  0.0
H  H30  1  0.57384421  0.46152341  0.21714241  1  0.104311  0.12277  -0.000859  1.039596  -0.001
H  H31  1  0.42628757  0.53857532  0.78284971  1  0.10439  0.123045  -0.000843  1.03937  -0.001
H  H32  1  0.65972750  0.72894055  0.12470097  1  0.121971  0.124183  -7.8e-05  0.966516  0.0
H  H33  1  0.34027732  0.27108221  0.87529807  1  0.121993  0.12421  5e-06  0.966423  0.0
H  H34  1  0.43473309  0.65723904  0.13381234  1  0.115631  0.112159  -0.004021  0.944056  -0.005
H  H35  1  0.56528297  0.34272552  0.86618778  1  0.115627  0.112114  -0.004017  0.944087  -0.005
H  H36  1  0.32972975  0.95118132  0.06861748  1  0.107807  0.106876  -0.00271  1.00106  -0.003
H  H37  1  0.67016367  0.04880330  0.93132370  1  0.107917  0.10725  -0.003176  1.000562  -0.003
H  H38  1  0.57004946  0.91914216  0.06199646  1  0.117869  0.127049  -0.000428  1.003304  0.0
H  H39  1  0.42994970  0.08086882  0.93797502  1  0.117855  0.12719  5.7e-05  1.003505  0.0
C  C40  1  0.27888117  0.53818301  0.39708598  1  0.047851  0.102089  0.000692  3.93376  0.002
C  C41  1  0.72110121  0.46171708  0.60298242  1  0.047668  0.101742  -0.000612  3.934351  -0.002
C  C42  1  0.28678457  0.69967792  0.41551361  1  -0.083723  -0.118629  -0.003316  3.940095  -0.004
C  C43  1  0.71331118  0.30021444  0.58453937  1  -0.083724  -0.118571  0.003496  3.939591  0.004
C  C44  1  0.20991107  0.77199309  0.34975791  1  -0.064874  -0.005647  0.00289  3.913656  0.003
C  C45  1  0.79021725  0.22790368  0.65028692  1  -0.064963  -0.005088  -0.002611  3.912342  -0.002
C  C46  1  0.12841859  0.68031546  0.26766529  1  -0.088165  -0.175314  -0.003187  3.928174  -0.003
C  C47  1  0.87168138  0.31960592  0.73238427  1  -0.087911  -0.175406  0.003396  3.927849  0.003
C  C48  1  0.12593520  0.51917031  0.25358786  1  0.115766  0.224903  -0.001624  3.95643  -0.001
C  C49  1  0.87412480  0.48076289  0.74645687  1  0.115578  0.22536  0.001866  3.956944  0.001
C  C50  1  0.04643169  0.41096185  0.16633571  1  -0.056985  -0.112311  -0.002594  3.88929  0.0
C  C51  1  0.95363641  0.58901771  0.83369160  1  -0.056997  -0.112753  0.00281  3.88867  0.0
C  C52  1  0.96826943  0.12738207  0.10654752  1  -0.078638  -0.20323  -0.00122  3.890462  0.003
C  C53  1  0.03170317  0.87258630  0.89346500  1  -0.078619  -0.203431  0.000948  3.890643  -0.003
C  C54  1  0.01457346  0.97949226  0.13800579  1  0.198417  0.577698  -0.002674  4.193606  -0.003
C  C55  1  0.98538280  0.02045762  0.86201018  1  0.198592  0.577761  0.00357  4.193247  0.003
C  C56  1  0.77748280  0.81616316  0.39975626  1  0.051309  0.112296  0.000786  3.924133  0.002
C  C57  1  0.22247290  0.18397735  0.60024547  1  0.051493  0.112048  0.000939  3.923909  0.002
C  C58  1  0.79018068  0.67017330  0.41765771  1  -0.084107  -0.122559  -0.005552  3.953102  -0.006
C  C59  1  0.20988869  0.32996528  0.58232685  1  -0.084219  -0.122523  -0.005635  3.953295  -0.006
C  C60  1  0.71701323  0.54027029  0.35181335  1  -0.06686  -0.012318  0.002829  3.924064  0.002
C  C61  1  0.28304958  0.45985094  0.64817928  1  -0.066891  -0.012623  0.002726  3.92416  0.002
C  C62  1  0.63410155  0.56061013  0.26972401  1  -0.090086  -0.177166  -0.0033  3.930125  -0.003
C  C63  1  0.36594550  0.43950659  0.73027593  1  -0.09056  -0.177989  -0.00342  3.930252  -0.003
C  C64  1  0.62803030  0.70956114  0.25573957  1  0.116  0.224286  -0.001632  3.958692  -0.002
C  C65  1  0.37192310  0.29056197  0.74426666  1  0.116235  0.224878  -0.001579  3.959318  -0.001
C  C66  1  0.54904919  0.74149899  0.16807541  1  -0.057874  -0.111861  -0.002613  3.889924  0.0
C  C67  1  0.45092001  0.25853314  0.83190406  1  -0.057778  -0.111542  -0.002546  3.889382  0.0
C  C68  1  0.46999137  0.97256308  0.10723752  1  -0.078196  -0.202185  -0.001568  3.887932  0.002
C  C69  1  0.52992277  0.02741798  0.89271028  1  -0.07823  -0.202643  -0.001648  3.887631  0.002
C  C70  1  0.51591090  0.14768649  0.13824314  1  0.197094  0.576707  -0.002749  4.196597  -0.003
C  C71  1  0.48391226  0.85232651  0.86170758  1  0.197539  0.5767  -0.003394  4.195568  -0.003
N  N72  1  0.19996622  0.44988521  0.31790369  1  -0.354107  -0.281387  -0.061503  3.623043  -0.078
N  N73  1  0.79994923  0.55002344  0.68217048  1  -0.353748  -0.281335  0.064024  3.623272  0.077
N  N74  1  0.98629946  0.26353695  0.18268069  1  -0.492636  -0.271261  -0.086579  3.575326  -0.108
N  N75  1  0.01365641  0.73645819  0.81732035  1  -0.492566  -0.270896  0.090817  3.575331  0.108
N  N76  1  0.69889024  0.83510313  0.32031791  1  -0.35117  -0.27664  -0.062283  3.614452  -0.079
N  N77  1  0.30100140  0.16505064  0.67969810  1  -0.351491  -0.277061  -0.061832  3.613945  -0.078
N  N78  1  0.48755803  0.90290596  0.18365727  1  -0.492561  -0.269944  -0.086561  3.573728  -0.108
N  N79  1  0.51235195  0.09707156  0.81627890  1  -0.492467  -0.270113  -0.086617  3.573722  -0.108
Cl  Cl80  1  0.40381121  0.16206327  0.38096989  1  -0.290357  -0.505468  -0.067393  1.398621  -0.079
Cl  Cl81  1  0.59660574  0.83759531  0.61883477  1  -0.290301  -0.505348  0.070742  1.397511  0.076
Cl  Cl82  1  0.90638324  0.17384863  0.38127459  1  -0.291448  -0.509026  -0.066561  1.392345  -0.079
Cl  Cl83  1  0.09399128  0.82632991  0.61851404  1  -0.291307  -0.508793  -0.066784  1.391098  -0.076
O  O84  1  0.12626762  0.00046551  0.21308193  1  -0.334796  -0.548998  -0.054881  2.410079  -0.076
O  O85  1  0.87348977  0.99947067  0.78697485  1  -0.334735  -0.548683  0.057971  2.410352  0.076
O  O86  1  0.95452249  0.84961996  0.09197361  1  -0.321535  -0.526587  -0.01881  2.085781  -0.023
O  O87  1  0.04552015  0.15032788  0.90798503  1  -0.321305  -0.526302  0.019636  2.086124  0.023
O  O88  1  0.62647895  0.19203204  0.21364461  1  -0.335455  -0.549976  -0.054688  2.407727  -0.076
O  O89  1  0.37315563  0.80803342  0.78633683  1  -0.335793  -0.549849  -0.055201  2.407472  -0.076
O  O90  1  0.45668947  0.23723824  0.09158989  1  -0.323052  -0.527994  -0.018903  2.080701  -0.024
O  O91  1  0.54319331  0.76270770  0.90829671  1  -0.323023  -0.52775  -0.019205  2.081106  -0.024
