# generated using pymatgen
data_CdH8(C2O)5
_symmetry_space_group_name_H-M   'P 1'
_cell_length_a   7.01635588
_cell_length_b   10.36551718
_cell_length_c   13.11806844
_cell_angle_alpha   102.59251580
_cell_angle_beta   89.99953870
_cell_angle_gamma   90.00006478
_symmetry_Int_Tables_number   1
_chemical_formula_structural   CdH8(C2O)5
_chemical_formula_sum   'Cd4 H32 C40 O20'
_cell_volume   931.10344049
_cell_formula_units_Z   4
loop_
 _symmetry_equiv_pos_site_id
 _symmetry_equiv_pos_as_xyz
  1  'x, y, z'
loop_
 _atom_site_type_symbol
 _atom_site_label
 _atom_site_symmetry_multiplicity
 _atom_site_fract_x
 _atom_site_fract_y
 _atom_site_fract_z
 _atom_site_occupancy
 _atom_site_hle17_bader_spin_density
 _atom_site_hle17_ddec_charge
 _atom_site_hle17_ddec_spin_density
 _atom_site_hle17_ddec_sum_bond_order
 _atom_site_hle17_magmom
 _atom_site_hse06_10hf_bader_spin_density
 _atom_site_hse06_10hf_ddec_charge
 _atom_site_hse06_10hf_ddec_spin_density
 _atom_site_hse06_10hf_ddec_sum_bond_order
 _atom_site_hse06_10hf_magmom
 _atom_site_hse06_bader_spin_density
 _atom_site_hse06_ddec_charge
 _atom_site_hse06_ddec_spin_density
 _atom_site_hse06_ddec_sum_bond_order
 _atom_site_hse06_magmom
 _atom_site_pbe_bader_spin_density
 _atom_site_pbe_cm5_charge
 _atom_site_pbe_ddec_charge
 _atom_site_pbe_ddec_spin_density
 _atom_site_pbe_ddec_sum_bond_order
 _atom_site_pbe_magmom
Cd  Cd0  1  0.01592167  0.66075619  0.60352988  1  0  1.251398  0  1.533968  0  0  1.062132  0  1.980345  0  0  1.127993  0  1.918843  0  0  0.791863  1.014678  0  2.022847  0
Cd  Cd1  1  0.51591564  0.83924452  0.89647333  1  0  1.251386  0  1.533968  0  0  1.062118  0  1.980337  0  0  1.127978  0  1.918836  0  0  0.791887  1.014664  0  2.02284  0
Cd  Cd2  1  0.98407795  0.33924150  0.39647012  1  0  1.25141  0  1.533934  0  0  1.062151  0  1.980296  0  0  1.12801  0  1.918796  0  0  0.791868  1.014697  0  2.022797  0
Cd  Cd3  1  0.48407971  0.16075812  0.10352754  1  0  1.251404  0  1.533924  0  0  1.062127  0  1.980288  0  0  1.127988  0  1.918788  0  0  0.791896  1.014674  0  2.022789  0
H  H4  1  0.07503243  0.57825806  0.93436663  1  0  0.102845  0  0.925209  0  0  0.112754  0  0.990264  0  0  0.114796  0  0.988119  0  0  0.114775  0.111265  0  0.991979  0
H  H5  1  0.57503292  0.92174262  0.56563555  1  0  0.102856  0  0.925199  0  0  0.112739  0  0.990257  0  0  0.114781  0  0.988113  0  0  0.114767  0.111251  0  0.991975  0
H  H6  1  0.92496434  0.42174062  0.06563278  1  0  0.102832  0  0.925208  0  0  0.112748  0  0.990281  0  0  0.114789  0  0.988137  0  0  0.11477  0.111258  0  0.991994  0
H  H7  1  0.42497098  0.07826001  0.43436532  1  0  0.102846  0  0.925178  0  0  0.112733  0  0.990267  0  0  0.114777  0  0.988122  0  0  0.114763  0.111248  0  0.991983  0
H  H8  1  0.28655989  0.48671030  0.88768655  1  0  0.099346  0  0.939029  0  0  0.108802  0  1.004242  0  0  0.109491  0  1.005525  0  0  0.114366  0.108366  0  1.003372  0
H  H9  1  0.78656043  0.01329087  0.61231362  1  0  0.099354  0  0.939051  0  0  0.108794  0  1.004255  0  0  0.109482  0  1.00554  0  0  0.114377  0.108359  0  1.003387  0
H  H10  1  0.71343974  0.51328839  0.11231210  1  0  0.099344  0  0.939036  0  0  0.1088  0  1.004289  0  0  0.109493  0  1.005562  0  0  0.114368  0.108362  0  1.003421  0
H  H11  1  0.21344632  0.98670682  0.38768638  1  0  0.09934  0  0.938993  0  0  0.108796  0  1.00421  0  0  0.109487  0  1.005494  0  0  0.114371  0.108362  0  1.003345  0
H  H12  1  0.24496913  0.44699276  0.03882602  1  0  0.114149  0  0.989086  0  0  0.121577  0  1.057481  0  0  0.125533  0  1.05457  0  0  0.101007  0.11885  0  1.059446  0
H  H13  1  0.74497163  0.05300399  0.46117599  1  0  0.114193  0  0.989042  0  0  0.121593  0  1.057477  0  0  0.125548  0  1.054566  0  0  0.101006  0.11887  0  1.059444  0
H  H14  1  0.75502907  0.55300592  0.96117416  1  0  0.114148  0  0.989058  0  0  0.121555  0  1.057473  0  0  0.125511  0  1.054561  0  0  0.101015  0.118831  0  1.05944  0
H  H15  1  0.25502942  0.94699371  0.53882477  1  0  0.114126  0  0.989102  0  0  0.121533  0  1.057517  0  0  0.125489  0  1.054604  0  0  0.101012  0.118809  0  1.059485  0
H  H16  1  0.29609831  0.41086489  0.21453807  1  0  0.097729  0  0.979106  0  0  0.106334  0  1.047803  0  0  0.109844  0  1.045042  0  0  0.096957  0.103741  0  1.050043  0
H  H17  1  0.79609923  0.08913283  0.28546388  1  0  0.0978  0  0.978918  0  0  0.106389  0  1.047631  0  0  0.109899  0  1.04487  0  0  0.096984  0.1038  0  1.049871  0
H  H18  1  0.70389847  0.58913380  0.78546134  1  0  0.097753  0  0.979074  0  0  0.106372  0  1.047744  0  0  0.109881  0  1.044986  0  0  0.09698  0.103782  0  1.049985  0
H  H19  1  0.20390040  0.91086783  0.71453740  1  0  0.097772  0  0.97896  0  0  0.106372  0  1.04766  0  0  0.10988  0  1.044906  0  0  0.096975  0.103782  0  1.049899  0
H  H20  1  0.52982607  0.80276051  0.31181232  1  0  0.092664  0  0.972813  0  0  0.104488  0  1.032829  0  0  0.106355  0  1.033348  0  0  0.097869  0.103015  0  1.032753  0
H  H21  1  0.02982804  0.69723872  0.18818918  1  0  0.09268  0  0.97288  0  0  0.104509  0  1.032885  0  0  0.106376  0  1.033403  0  0  0.097885  0.10305  0  1.032788  0
H  H22  1  0.47017355  0.19723916  0.68818650  1  0  0.092649  0  0.972806  0  0  0.104456  0  1.032842  0  0  0.106323  0  1.033362  0  0  0.097855  0.102988  0  1.032758  0
H  H23  1  0.97017443  0.30276194  0.81181210  1  0  0.09273  0  0.972829  0  0  0.104526  0  1.032857  0  0  0.106393  0  1.033375  0  0  0.097887  0.103073  0  1.032752  0
H  H24  1  0.46759282  0.84451525  0.13821777  1  0  0.116711  0  0.970029  0  0  0.124539  0  1.036104  0  0  0.128113  0  1.034022  0  0  0.102737  0.121925  0  1.03781  0
H  H25  1  0.96759128  0.65548181  0.36178298  1  0  0.116755  0  0.969983  0  0  0.124588  0  1.036035  0  0  0.128162  0  1.033953  0  0  0.102764  0.121972  0  1.037737  0
H  H26  1  0.53240680  0.15548443  0.86178029  1  0  0.116757  0  0.970031  0  0  0.124592  0  1.036089  0  0  0.128166  0  1.034005  0  0  0.102764  0.121976  0  1.037794  0
H  H27  1  0.03241119  0.34451787  0.63821660  1  0  0.116711  0  0.96996  0  0  0.124542  0  1.036029  0  0  0.128117  0  1.033951  0  0  0.102747  0.121928  0  1.037734  0
H  H28  1  0.49942067  0.46781197  0.37187001  1  0  0.119622  0  0.925063  0  0  0.133798  0  0.982419  0  0  0.135915  0  0.981747  0  0  0.103245  0.132244  0  0.982995  0
H  H29  1  0.99941245  0.03218764  0.12813063  1  0  0.119639  0  0.925025  0  0  0.133801  0  0.982384  0  0  0.135924  0  0.981716  0  0  0.103262  0.132249  0  0.982959  0
H  H30  1  0.50057895  0.53218968  0.62813144  1  0  0.119641  0  0.925016  0  0  0.133767  0  0.982383  0  0  0.135895  0  0.981715  0  0  0.103233  0.132215  0  0.982958  0
H  H31  1  0.00058860  0.96781203  0.87187048  1  0  0.119638  0  0.925015  0  0  0.133782  0  0.982386  0  0  0.135908  0  0.981718  0  0  0.10325  0.132228  0  0.982963  0
H  H32  1  0.59553306  0.62975752  0.41407972  1  0  0.122446  0  0.93636  0  0  0.133238  0  0.999481  0  0  0.135897  0  0.99806  0  0  0.102406  0.131268  0  1.000654  0
H  H33  1  0.09553258  0.87024564  0.08592218  1  0  0.122461  0  0.936306  0  0  0.133239  0  0.999431  0  0  0.135905  0  0.998014  0  0  0.10239  0.131272  0  1.000604  0
H  H34  1  0.40446371  0.37024611  0.58592055  1  0  0.122454  0  0.93637  0  0  0.13322  0  0.999482  0  0  0.135888  0  0.99807  0  0  0.102404  0.131252  0  1.000655  0
H  H35  1  0.90446420  0.12975502  0.91407758  1  0  0.122442  0  0.936331  0  0  0.133213  0  0.999452  0  0  0.13588  0  0.998039  0  0  0.102399  0.131244  0  1.000624  0
C  C36  1  0.20395794  0.63042422  0.80219518  1  0  0.685648  0  3.869621  0  0  0.633853  0  4.165124  0  0  0.668781  0  4.159112  0  0  0.213094  0.609904  0  4.168388  0
C  C37  1  0.70395066  0.86958332  0.69781069  1  0  0.685853  0  3.869136  0  0  0.633945  0  4.164768  0  0  0.668876  0  4.15876  0  0  0.213142  0.609982  0  4.16805  0
C  C38  1  0.79604026  0.36957348  0.19780406  1  0  0.685508  0  3.86974  0  0  0.633729  0  4.165242  0  0  0.668655  0  4.159235  0  0  0.213018  0.609778  0  4.168504  0
C  C39  1  0.29605181  0.13041537  0.30218948  1  0  0.685749  0  3.86927  0  0  0.63387  0  4.164892  0  0  0.668804  0  4.158883  0  0  0.213124  0.609908  0  4.168174  0
C  C40  1  0.21997543  0.58529968  0.90413533  1  0  -0.070907  0  3.623678  0  0  -0.126222  0  3.877215  0  0  -0.123499  0  3.878844  0  0  -0.065286  -0.128244  0  3.876216  0
C  C41  1  0.71997403  0.91470093  0.59586850  1  0  -0.070979  0  3.623558  0  0  -0.126208  0  3.877029  0  0  -0.123489  0  3.878662  0  0  -0.065272  -0.128229  0  3.876037  0
C  C42  1  0.78002135  0.41469901  0.09586408  1  0  -0.070857  0  3.623709  0  0  -0.126267  0  3.877358  0  0  -0.123545  0  3.878989  0  0  -0.065302  -0.128284  0  3.87635  0
C  C43  1  0.28002845  0.08529874  0.40413185  1  0  -0.070851  0  3.623373  0  0  -0.126155  0  3.876961  0  0  -0.123443  0  3.878598  0  0  -0.065247  -0.128181  0  3.875979  0
C  C44  1  0.35568176  0.64841741  0.07574287  1  0  0.253564  0  3.812295  0  0  0.245818  0  4.071993  0  0  0.255698  0  4.088655  0  0  0.07244  0.239008  0  4.060617  0
C  C45  1  0.85568103  0.85157871  0.42425973  1  0  0.253607  0  3.812276  0  0  0.245979  0  4.071805  0  0  0.255857  0  4.088467  0  0  0.072505  0.239171  0  4.060427  0
C  C46  1  0.64431644  0.35158227  0.92425748  1  0  0.253516  0  3.812282  0  0  0.245767  0  4.071984  0  0  0.255645  0  4.088648  0  0  0.072408  0.238958  0  4.060607  0
C  C47  1  0.14432287  0.14842096  0.57574062  1  0  0.253645  0  3.812179  0  0  0.246002  0  4.071739  0  0  0.255883  0  4.088401  0  0  0.072545  0.239192  0  4.060363  0
C  C48  1  0.30514671  0.52696676  0.09765235  1  0  -0.206086  0  3.77342  0  0  -0.227728  0  4.031378  0  0  -0.232867  0  4.050516  0  0  -0.115397  -0.224326  0  4.018523  0
C  C49  1  0.80514795  0.97303235  0.40234870  1  0  -0.20613  0  3.773436  0  0  -0.227811  0  4.031365  0  0  -0.232949  0  4.050504  0  0  -0.115412  -0.22441  0  4.018516  0
C  C50  1  0.69485006  0.47303193  0.90234706  1  0  -0.206068  0  3.773395  0  0  -0.227687  0  4.031362  0  0  -0.232825  0  4.050496  0  0  -0.115394  -0.224289  0  4.018516  0
C  C51  1  0.19485596  0.02696732  0.59765240  1  0  -0.206057  0  3.773503  0  0  -0.227728  0  4.031454  0  0  -0.232865  0  4.05059  0  0  -0.115417  -0.224329  0  4.018607  0
C  C52  1  0.33809182  0.50539158  0.19770626  1  0  -0.096081  0  3.738563  0  0  -0.117597  0  3.990656  0  0  -0.118213  0  4.010754  0  0  -0.09499  -0.117012  0  3.977089  0
C  C53  1  0.83809602  0.99460256  0.30229531  1  0  -0.096047  0  3.738653  0  0  -0.117515  0  3.990784  0  0  -0.118131  0  4.010884  0  0  -0.094894  -0.11693  0  3.977223  0
C  C54  1  0.66190495  0.49460710  0.80229392  1  0  -0.096095  0  3.738512  0  0  -0.117612  0  3.990621  0  0  -0.118226  0  4.010713  0  0  -0.094976  -0.117031  0  3.977062  0
C  C55  1  0.16190789  0.00539810  0.69770444  1  0  -0.096094  0  3.738736  0  0  -0.117567  0  3.990861  0  0  -0.118184  0  4.01096  0  0  -0.09493  -0.116983  0  3.977297  0
C  C56  1  0.42249553  0.60198753  0.27567025  1  0  0.093897  0  3.74458  0  0  0.11409  0  3.978683  0  0  0.112843  0  4.003703  0  0  -0.018436  0.114859  0  3.96158  0
C  C57  1  0.92249361  0.89801152  0.22433181  1  0  0.093884  0  3.744611  0  0  0.113965  0  3.978829  0  0  0.112725  0  4.003857  0  0  -0.01852  0.114735  0  3.961731  0
C  C58  1  0.57750124  0.39801214  0.72432857  1  0  0.093957  0  3.744555  0  0  0.114079  0  3.978681  0  0  0.112848  0  4.003711  0  0  -0.018429  0.11485  0  3.96158  0
C  C59  1  0.07750887  0.10198914  0.77566871  1  0  0.093925  0  3.744672  0  0  0.113992  0  3.978866  0  0  0.112756  0  4.003898  0  0  -0.018487  0.114765  0  3.961762  0
C  C60  1  0.46700324  0.72429354  0.25240239  1  0  -0.088771  0  3.739369  0  0  -0.107427  0  3.983527  0  0  -0.107766  0  4.005057  0  0  -0.089063  -0.106963  0  3.968964  0
C  C61  1  0.96700504  0.77570253  0.24759819  1  0  -0.088724  0  3.739204  0  0  -0.107359  0  3.983386  0  0  -0.107694  0  4.004909  0  0  -0.089022  -0.106904  0  3.968813  0
C  C62  1  0.53299638  0.27570712  0.74759661  1  0  -0.088753  0  3.739295  0  0  -0.107376  0  3.983479  0  0  -0.107713  0  4.005006  0  0  -0.089043  -0.106915  0  3.968908  0
C  C63  1  0.03299886  0.22429814  0.75240156  1  0  -0.088795  0  3.739264  0  0  -0.107379  0  3.983433  0  0  -0.107713  0  4.004956  0  0  -0.089021  -0.10693  0  3.968856  0
C  C64  1  0.43443724  0.74801332  0.15355336  1  0  -0.178986  0  3.754522  0  0  -0.202821  0  4.015068  0  0  -0.207411  0  4.033878  0  0  -0.107018  -0.199777  0  4.002538  0
C  C65  1  0.93443894  0.75198473  0.34645076  1  0  -0.179162  0  3.754531  0  0  -0.203029  0  4.015012  0  0  -0.20762  0  4.033819  0  0  -0.107156  -0.199981  0  4.002478  0
C  C66  1  0.56555953  0.25198635  0.84644623  1  0  -0.179033  0  3.754473  0  0  -0.202897  0  4.015046  0  0  -0.207488  0  4.033857  0  0  -0.107058  -0.199853  0  4.002513  0
C  C67  1  0.06556781  0.24801592  0.65355204  1  0  -0.179087  0  3.7545  0  0  -0.202982  0  4.015029  0  0  -0.207563  0  4.033811  0  0  -0.107149  -0.19994  0  4.002505  0
C  C68  1  0.46916139  0.57360714  0.38130821  1  0  -0.300264  0  3.669472  0  0  -0.338704  0  3.903709  0  0  -0.344397  0  3.910268  0  0  -0.16009  -0.334643  0  3.899103  0
C  C69  1  0.96915825  0.92639189  0.11869288  1  0  -0.300246  0  3.66932  0  0  -0.338605  0  3.903484  0  0  -0.344331  0  3.910086  0  0  -0.16008  -0.334542  0  3.898877  0
C  C70  1  0.53083396  0.42639549  0.61869341  1  0  -0.300299  0  3.669424  0  0  -0.338565  0  3.903486  0  0  -0.344316  0  3.910123  0  0  -0.16007  -0.334509  0  3.898882  0
C  C71  1  0.03083995  0.07360878  0.88130612  1  0  -0.300229  0  3.66931  0  0  -0.338525  0  3.903444  0  0  -0.344265  0  3.910065  0  0  -0.160072  -0.334467  0  3.898837  0
C  C72  1  0.30781497  0.60900053  0.45933904  1  0  0.719741  0  3.821176  0  0  0.671205  0  4.115707  0  0  0.70588  0  4.110002  0  0  0.210723  0.647573  0  4.118604  0
C  C73  1  0.80781151  0.89099463  0.04066207  1  0  0.719469  0  3.821366  0  0  0.670954  0  4.115843  0  0  0.705636  0  4.110147  0  0  0.210671  0.647324  0  4.118735  0
C  C74  1  0.69218323  0.39099816  0.54066113  1  0  0.719583  0  3.821277  0  0  0.670997  0  4.115829  0  0  0.705683  0  4.110137  0  0  0.210637  0.647369  0  4.118723  0
C  C75  1  0.19218669  0.10900703  0.95933633  1  0  0.719539  0  3.821206  0  0  0.67097  0  4.115758  0  0  0.705656  0  4.110064  0  0  0.210681  0.647341  0  4.118648  0
O  O76  1  0.09236056  0.56189106  0.73608379  1  0  -0.615393  0  2.002783  0  0  -0.541383  0  2.247699  0  0  -0.573882  0  2.239494  0  0  -0.308985  -0.51839  0  2.252583  0
O  O77  1  0.59236096  0.93810863  0.76391814  1  0  -0.615396  0  2.003035  0  0  -0.541336  0  2.247989  0  0  -0.573818  0  2.23975  0  0  -0.308944  -0.51834  0  2.25288  0
O  O78  1  0.90763764  0.43810762  0.26391562  1  0  -0.615342  0  2.002792  0  0  -0.541335  0  2.247715  0  0  -0.573824  0  2.239491  0  0  -0.308954  -0.518344  0  2.252599  0
O  O79  1  0.40764009  0.06189105  0.23608144  1  0  -0.615346  0  2.003109  0  0  -0.541283  0  2.248051  0  0  -0.573762  0  2.239805  0  0  -0.308949  -0.518292  0  2.252953  0
O  O80  1  0.29648053  0.72976931  0.78634770  1  0  -0.652099  0  2.035844  0  0  -0.582653  0  2.296456  0  0  -0.614985  0  2.284523  0  0  -0.319335  -0.559728  0  2.303859  0
O  O81  1  0.79648425  0.77023028  0.71365638  1  0  -0.652272  0  2.035235  0  0  -0.582781  0  2.295887  0  0  -0.615117  0  2.283954  0  0  -0.319418  -0.559849  0  2.303296  0
O  O82  1  0.70351910  0.27023036  0.21365264  1  0  -0.652014  0  2.03588  0  0  -0.582563  0  2.296498  0  0  -0.614897  0  2.284566  0  0  -0.319269  -0.55964  0  2.303901  0
O  O83  1  0.20351537  0.22976840  0.28634380  1  0  -0.652275  0  2.035269  0  0  -0.582793  0  2.295923  0  0  -0.615132  0  2.283989  0  0  -0.319414  -0.559858  0  2.303328  0
O  O84  1  0.32954607  0.67801123  0.97843840  1  0  -0.317767  0  2.430488  0  0  -0.234149  0  2.672882  0  0  -0.254687  0  2.6752  0  0  -0.187542  -0.219543  0  2.67085  0
O  O85  1  0.82954421  0.82198834  0.52156477  1  0  -0.317804  0  2.430353  0  0  -0.234223  0  2.67267  0  0  -0.254756  0  2.674986  0  0  -0.187601  -0.219616  0  2.670637  0
O  O86  1  0.67045213  0.32198646  0.02156083  1  0  -0.317814  0  2.43049  0  0  -0.234134  0  2.672872  0  0  -0.254667  0  2.675187  0  0  -0.187565  -0.219529  0  2.670834  0
O  O87  1  0.17045542  0.17801133  0.47843482  1  0  -0.317863  0  2.430341  0  0  -0.234254  0  2.672698  0  0  -0.254789  0  2.675016  0  0  -0.187623  -0.219645  0  2.670667  0
O  O88  1  0.29503877  0.72373199  0.51719636  1  0  -0.630565  0  1.914608  0  0  -0.563907  0  2.148792  0  0  -0.593861  0  2.139902  0  0  -0.31343  -0.542987  0  2.154052  0
O  O89  1  0.79504132  0.77626266  0.98280534  1  0  -0.630393  0  1.914426  0  0  -0.563811  0  2.148679  0  0  -0.593768  0  2.139797  0  0  -0.313421  -0.542888  0  2.153933  0
O  O90  1  0.70495515  0.27626966  0.48280433  1  0  -0.630502  0  1.914697  0  0  -0.563824  0  2.148875  0  0  -0.593773  0  2.13998  0  0  -0.313414  -0.542902  0  2.154133  0
O  O91  1  0.20495830  0.22374198  0.01719053  1  0  -0.630451  0  1.914399  0  0  -0.563826  0  2.148648  0  0  -0.593782  0  2.139762  0  0  -0.313443  -0.542904  0  2.153899  0
O  O92  1  0.18363072  0.52002274  0.46723815  1  0  -0.712854  0  2.062992  0  0  -0.630043  0  2.337223  0  0  -0.665586  0  2.324262  0  0  -0.341924  -0.605098  0  2.345351  0
O  O93  1  0.68362752  0.97996753  0.03276264  1  0  -0.712794  0  2.063248  0  0  -0.629952  0  2.337426  0  0  -0.665493  0  2.324463  0  0  -0.341885  -0.605006  0  2.345553  0
O  O94  1  0.81637033  0.47997396  0.53276320  1  0  -0.712778  0  2.062985  0  0  -0.629953  0  2.337198  0  0  -0.665493  0  2.324233  0  0  -0.341863  -0.605009  0  2.345327  0
O  O95  1  0.31636925  0.02003412  0.96723957  1  0  -0.712788  0  2.063168  0  0  -0.629966  0  2.337414  0  0  -0.665506  0  2.324448  0  0  -0.341886  -0.605022  0  2.345545  0
