# generated using pymatgen
data_Zn2H11C18S2N3O4
_symmetry_space_group_name_H-M   'P 1'
_cell_length_a   7.23235019
_cell_length_b   10.64505800
_cell_length_c   12.39809601
_cell_angle_alpha   86.44640609
_cell_angle_beta   89.14790117
_cell_angle_gamma   80.77018652
_symmetry_Int_Tables_number   1
_chemical_formula_structural   Zn2H11C18S2N3O4
_chemical_formula_sum   'Zn4 H22 C36 S4 N6 O8'
_cell_volume   940.33292173
_cell_formula_units_Z   2
loop_
 _symmetry_equiv_pos_site_id
 _symmetry_equiv_pos_as_xyz
  1  'x, y, z'
loop_
 _atom_site_type_symbol
 _atom_site_label
 _atom_site_symmetry_multiplicity
 _atom_site_fract_x
 _atom_site_fract_y
 _atom_site_fract_z
 _atom_site_occupancy
 _atom_site_hle17_bader_spin_density
 _atom_site_hle17_ddec_charge
 _atom_site_hle17_ddec_spin_density
 _atom_site_hle17_ddec_sum_bond_order
 _atom_site_hle17_magmom
 _atom_site_hse06_10hf_bader_spin_density
 _atom_site_hse06_10hf_ddec_charge
 _atom_site_hse06_10hf_ddec_spin_density
 _atom_site_hse06_10hf_ddec_sum_bond_order
 _atom_site_hse06_10hf_magmom
 _atom_site_hse06_bader_spin_density
 _atom_site_hse06_ddec_charge
 _atom_site_hse06_ddec_spin_density
 _atom_site_hse06_ddec_sum_bond_order
 _atom_site_hse06_magmom
 _atom_site_pbe_bader_spin_density
 _atom_site_pbe_cm5_charge
 _atom_site_pbe_ddec_charge
 _atom_site_pbe_ddec_spin_density
 _atom_site_pbe_ddec_sum_bond_order
 _atom_site_pbe_magmom
Zn  Zn0  1  0.07904755  0.17124704  0.37670916  1  0  0.849937  0  2.057464  0  0  0.671784  0  2.52522  0  0  0.711831  0  2.482883  0  0  0.624076  0.643815  0  2.554722  0
Zn  Zn1  1  0.92095505  0.82875002  0.62328850  1  0  0.849925  0  2.057483  0  0  0.671827  0  2.525205  0  0  0.71187  0  2.482867  0  0  0.624076  0.643855  0  2.554713  0
Zn  Zn2  1  0.43210631  0.17091059  0.69382732  1  0  0.925573  0  2.030592  0  0  0.758692  0  2.509778  0  0  0.801239  0  2.459947  0  0  0.613855  0.728744  0  2.544023  0
Zn  Zn3  1  0.56789076  0.82908650  0.30617200  1  0  0.92562  0  2.030607  0  0  0.758763  0  2.50977  0  0  0.801308  0  2.459938  0  0  0.613886  0.728814  0  2.544012  0
H  H4  1  0.96201707  0.26860607  0.15551918  1  0  0.082343  0  0.945061  0  0  0.091807  0  1.008704  0  0  0.094363  0  1.005672  0  0  0.117894  0.089868  0  1.011051  0
H  H5  1  0.03797719  0.73140343  0.84447631  1  0  0.082344  0  0.945173  0  0  0.091741  0  1.008883  0  0  0.094295  0  1.005855  0  0  0.11789  0.089802  0  1.011228  0
H  H6  1  0.46577846  0.22010162  0.31868592  1  0  0.090615  0  0.959762  0  0  0.095377  0  1.030791  0  0  0.098843  0  1.026774  0  0  0.110777  0.09291  0  1.033546  0
H  H7  1  0.53421767  0.77989354  0.68131915  1  0  0.090666  0  0.959776  0  0  0.095396  0  1.030815  0  0  0.09886  0  1.0268  0  0  0.110768  0.092927  0  1.03357  0
H  H8  1  0.09226043  0.39009366  0.99933934  1  0  0.112339  0  0.946036  0  0  0.123498  0  1.005759  0  0  0.12654  0  1.005664  0  0  0.110081  0.121385  0  1.005861  0
H  H9  1  0.90774949  0.60991385  0.00065934  1  0  0.112371  0  0.946003  0  0  0.123548  0  1.005723  0  0  0.126589  0  1.005629  0  0  0.110121  0.121436  0  1.005825  0
H  H10  1  0.60848034  0.35237111  0.17984787  1  0  0.127515  0  0.962188  0  0  0.135634  0  1.023316  0  0  0.139708  0  1.021403  0  0  0.110597  0.132709  0  1.024866  0
H  H11  1  0.39152100  0.64763162  0.82016242  1  0  0.127456  0  0.962246  0  0  0.135583  0  1.023365  0  0  0.139657  0  1.021451  0  0  0.110559  0.132657  0  1.024912  0
H  H12  1  0.33867060  0.49004631  0.92123437  1  0  0.108915  0  0.984207  0  0  0.113771  0  1.053025  0  0  0.118528  0  1.049609  0  0  0.103093  0.110289  0  1.055601  0
H  H13  1  0.66134341  0.50995543  0.07877343  1  0  0.108847  0  0.98419  0  0  0.113704  0  1.053014  0  0  0.118458  0  1.049602  0  0  0.103025  0.110224  0  1.05559  0
H  H14  1  0.69877539  0.32005809  0.43948803  1  0  0.087695  0  0.933815  0  0  0.098412  0  0.995994  0  0  0.101093  0  0.992988  0  0  0.116122  0.096521  0  0.998023  0
H  H15  1  0.30122837  0.67993994  0.56050635  1  0  0.087587  0  0.933828  0  0  0.098298  0  0.99604  0  0  0.100979  0  0.993032  0  0  0.116054  0.096409  0  0.998076  0
H  H16  1  0.58200660  0.44919190  0.59706870  1  0  0.106215  0  0.955338  0  0  0.115881  0  1.017174  0  0  0.11913  0  1.01658  0  0  0.102924  0.113452  0  1.01805  0
H  H17  1  0.41799418  0.55080709  0.40292646  1  0  0.106185  0  0.955382  0  0  0.115854  0  1.017223  0  0  0.11909  0  1.016659  0  0  0.102893  0.11343  0  1.018073  0
H  H18  1  0.81893526  0.49147855  0.73179995  1  0  0.09133  0  0.963491  0  0  0.101131  0  1.027578  0  0  0.102883  0  1.027545  0  0  0.10378  0.099697  0  1.02783  0
H  H19  1  0.18106306  0.50852521  0.26819499  1  0  0.091362  0  0.963448  0  0  0.101169  0  1.02753  0  0  0.10291  0  1.027528  0  0  0.103804  0.099728  0  1.027782  0
H  H20  1  0.42092372  0.73483172  0.10895014  1  0  0.085151  0  0.95909  0  0  0.093188  0  1.023946  0  0  0.095835  0  1.021392  0  0  0.116129  0.091203  0  1.025832  0
H  H21  1  0.57906837  0.26515680  0.89105288  1  0  0.085167  0  0.959022  0  0  0.093201  0  1.023897  0  0  0.095849  0  1.021338  0  0  0.116129  0.091218  0  1.025789  0
H  H22  1  0.11230587  0.76730827  0.01101536  1  0  0.098513  0  0.974846  0  0  0.109831  0  1.035025  0  0  0.112488  0  1.03524  0  0  0.103905  0.107966  0  1.034969  0
H  H23  1  0.88768952  0.23268404  0.98898906  1  0  0.098506  0  0.974897  0  0  0.109744  0  1.035155  0  0  0.112395  0  1.035382  0  0  0.103865  0.107907  0  1.035075  0
H  H24  1  0.83483618  0.89975753  0.09665938  1  0  0.103299  0  0.926545  0  0  0.116917  0  0.98027  0  0  0.120173  0  0.97743  0  0  0.112384  0.114427  0  0.98245  0
H  H25  1  0.16515834  0.10023861  0.90334162  1  0  0.103351  0  0.926576  0  0  0.116971  0  0.980295  0  0  0.120232  0  0.977447  0  0  0.112388  0.114476  0  0.982474  0
C  C26  1  0.10562441  0.28727413  0.15499753  1  0  0.147125  0  3.716482  0  0  0.110714  0  3.972439  0  0  0.120302  0  3.988095  0  0  0.047512  0.10444  0  3.961874  0
C  C27  1  0.89437414  0.71272867  0.84500149  1  0  0.147096  0  3.716635  0  0  0.110746  0  3.972614  0  0  0.12033  0  3.988269  0  0  0.047488  0.104478  0  3.962043  0
C  C28  1  0.38638903  0.26297986  0.24822844  1  0  0.141606  0  3.692921  0  0  0.107104  0  3.944352  0  0  0.115919  0  3.960427  0  0  0.046274  0.101511  0  3.933259  0
C  C29  1  0.61360974  0.73702196  0.75177466  1  0  0.141581  0  3.69323  0  0  0.107139  0  3.944615  0  0  0.115948  0  3.96069  0  0  0.046339  0.101541  0  3.933525  0
C  C30  1  0.17764958  0.35572137  0.07004001  1  0  -0.172296  0  3.689962  0  0  -0.190577  0  3.938309  0  0  -0.199824  0  3.958851  0  0  -0.084211  -0.18449  0  3.924294  0
C  C31  1  0.82235226  0.64428520  0.92996202  1  0  -0.172392  0  3.690004  0  0  -0.190709  0  3.938334  0  0  -0.199957  0  3.95888  0  0  -0.084271  -0.184628  0  3.924321  0
C  C32  1  0.46600128  0.33451296  0.16875342  1  0  -0.164114  0  3.658328  0  0  -0.177302  0  3.895408  0  0  -0.186536  0  3.915721  0  0  -0.08134  -0.171462  0  3.881976  0
C  C33  1  0.53399728  0.66548982  0.83124882  1  0  -0.164035  0  3.65845  0  0  -0.177232  0  3.895468  0  0  -0.186465  0  3.915783  0  0  -0.081306  -0.171386  0  3.882031  0
C  C34  1  0.35874535  0.38649355  0.07792251  1  0  0.144153  0  3.799887  0  0  0.158523  0  4.030549  0  0  0.164928  0  4.053017  0  0  0.01099  0.154521  0  4.014995  0
C  C35  1  0.64125948  0.61351206  0.92207873  1  0  0.144244  0  3.799899  0  0  0.158652  0  4.030519  0  0  0.165057  0  4.052988  0  0  0.011035  0.154653  0  4.014961  0
C  C36  1  0.42341616  0.47184831  0.99478002  1  0  -0.10903  0  3.700651  0  0  -0.127376  0  3.951265  0  0  -0.131052  0  3.970129  0  0  -0.082271  -0.124685  0  3.937976  0
C  C37  1  0.57660092  0.52815819  0.00522349  1  0  -0.108994  0  3.700601  0  0  -0.127353  0  3.951212  0  0  -0.13103  0  3.970079  0  0  -0.082221  -0.12466  0  3.937927  0
C  C38  1  0.79330306  0.34257297  0.50035926  1  0  0.156491  0  3.690091  0  0  0.116978  0  3.949377  0  0  0.127725  0  3.963965  0  0  0.045543  0.109589  0  3.939947  0
C  C39  1  0.20669941  0.65743078  0.49963565  1  0  0.156717  0  3.69  0  0  0.117196  0  3.94932  0  0  0.127947  0  3.963904  0  0  0.045577  0.109801  0  3.939896  0
C  C40  1  0.73063142  0.41373492  0.58750420  1  0  -0.138952  0  3.755339  0  0  -0.15538  0  4.022483  0  0  -0.163485  0  4.041908  0  0  -0.097822  -0.150487  0  4.010238  0
C  C41  1  0.26937244  0.58626881  0.41249150  1  0  -0.139029  0  3.755468  0  0  -0.155447  0  4.022618  0  0  -0.163552  0  4.042027  0  0  -0.097796  -0.15055  0  4.010373  0
C  C42  1  0.86220578  0.43550279  0.66250918  1  0  0.008729  0  3.690538  0  0  -0.021563  0  3.942582  0  0  -0.013978  0  3.958844  0  0  -0.066437  -0.026427  0  3.931913  0
C  C43  1  0.13779531  0.56450096  0.33748574  1  0  0.008765  0  3.690675  0  0  -0.021577  0  3.942733  0  0  -0.013989  0  3.958984  0  0  -0.066492  -0.026433  0  3.932043  0
C  C44  1  0.05150663  0.38577274  0.65082098  1  0  -0.15595  0  3.704296  0  0  -0.131718  0  3.94005  0  0  -0.145204  0  3.962229  0  0  -0.019471  -0.123276  0  3.925561  0
C  C45  1  0.94849753  0.61423576  0.34917367  1  0  -0.156042  0  3.704465  0  0  -0.131736  0  3.940139  0  0  -0.145224  0  3.962317  0  0  -0.019422  -0.123291  0  3.925649  0
C  C46  1  0.10615765  0.31474681  0.55965299  1  0  0.248634  0  3.770034  0  0  0.233147  0  4.030484  0  0  0.247174  0  4.050092  0  0  0.10867  0.223721  0  4.017104  0
C  C47  1  0.89384556  0.68525979  0.44034338  1  0  0.248677  0  3.770005  0  0  0.233177  0  4.030442  0  0  0.247204  0  4.050048  0  0  0.108677  0.223746  0  4.017065  0
C  C48  1  0.18600156  0.41070306  0.73636539  1  0  0.661141  0  3.923513  0  0  0.612726  0  4.219241  0  0  0.647854  0  4.210346  0  0  0.203211  0.588857  0  4.224369  0
C  C49  1  0.81399006  0.58929976  0.26363450  1  0  0.66096  0  3.923842  0  0  0.61252  0  4.219581  0  0  0.647651  0  4.210689  0  0  0.203117  0.588648  0  4.224704  0
C  C50  1  0.29505018  0.79173784  0.14030361  1  0  0.153066  0  3.701956  0  0  0.119092  0  3.947999  0  0  0.130143  0  3.962888  0  0  0.047703  0.111925  0  3.937827  0
C  C51  1  0.70494520  0.20825448  0.85969919  1  0  0.15302  0  3.701772  0  0  0.119035  0  3.947791  0  0  0.13009  0  3.962675  0  0  0.047676  0.111868  0  3.93764  0
C  C52  1  0.12446968  0.80960781  0.08758920  1  0  -0.151052  0  3.770522  0  0  -0.165555  0  4.030033  0  0  -0.174873  0  4.050849  0  0  -0.100944  -0.159615  0  4.015885  0
C  C53  1  0.87552963  0.19038544  0.91241272  1  0  -0.150961  0  3.77067  0  0  -0.165388  0  4.030183  0  0  -0.174702  0  4.050995  0  0  -0.100859  -0.159473  0  4.016021  0
C  C54  1  0.97186789  0.88389994  0.13500958  1  0  0.009208  0  3.720147  0  0  -0.023343  0  3.974512  0  0  -0.014721  0  3.989676  0  0  -0.063176  -0.028572  0  3.964128  0
C  C55  1  0.02812749  0.11609238  0.86499161  1  0  0.009029  0  3.720418  0  0  -0.023518  0  3.97476  0  0  -0.0149  0  3.989919  0  0  -0.063192  -0.028733  0  3.96437  0
C  C56  1  0.99131356  0.93948653  0.23251243  1  0  -0.179902  0  3.708309  0  0  -0.156843  0  3.950231  0  0  -0.172093  0  3.972836  0  0  -0.023243  -0.147224  0  3.935388  0
C  C57  1  0.00868320  0.06050579  0.76748795  1  0  -0.179772  0  3.708358  0  0  -0.156786  0  3.950232  0  0  -0.172038  0  3.972841  0  0  -0.023245  -0.147174  0  3.935394  0
C  C58  1  0.16951154  0.91603894  0.28390464  1  0  0.25977  0  3.754351  0  0  0.24367  0  4.01757  0  0  0.259718  0  4.036006  0  0  0.114761  0.232917  0  4.005015  0
C  C59  1  0.83048552  0.08395814  0.71609468  1  0  0.259736  0  3.754501  0  0  0.243738  0  4.017583  0  0  0.259785  0  4.036022  0  0  0.114767  0.232988  0  4.005031  0
C  C60  1  0.82177805  0.02503014  0.27350988  1  0  0.680229  0  3.857084  0  0  0.626957  0  4.147671  0  0  0.663221  0  4.139041  0  0  0.221046  0.602217  0  4.15281  0
C  C61  1  0.17822062  0.97496596  0.72649351  1  0  0.680034  0  3.857349  0  0  0.62687  0  4.147782  0  0  0.663138  0  4.139154  0  0  0.221043  0.602125  0  4.152927  0
S  S62  1  0.22327191  0.96514238  0.40842092  1  0  -0.423975  0  2.219116  0  0  -0.390375  0  2.60118  0  0  -0.410885  0  2.592509  0  0  -0.183516  -0.375823  0  2.607078  0
S  S63  1  0.77673303  0.03485657  0.59158066  1  0  -0.424039  0  2.219252  0  0  -0.390477  0  2.601273  0  0  -0.410985  0  2.592599  0  0  -0.183569  -0.375921  0  2.607166  0
S  S64  1  0.33456429  0.24979153  0.52620479  1  0  -0.468152  0  2.251606  0  0  -0.426455  0  2.640474  0  0  -0.447636  0  2.629766  0  0  -0.186317  -0.41131  0  2.647709  0
S  S65  1  0.66543927  0.75020744  0.47379357  1  0  -0.468129  0  2.251646  0  0  -0.426436  0  2.640505  0  0  -0.447612  0  2.629793  0  0  -0.186293  -0.411288  0  2.647739  0
N  N66  1  0.31597087  0.84371447  0.23454046  1  0  -0.364018  0  3.288493  0  0  -0.272384  0  3.552659  0  0  -0.294134  0  3.564978  0  0  -0.340449  -0.257887  0  3.544317  0
N  N67  1  0.68402312  0.15627786  0.76545993  1  0  -0.36388  0  3.288342  0  0  -0.272264  0  3.552469  0  0  -0.294017  0  3.564794  0  0  -0.340362  -0.257779  0  3.544144  0
N  N68  1  0.97563022  0.29497407  0.48720261  1  0  -0.358143  0  3.301398  0  0  -0.268182  0  3.575414  0  0  -0.288741  0  3.587668  0  0  -0.342895  -0.254326  0  3.567244  0
N  N69  1  0.02437342  0.70503062  0.51279465  1  0  -0.358163  0  3.301336  0  0  -0.268219  0  3.575388  0  0  -0.288776  0  3.587632  0  0  -0.342864  -0.254357  0  3.567219  0
N  N70  1  0.20646509  0.24374422  0.24381713  1  0  -0.32849  0  3.318865  0  0  -0.238847  0  3.588946  0  0  -0.25866  0  3.603954  0  0  -0.336359  -0.225517  0  3.578688  0
N  N71  1  0.79353091  0.75625763  0.75618277  1  0  -0.328485  0  3.319133  0  0  -0.238897  0  3.589233  0  0  -0.258691  0  3.604222  0  0  -0.336381  -0.225565  0  3.578976  0
O  O72  1  0.83873953  0.13178049  0.30999970  1  0  -0.587044  0  2.044408  0  0  -0.512654  0  2.301878  0  0  -0.539971  0  2.288871  0  0  -0.305583  -0.493513  0  2.310278  0
O  O73  1  0.16126096  0.86821369  0.69000538  1  0  -0.586926  0  2.04453  0  0  -0.512619  0  2.301982  0  0  -0.539948  0  2.288986  0  0  -0.305644  -0.493479  0  2.310387  0
O  O74  1  0.66157365  0.99229366  0.26212968  1  0  -0.616684  0  2.078472  0  0  -0.548094  0  2.348285  0  0  -0.575464  0  2.333311  0  0  -0.320931  -0.528773  0  2.357983  0
O  O75  1  0.33842524  0.00770148  0.73787537  1  0  -0.616662  0  2.078482  0  0  -0.548082  0  2.348236  0  0  -0.575449  0  2.333255  0  0  -0.320903  -0.528758  0  2.35793  0
O  O76  1  0.30034371  0.31475417  0.77860666  1  0  -0.660677  0  2.055454  0  0  -0.591533  0  2.327113  0  0  -0.621392  0  2.313122  0  0  -0.341364  -0.570031  0  2.335682  0
O  O77  1  0.69966088  0.68525243  0.22138647  1  0  -0.660592  0  2.05553  0  0  -0.591462  0  2.327192  0  0  -0.621321  0  2.313203  0  0  -0.341305  -0.569969  0  2.335781  0
O  O78  1  0.17318661  0.52196662  0.76573105  1  0  -0.601168  0  1.920335  0  0  -0.556709  0  2.143901  0  0  -0.581045  0  2.136704  0  0  -0.315023  -0.539328  0  2.148309  0
O  O79  1  0.82680131  0.47803428  0.23427623  1  0  -0.60109  0  1.920412  0  0  -0.556611  0  2.143969  0  0  -0.580934  0  2.136747  0  0  -0.315027  -0.539229  0  2.148374  0
