# generated using pymatgen
data_Zr6H24C50Cl5O32F
_symmetry_space_group_name_H-M   'P 1'
_cell_length_a   14.78792285
_cell_length_b   14.79006551
_cell_length_c   14.81756477
_cell_angle_alpha   60.16726759
_cell_angle_beta   59.93406023
_cell_angle_gamma   60.11327845
_symmetry_Int_Tables_number   1
_chemical_formula_structural   Zr6H24C50Cl5O32F
_chemical_formula_sum   'Zr6 H24 C50 Cl5 O32 F1'
_cell_volume   2295.29583201
_cell_formula_units_Z   1
loop_
 _symmetry_equiv_pos_site_id
 _symmetry_equiv_pos_as_xyz
  1  'x, y, z'
loop_
 _atom_site_type_symbol
 _atom_site_label
 _atom_site_symmetry_multiplicity
 _atom_site_fract_x
 _atom_site_fract_y
 _atom_site_fract_z
 _atom_site_occupancy
 _atom_site_pbe_bader_charge
 _atom_site_pbe_bader_spin_density
 _atom_site_pbe_cm5_charge
 _atom_site_pbe_ddec_charge
 _atom_site_pbe_ddec_spin_density
 _atom_site_pbe_ddec_sum_bond_order
 _atom_site_pbe_magmom
Zr  Zr0  1  0.87849163  0.88263352  0.61771482  1  2.630294  0  1.626121  2.369482  0  2.761135  0
Zr  Zr1  1  0.12087047  0.11785880  0.38182273  1  2.638232  0  1.634223  2.38234  0  2.762379  0
Zr  Zr2  1  0.11676985  0.88012397  0.62016337  1  2.636832  0  1.624007  2.376476  0  2.745593  0
Zr  Zr3  1  0.88101589  0.12081346  0.37906515  1  2.636164  0  1.625953  2.371496  0  2.755667  0
Zr  Zr4  1  0.11874223  0.88178521  0.37890923  1  2.635886  0  1.626058  2.377245  0  2.749574  0
Zr  Zr5  1  0.87959980  0.12157837  0.61771996  1  2.635058  0  1.625854  2.377171  0  2.748568  0
H  H6  1  0.09109287  0.71903098  0.59326358  1  0.594891  0  0.331271  0.422243  0  0.859606  0
H  H7  1  0.09599034  0.09376046  0.21765852  1  0.620651  0  0.331875  0.424155  0  0.854298  0
H  H8  1  0.09342743  0.09280939  0.59498161  1  0.607445  0  0.331777  0.424356  0  0.854534  0
H  H9  1  0.71645207  0.09662842  0.59212909  1  0.598347  0  0.331396  0.423326  0  0.857535  0
H  H10  1  0.84821539  0.58689818  0.63907827  1  0.119207  0  0.110037  0.116332  0  0.995334  0
H  H11  1  0.14343465  0.59223672  0.35377243  1  0.14103  0  0.108738  0.125262  0  1.010609  0
H  H12  1  0.85784730  0.41535203  0.63297831  1  0.073689  0  0.109858  0.115985  0  1.002105  0
H  H13  1  0.58629456  0.84979045  0.92391343  1  0.080057  0  0.109689  0.115152  0  0.998165  0
H  H14  1  0.59683419  0.13890142  0.91575901  1  0.114836  0  0.107793  0.124561  0  1.014474  0
H  H15  1  0.41828934  0.85524160  0.09564689  1  0.138723  0  0.108392  0.115316  0  1.006722  0
H  H16  1  0.13913692  0.85195116  0.08319450  1  0.116287  0  0.112671  0.120481  0  0.985584  0
H  H17  1  0.84968418  0.14197020  0.09429761  1  0.095175  0  0.110138  0.126741  0  1.006259  0
H  H18  1  0.13074305  0.85957319  0.91422018  1  0.101349  0  0.110838  0.118225  0  0.999756  0
H  H19  1  0.58658746  0.42888741  0.63566219  1  0.108552  0  0.112111  0.120339  0  0.986309  0
H  H20  1  0.59384816  0.41390889  0.34989812  1  0.133312  0  0.110005  0.126076  0  1.008218  0
H  H21  1  0.41638299  0.59752272  0.62864680  1  0.099636  0  0.109502  0.115964  0  1.0041  0
H  H22  1  0.13799071  0.59294547  0.91762689  1  0.099938  0  0.116408  0.147465  0  0.981596  0
H  H23  1  0.73947031  0.62404097  0.96583419  1  0.059776  0  0.097815  0.107376  0  0.986399  0
H  H24  1  0.82707953  0.53933084  0.88007428  1  0.068137  0  0.09738  0.106368  0  0.986436  0
H  H25  1  0.83274487  0.36908583  0.04948252  1  0.061737  0  0.09812  0.109811  0  0.985979  0
H  H26  1  0.74517123  0.45376795  0.13520174  1  0.077354  0  0.098668  0.111242  0  0.987027  0
H  H27  1  0.58391420  0.13939152  0.34859678  1  0.086893  0  0.112302  0.12056  0  0.985192  0
H  H28  1  0.59527798  0.85238554  0.63973754  1  0.109396  0  0.110889  0.129427  0  1.000249  0
H  H29  1  0.41439484  0.12902918  0.35891079  1  0.141848  0  0.108339  0.114154  0  1.014778  0
C  C30  1  0.99327511  0.70170143  0.49642687  1  1.55986  0  0.237804  0.638936  0  4.095656  0
C  C31  1  0.30921646  0.99762846  0.20109615  1  1.557458  0  0.235147  0.6494  0  4.095461  0
C  C32  1  0.00135763  0.30606037  0.49449028  1  1.570022  0  0.235462  0.647563  0  4.095215  0
C  C33  1  0.69879373  0.99692076  0.80558517  1  1.550513  0  0.238421  0.641013  0  4.092773  0
C  C34  1  0.99313858  0.70190550  0.80590608  1  1.533621  0  0.237041  0.644514  0  4.104289  0
C  C35  1  0.69942016  0.99946053  0.49292161  1  1.573607  0  0.23835  0.640387  0  4.09563  0
C  C36  1  0.99892331  0.30567343  0.20065705  1  1.555902  0  0.235486  0.662235  0  4.105092  0
C  C37  1  0.30667538  0.98983610  0.50270385  1  1.570396  0  0.236162  0.64951  0  4.094619  0
C  C38  1  0.30560715  0.69994644  0.49234247  1  1.573863  0  0.236133  0.6508  0  4.091524  0
C  C39  1  0.99046970  0.00074493  0.80728719  1  1.585721  0  0.235459  0.650115  0  4.094476  0
C  C40  1  0.70046192  0.30967206  0.49492393  1  1.567457  0  0.238288  0.641042  0  4.093939  0
C  C41  1  0.99728117  0.99672756  0.19837501  1  1.581898  0  0.238153  0.639291  0  4.097484  0
C  C42  1  0.00432482  0.40764467  0.49071164  1  0.059102  0  -0.014876  -0.096481  0  3.902142  0
C  C43  1  0.99518986  0.59997477  0.49587449  1  -0.018428  0  -0.010148  -0.011109  0  3.965856  0
C  C44  1  0.08612171  0.45816381  0.41139331  1  0.010258  0  0.027371  0.146086  0  3.995411  0
C  C45  1  0.91414841  0.55040431  0.57571244  1  -0.040411  0  -0.084246  -0.103861  0  3.978381  0
C  C46  1  0.08048584  0.55353573  0.41474672  1  0.003136  0  -0.086876  -0.163575  0  3.952676  0
C  C47  1  0.91957310  0.45579114  0.57216505  1  0.001498  0  -0.077745  -0.074249  0  3.970182  0
C  C48  1  0.41197959  0.99983756  0.10147546  1  0.048812  0  -0.015351  -0.097743  0  3.904042  0
C  C49  1  0.60078406  0.99486884  0.90951871  1  -0.045981  0  -0.01001  -0.011254  0  3.964775  0
C  C50  1  0.46366353  0.08039030  0.05016345  1  0.026012  0  0.026966  0.14635  0  3.992954  0
C  C51  1  0.55152006  0.91363992  0.96004668  1  -0.00765  0  -0.083658  -0.10127  0  3.978798  0
C  C52  1  0.55727427  0.07686294  0.95524726  1  0.087281  0  -0.086742  -0.163431  0  3.951944  0
C  C53  1  0.45871097  0.91692146  0.05464570  1  -0.081649  0  -0.077702  -0.075532  0  3.972141  0
C  C54  1  0.98667256  0.00377702  0.90888188  1  0.005852  0  -0.013951  -0.096078  0  3.900101  0
C  C55  1  0.99461066  0.99689571  0.09865537  1  0.022362  0  -0.009685  -0.010261  0  3.962389  0
C  C56  1  0.90680608  0.08434668  0.96069589  1  0.035364  0  0.026212  0.14721  0  3.991128  0
C  C57  1  0.07444902  0.91645390  0.04844366  1  -0.090834  0  -0.080575  -0.096311  0  3.966873  0
C  C58  1  0.91142772  0.07996243  0.05462098  1  0.055328  0  -0.087499  -0.168418  0  3.95852  0
C  C59  1  0.06955326  0.92077701  0.95519012  1  -0.01274  0  -0.076557  -0.075763  0  3.966765  0
C  C60  1  0.40866634  0.60060039  0.48688948  1  0.024789  0  -0.014011  -0.096906  0  3.899695  0
C  C61  1  0.60031645  0.41154433  0.49276399  1  -0.066923  0  -0.009308  -0.010959  0  3.963837  0
C  C62  1  0.46022851  0.54797864  0.40716850  1  0.020418  0  0.026223  0.147283  0  3.990632  0
C  C63  1  0.55075725  0.46291510  0.57202563  1  0.007744  0  -0.081174  -0.099074  0  3.967309  0
C  C64  1  0.55495101  0.45456956  0.41089272  1  -0.001458  0  -0.087671  -0.16806  0  3.959838  0
C  C65  1  0.45661072  0.55591663  0.56811382  1  0.006223  0  -0.07588  -0.071248  0  3.96132  0
C  C66  1  0.99255730  0.60254163  0.90677586  1  0.036496  0  -0.009164  -0.049646  0  3.985021  0
C  C67  1  0.99801902  0.40676931  0.10148737  1  0.05705  0  -0.018998  -0.193275  0  3.944273  0
C  C68  1  0.91453893  0.54983324  0.95819694  1  -0.060631  0  -0.008551  0.044005  0  3.892886  0
C  C69  1  0.07650965  0.46163884  0.04764016  1  0.429168  0  0.108732  0.283642  0  4.027779  0
C  C70  1  0.91782253  0.45561974  0.05192098  1  0.008429  0  -1e-06  0.085153  0  3.888807  0
C  C71  1  0.07456097  0.55565890  0.95432681  1  0.070817  0  -0.095262  -0.232936  0  3.97325  0
C  C72  1  0.81349482  0.55136028  0.95392727  1  -0.046648  0  -0.149412  -0.193289  0  3.88104  0
C  C73  1  0.81706220  0.44463906  0.06011812  1  -0.039125  0  -0.148626  -0.196415  0  3.867973  0
C  C74  1  0.40894818  0.98633926  0.50413603  1  0.004694  0  -0.013872  -0.096616  0  3.901863  0
C  C75  1  0.59948382  0.99608634  0.49399364  1  -0.09023  0  -0.010677  -0.014604  0  3.967759  0
C  C76  1  0.46107283  0.90745094  0.58402661  1  0.026561  0  0.025953  0.147577  0  3.995032  0
C  C77  1  0.54915053  0.07476701  0.41396490  1  0.00701  0  -0.080527  -0.096363  0  3.966803  0
C  C78  1  0.55539682  0.91298096  0.57811004  1  0.07276  0  -0.086662  -0.165238  0  3.954416  0
C  C79  1  0.45543990  0.06898744  0.41982973  1  -0.014248  0  -0.075836  -0.07159  0  3.960397  0
Cl  Cl80  1  0.19689382  0.41045662  0.30645569  1  -0.172101  0  0.000511  -0.060562  0  1.527498  0
Cl  Cl81  1  0.41856664  0.18806373  0.09552529  1  -0.178457  0  0.000799  -0.061245  0  1.521308  0
Cl  Cl82  1  0.79925389  0.19297589  0.91591360  1  -0.185587  0  -0.004447  -0.072876  0  1.503403  0
Cl  Cl83  1  0.41381507  0.59027271  0.30120947  1  -0.187754  0  -0.003919  -0.072743  0  1.501425  0
Cl  Cl84  1  0.41571715  0.80041594  0.69359798  1  -0.184804  0  -0.008182  -0.076982  0  1.49089  0
O  O85  1  0.91683319  0.73954582  0.57445546  1  -1.178202  0  -0.353101  -0.615411  0  2.274674  0
O  O86  1  0.26695795  0.07223536  0.24396424  1  -1.17698  0  -0.361851  -0.62032  0  2.382086  0
O  O87  1  0.07839978  0.26169701  0.42158153  1  -1.178461  0  -0.360203  -0.617116  0  2.380793  0
O  O88  1  0.73544990  0.92176868  0.76483356  1  -1.172484  0  -0.354637  -0.617626  0  2.276095  0
O  O89  1  0.07121715  0.74041737  0.76540383  1  -1.177792  0  -0.360531  -0.620638  0  2.287123  0
O  O90  1  0.73678579  0.07781809  0.41732812  1  -1.182579  0  -0.350567  -0.613341  0  2.263015  0
O  O91  1  0.92213197  0.26649544  0.23714749  1  -1.17643  0  -0.356012  -0.615924  0  2.26153  0
O  O92  1  0.26308457  0.91586725  0.57861697  1  -1.180722  0  -0.363598  -0.625381  0  2.371184  0
O  O93  1  0.26318223  0.74177196  0.41770047  1  -1.167459  0  -0.36344  -0.624355  0  2.376156  0
O  O94  1  0.91724622  0.07741474  0.76357909  1  -1.18297  0  -0.362468  -0.62391  0  2.376776  0
O  O95  1  0.73766910  0.27014104  0.57312986  1  -1.180595  0  -0.35204  -0.615917  0  2.266762  0
O  O96  1  0.07567170  0.92098778  0.23534469  1  -1.182103  0  -0.351188  -0.614113  0  2.267907  0
O  O97  1  0.06779212  0.92245859  0.77037773  1  -1.184806  0  -0.346641  -0.613287  0  2.264318  0
O  O98  1  0.73999586  0.26896376  0.41908861  1  -1.182122  0  -0.352657  -0.61546  0  2.287891  0
O  O99  1  0.92148397  0.07376232  0.23793299  1  -1.183393  0  -0.353769  -0.616135  0  2.290462  0
O  O100  1  0.26634706  0.73514189  0.57215364  1  -1.180768  0  -0.345773  -0.611784  0  2.262121  0
O  O101  1  0.91687267  0.74013505  0.76645023  1  -1.172403  0  -0.346052  -0.606035  0  2.261148  0
O  O102  1  0.26895525  0.06811152  0.42596444  1  -1.173372  0  -0.346541  -0.608171  0  2.282739  0
O  O103  1  0.07474781  0.26452867  0.24121865  1  -1.167842  0  -0.351337  -0.609023  0  2.310666  0
O  O104  1  0.73866812  0.92377897  0.56975034  1  -1.18668  0  -0.355863  -0.615397  0  2.297167  0
O  O105  1  0.73715255  0.07488625  0.76444794  1  -1.18266  0  -0.351658  -0.611302  0  2.291046  0
O  O106  1  0.06951048  0.74197376  0.41960978  1  -1.17743  0  -0.353018  -0.612395  0  2.291849  0
O  O107  1  0.26943796  0.92231461  0.23556930  1  -1.171526  0  -0.348325  -0.61471  0  2.265414  0
O  O108  1  0.92227534  0.26976280  0.57132134  1  -1.185606  0  -0.350327  -0.616541  0  2.267072  0
O  O109  1  0.79674556  0.06981130  0.56529572  1  -1.226761  0  -0.693842  -1.070648  0  2.360594  0
O  O110  1  0.06636697  0.06636782  0.56821155  1  -1.23533  0  -0.694952  -1.067197  0  2.366408  0
O  O111  1  0.06821406  0.06689464  0.29773675  1  -1.250738  0  -0.6952  -1.071026  0  2.364234  0
O  O112  1  0.06461800  0.79912206  0.56650235  1  -1.221533  0  -0.693835  -1.06842  0  2.366066  0
O  O113  1  0.14768700  0.94942256  0.45118439  1  -1.198015  0  -0.791607  -1.147802  0  2.129646  0
O  O114  1  0.94932888  0.95189349  0.44887125  1  -1.199169  0  -0.790175  -1.148918  0  2.12371  0
O  O115  1  0.95069679  0.14906001  0.44979074  1  -1.197709  0  -0.792077  -1.151082  0  2.132728  0
O  O116  1  0.94787729  0.95199513  0.64794397  1  -1.199301  0  -0.790234  -1.147821  0  2.126005  0
F  F117  1  0.15970108  0.42272568  0.08611407  1  -0.628615  0  -0.101586  -0.144074  0  1.395607  0
