# generated using pymatgen
data_ZnH10C20(NO3)2
_symmetry_space_group_name_H-M   'P 1'
_cell_length_a   10.85372923
_cell_length_b   11.32502451
_cell_length_c   17.80423589
_cell_angle_alpha   90.00059662
_cell_angle_beta   89.99986516
_cell_angle_gamma   105.55543417
_symmetry_Int_Tables_number   1
_chemical_formula_structural   ZnH10C20(NO3)2
_chemical_formula_sum   'Zn4 H40 C80 N8 O24'
_cell_volume   2108.31376111
_cell_formula_units_Z   4
loop_
 _symmetry_equiv_pos_site_id
 _symmetry_equiv_pos_as_xyz
  1  'x, y, z'
loop_
 _atom_site_type_symbol
 _atom_site_label
 _atom_site_symmetry_multiplicity
 _atom_site_fract_x
 _atom_site_fract_y
 _atom_site_fract_z
 _atom_site_occupancy
 _atom_site_pbe_bader_charge
 _atom_site_pbe_bader_spin_density
 _atom_site_pbe_cm5_charge
 _atom_site_pbe_ddec_charge
 _atom_site_pbe_ddec_spin_density
 _atom_site_pbe_ddec_sum_bond_order
 _atom_site_pbe_magmom
Zn  Zn0  1  0.45912161  0.86627943  0.99250175  1  1.30215  0  0.681022  0.845572  0  2.387073  0
Zn  Zn1  1  0.04088209  0.13371872  0.49250175  1  1.302342  0  0.681037  0.845564  0  2.387196  0
Zn  Zn2  1  0.54087967  0.13372320  0.00749882  1  1.302776  0  0.680998  0.845481  0  2.387183  0
Zn  Zn3  1  0.95912048  0.86627563  0.50749826  1  1.302595  0  0.681013  0.845492  0  2.387187  0
H  H4  1  0.64905203  0.84007025  0.63430250  1  0.106028  0  0.103467  0.110021  0  0.996678  0
H  H5  1  0.85095614  0.15994530  0.13430839  1  0.106308  0  0.10347  0.110076  0  0.996527  0
H  H6  1  0.35094583  0.15993333  0.36569471  1  0.106293  0  0.103501  0.110121  0  0.996633  0
H  H7  1  0.14906300  0.84006175  0.86569387  1  0.106214  0  0.103499  0.110124  0  0.996509  0
H  H8  1  0.54960403  0.83031715  0.76272759  1  0.114541  0  0.109517  0.119003  0  0.986562  0
H  H9  1  0.95040253  0.16969135  0.26273453  1  0.114845  0  0.10943  0.118931  0  0.986562  0
H  H10  1  0.45040117  0.16967993  0.23727130  1  0.114567  0  0.109519  0.119037  0  0.986558  0
H  H11  1  0.04960608  0.83030478  0.73727166  1  0.11445  0  0.109474  0.118966  0  0.986529  0
H  H12  1  0.70562403  0.21920257  0.78651922  1  0.076242  0  0.108485  0.115839  0  0.990536  0
H  H13  1  0.79438489  0.78080170  0.28651249  1  0.076645  0  0.108476  0.115917  0  0.990427  0
H  H14  1  0.29438339  0.78079264  0.21348585  1  0.076476  0  0.108493  0.115848  0  0.990584  0
H  H15  1  0.20561335  0.21919361  0.71348416  1  0.076385  0  0.10841  0.115782  0  0.990483  0
H  H16  1  0.80706438  0.22786204  0.65903266  1  0.092697  0  0.102607  0.106526  0  1.007682  0
H  H17  1  0.69294420  0.77215208  0.15902545  1  0.092348  0  0.102669  0.106579  0  1.007676  0
H  H18  1  0.19293624  0.77214151  0.34097073  1  0.092697  0  0.102638  0.106539  0  1.007673  0
H  H19  1  0.30705315  0.22785610  0.84097175  1  0.092297  0  0.102656  0.106552  0  1.007585  0
H  H20  1  0.21372051  0.72437922  0.04532462  1  0.161663  0  0.124104  0.101095  0  1.002095  0
H  H21  1  0.28627799  0.27562354  0.54532768  1  0.161502  0  0.124103  0.101095  0  1.002124  0
H  H22  1  0.78628077  0.27562341  0.95467933  1  0.161738  0  0.124102  0.10111  0  1.002009  0
H  H23  1  0.71371423  0.72437642  0.45467290  1  0.161481  0  0.124099  0.101135  0  1.002006  0
H  H24  1  0.08460991  0.50531817  0.05281040  1  0.11244  0  0.119146  0.140284  0  0.988173  0
H  H25  1  0.41539162  0.49468560  0.55281305  1  0.112419  0  0.119168  0.140283  0  0.988131  0
H  H26  1  0.91538954  0.49468447  0.94719130  1  0.112493  0  0.119166  0.14033  0  0.988087  0
H  H27  1  0.58460086  0.50531528  0.44719146  1  0.112458  0  0.119183  0.140381  0  0.987968  0
H  H28  1  0.38340832  0.40844560  0.92638680  1  0.150401  0  0.123627  0.143825  0  0.976737  0
H  H29  1  0.11659165  0.59155148  0.42638637  1  0.150449  0  0.123644  0.143839  0  0.976698  0
H  H30  1  0.61658836  0.59155707  0.07361097  1  0.150343  0  0.123614  0.143838  0  0.976754  0
H  H31  1  0.88340439  0.40845212  0.57361252  1  0.150523  0  0.123649  0.143858  0  0.976783  0
H  H32  1  0.50152633  0.63307401  0.92411722  1  0.139463  0  0.127585  0.109263  0  0.993277  0
H  H33  1  0.99847362  0.36692343  0.42412034  1  0.139492  0  0.127598  0.109285  0  0.993347  0
H  H34  1  0.49846982  0.36692683  0.07588504  1  0.139398  0  0.127584  0.109309  0  0.993274  0
H  H35  1  0.00152333  0.63308016  0.57587967  1  0.139543  0  0.127584  0.109295  0  0.993327  0
H  H36  1  0.89944601  0.13888083  0.83755386  1  0.097693  0  0.112571  0.112804  0  1.010609  0
H  H37  1  0.60055726  0.86110780  0.33755917  1  0.097667  0  0.112588  0.112782  0  1.010557  0
H  H38  1  0.10056038  0.86111715  0.16244054  1  0.097557  0  0.11255  0.112759  0  1.010606  0
H  H39  1  0.39944294  0.13888473  0.66244590  1  0.097503  0  0.112542  0.112752  0  1.010575  0
H  H40  1  0.20901048  0.08701853  0.15898421  1  0.135148  0  0.113874  0.114871  0  1.015064  0
H  H41  1  0.29099440  0.91298236  0.65898814  1  0.13496  0  0.113865  0.11487  0  1.015047  0
H  H42  1  0.79099105  0.91297858  0.84101356  1  0.134937  0  0.113856  0.114818  0  1.015113  0
H  H43  1  0.70900594  0.08701384  0.34101525  1  0.134893  0  0.113864  0.114817  0  1.015166  0
C  C44  1  0.80418769  0.03639184  0.56697472  1  1.548366  0  0.203601  0.572537  0  4.204368  0
C  C45  1  0.69582594  0.96362255  0.06697271  1  1.547397  0  0.203614  0.572753  0  4.20435  0
C  C46  1  0.19581569  0.96361169  0.43302698  1  1.548611  0  0.203624  0.572599  0  4.204238  0
C  C47  1  0.30418326  0.03639470  0.93302842  1  1.548473  0  0.203561  0.572468  0  4.204557  0
C  C48  1  0.73246536  0.03456625  0.63908345  1  -0.101605  0  -0.018709  -0.032728  0  3.965008  0
C  C49  1  0.76754504  0.96544753  0.13908304  1  -0.101623  0  -0.018684  -0.032714  0  3.964506  0
C  C50  1  0.26753132  0.96543643  0.36091545  1  -0.101705  0  -0.018692  -0.032663  0  3.964789  0
C  C51  1  0.23246085  0.03456149  0.86091867  1  -0.101744  0  -0.018693  -0.032661  0  3.964956  0
C  C52  1  0.65870142  0.92255958  0.66777233  1  0.00998  0  -0.08391  -0.088867  0  3.969241  0
C  C53  1  0.84130691  0.07745377  0.16777657  1  0.009069  0  -0.083897  -0.088857  0  3.968796  0
C  C54  1  0.34129829  0.07744398  0.33222544  1  0.00969  0  -0.083995  -0.089051  0  3.969147  0
C  C55  1  0.15870094  0.92255247  0.83222738  1  0.009699  0  -0.083994  -0.089002  0  3.969094  0
C  C56  1  0.60411055  0.91713218  0.73875153  1  -0.052604  0  -0.081732  -0.094134  0  3.96678  0
C  C57  1  0.89589506  0.08287593  0.23875628  1  -0.052561  0  -0.081701  -0.094175  0  3.966881  0
C  C58  1  0.39588928  0.08286863  0.26124737  1  -0.052646  0  -0.081782  -0.094216  0  3.966729  0
C  C59  1  0.10410948  0.91712207  0.76124879  1  -0.052605  0  -0.081706  -0.094185  0  3.96677  0
C  C60  1  0.62289518  0.02391005  0.78209834  1  -0.074626  0  -0.014463  -0.032675  0  3.961692  0
C  C61  1  0.87710994  0.97609694  0.28209727  1  -0.074815  0  -0.014497  -0.032645  0  3.9617  0
C  C62  1  0.37710570  0.97608799  0.21790224  1  -0.075006  0  -0.014399  -0.032618  0  3.961566  0
C  C63  1  0.12288803  0.02389745  0.71790443  1  -0.074852  0  -0.014452  -0.032543  0  3.961479  0
C  C64  1  0.69267008  0.13688024  0.75239955  1  0.022204  0  -0.08295  -0.094451  0  3.968167  0
C  C65  1  0.80733869  0.86312623  0.25239615  1  0.022116  0  -0.082886  -0.094495  0  3.968079  0
C  C66  1  0.30733236  0.86311686  0.24760271  1  0.022384  0  -0.082956  -0.094491  0  3.96833  0
C  C67  1  0.19266008  0.13687091  0.74760274  1  0.022317  0  -0.082906  -0.094393  0  3.96811  0
C  C68  1  0.74786054  0.14187723  0.68154167  1  -0.055732  0  -0.085388  -0.094788  0  3.973809  0
C  C69  1  0.75215121  0.85813539  0.18153832  1  -0.055045  0  -0.085431  -0.094835  0  3.973749  0
C  C70  1  0.25214048  0.85812448  0.31846003  1  -0.055749  0  -0.085376  -0.094741  0  3.973858  0
C  C71  1  0.24784811  0.14187002  0.81845945  1  -0.055215  0  -0.085411  -0.09484  0  3.973838  0
C  C72  1  0.57679417  0.01573084  0.86177264  1  1.570371  0  0.21497  0.58149  0  4.18504  0
C  C73  1  0.92320942  0.98427197  0.36177269  1  1.570497  0  0.215001  0.581513  0  4.18519  0
C  C74  1  0.42320708  0.98426536  0.13822794  1  1.570301  0  0.215067  0.581613  0  4.184951  0
C  C75  1  0.07678839  0.01571231  0.63822845  1  1.570636  0  0.215031  0.581659  0  4.184958  0
C  C76  1  0.24672032  0.65137976  0.01923674  1  0.476685  0  0.060544  0.121571  0  3.892078  0
C  C77  1  0.25328248  0.34862161  0.51923865  1  0.477266  0  0.060542  0.121517  0  3.892103  0
C  C78  1  0.75327728  0.34862291  0.98076440  1  0.477142  0  0.06058  0.121568  0  3.89196  0
C  C79  1  0.74671433  0.65137830  0.48076081  1  0.477268  0  0.060576  0.121467  0  3.892206  0
C  C80  1  0.17559121  0.52975448  0.02305233  1  -0.004782  0  -0.071288  -0.194374  0  3.918025  0
C  C81  1  0.32440884  0.47024698  0.52305214  1  -0.00528  0  -0.07134  -0.194394  0  3.918083  0
C  C82  1  0.82440548  0.47024820  0.97694825  1  -0.005331  0  -0.07131  -0.194368  0  3.91801  0
C  C83  1  0.67558521  0.52975296  0.47694732  1  -0.005748  0  -0.071388  -0.19451  0  3.917953  0
C  C84  1  0.22535700  0.44163493  0.98917546  1  0.320923  0  0.116876  0.246524  0  4.01195  0
C  C85  1  0.27464328  0.55836411  0.48917514  1  0.320838  0  0.116858  0.246503  0  4.011938  0
C  C86  1  0.77463705  0.55836501  0.01082231  1  0.320653  0  0.116813  0.246411  0  4.012189  0
C  C87  1  0.72535406  0.44163764  0.51082376  1  0.321129  0  0.116885  0.246571  0  4.011985  0
C  C88  1  0.34273862  0.47661665  0.95230954  1  0.055528  0  -0.068438  -0.19349  0  3.913119  0
C  C89  1  0.15726294  0.52337993  0.45231141  1  0.055472  0  -0.068429  -0.193458  0  3.913131  0
C  C90  1  0.65725623  0.52338604  0.04768823  1  0.055709  0  -0.068401  -0.193454  0  3.913262  0
C  C91  1  0.84273360  0.47661907  0.54768917  1  0.055488  0  -0.068449  -0.193507  0  3.913275  0
C  C92  1  0.40825118  0.60046704  0.95115457  1  0.437241  0  0.063187  0.111649  0  3.897606  0
C  C93  1  0.09174724  0.39953138  0.45115682  1  0.437312  0  0.063239  0.111584  0  3.897658  0
C  C94  1  0.59174367  0.39953565  0.04884433  1  0.437215  0  0.063148  0.111537  0  3.89759  0
C  C95  1  0.90824734  0.60047039  0.54884263  1  0.437406  0  0.063291  0.111612  0  3.897641  0
C  C96  1  0.18885315  0.24696307  0.05374632  1  1.351646  0  0.252178  0.461966  0  4.073887  0
C  C97  1  0.31114705  0.75303614  0.55374803  1  1.351999  0  0.25224  0.462062  0  4.073676  0
C  C98  1  0.81114588  0.75303499  0.94625033  1  1.351965  0  0.252294  0.462165  0  4.073841  0
C  C99  1  0.68885003  0.24696470  0.44625030  1  1.351777  0  0.252169  0.461988  0  4.074001  0
C  C100  1  0.11849562  0.11607876  0.05673511  1  -0.015259  0  0.000948  -0.055223  0  3.964377  0
C  C101  1  0.38150932  0.88392412  0.55673647  1  -0.015252  0  0.000955  -0.055293  0  3.964489  0
C  C102  1  0.88151195  0.88392013  0.94326210  1  -0.015265  0  0.001009  -0.05517  0  3.964218  0
C  C103  1  0.61848526  0.11607766  0.44326299  1  -0.015097  0  0.000944  -0.055237  0  3.964322  0
C  C104  1  0.03057778  0.06400083  0.99917927  1  -0.013861  0  0.008391  0.033426  0  3.984284  0
C  C105  1  0.46942041  0.93599748  0.49918230  1  -0.013925  0  0.00832  0.033474  0  3.984334  0
C  C106  1  0.96942769  0.93599716  0.00081569  1  0.048652  0  0.00832  0.033282  0  3.984374  0
C  C107  1  0.53057049  0.06400433  0.50081660  1  0.048333  0  0.00838  0.033355  0  3.984433  0
C  C108  1  0.00241703  0.13596211  0.93985320  1  -0.057773  0  -0.001314  -0.063779  0  3.982572  0
C  C109  1  0.49758177  0.86403429  0.43985346  1  -0.057818  0  -0.001301  -0.063792  0  3.982614  0
C  C110  1  0.99758515  0.86403408  0.06014401  1  -0.057839  0  -0.001251  -0.063601  0  3.98235  0
C  C111  1  0.50241229  0.13596565  0.56014544  1  -0.057489  0  -0.001335  -0.063736  0  3.982415  0
C  C112  1  0.06383758  0.26903738  0.93772713  1  1.335716  0  0.247664  0.446049  0  4.096152  0
C  C113  1  0.43615729  0.73096454  0.43772828  1  1.335611  0  0.247621  0.445959  0  4.096129  0
C  C114  1  0.93616237  0.73096067  0.06227007  1  1.336072  0  0.247616  0.445921  0  4.096287  0
C  C115  1  0.56383231  0.26903912  0.56227061  1  1.334965  0  0.247701  0.446159  0  4.096069  0
C  C116  1  0.91805932  0.08202860  0.88319785  1  0.095646  0  -0.055582  -0.051007  0  3.898635  0
C  C117  1  0.58194164  0.91796540  0.38320020  1  0.095635  0  -0.05556  -0.050878  0  3.898752  0
C  C118  1  0.08194470  0.91796757  0.11679824  1  0.09583  0  -0.055638  -0.051018  0  3.898633  0
C  C119  1  0.41805739  0.08203266  0.61680206  1  0.095776  0  -0.055529  -0.050924  0  3.898564  0
C  C120  1  0.14199327  0.04400623  0.11517544  1  -0.026562  0  -0.054624  -0.04631  0  3.890557  0
C  C121  1  0.35801249  0.95599393  0.61517844  1  -0.026336  0  -0.054639  -0.046337  0  3.890503  0
C  C122  1  0.85801285  0.95599084  0.88482008  1  -0.026352  0  -0.054618  -0.046213  0  3.89033  0
C  C123  1  0.64198417  0.04400231  0.38482214  1  -0.026276  0  -0.054644  -0.046316  0  3.890583  0
N  N124  1  0.36098131  0.68569400  0.98443460  1  -1.246097  0  -0.32105  -0.209014  0  3.522595  0
N  N125  1  0.13901831  0.31430589  0.48443791  1  -1.246109  0  -0.321089  -0.20893  0  3.52247  0
N  N126  1  0.63901537  0.31430868  0.01556485  1  -1.245985  0  -0.321032  -0.208963  0  3.522627  0
N  N127  1  0.86097692  0.68569496  0.51556098  1  -1.246144  0  -0.321143  -0.208918  0  3.522678  0
N  N128  1  0.15688120  0.31411198  0.99332691  1  -1.189224  0  -0.232735  -0.239426  0  3.581278  0
N  N129  1  0.34312028  0.68588804  0.49332733  1  -1.189238  0  -0.232763  -0.239459  0  3.581291  0
N  N130  1  0.84311732  0.68589068  0.00667255  1  -1.189161  0  -0.232745  -0.239462  0  3.581311  0
N  N131  1  0.65687535  0.31411097  0.50667156  1  -1.189041  0  -0.232796  -0.239628  0  3.58134  0
O  O132  1  0.80137939  0.93315098  0.53780206  1  -1.18586  0  -0.324297  -0.575935  0  2.351032  0
O  O133  1  0.69863669  0.06685556  0.03779858  1  -1.185319  0  -0.324302  -0.576063  0  2.351495  0
O  O134  1  0.19862557  0.06685162  0.46219739  1  -1.185997  0  -0.324286  -0.575924  0  2.351238  0
O  O135  1  0.30137776  0.93316073  0.96220368  1  -1.185805  0  -0.324326  -0.576027  0  2.35118  0
O  O136  1  0.86815121  0.14041288  0.54143166  1  -1.171652  0  -0.32482  -0.560675  0  2.302687  0
O  O137  1  0.63186080  0.85959559  0.04143074  1  -1.171258  0  -0.324848  -0.560841  0  2.302409  0
O  O138  1  0.13186162  0.85959147  0.45857510  1  -1.171584  0  -0.324854  -0.560755  0  2.302549  0
O  O139  1  0.36814327  0.14041988  0.95856928  1  -1.171706  0  -0.324713  -0.560603  0  2.302691  0
O  O140  1  0.52677713  0.90845624  0.88766387  1  -1.158752  0  -0.313005  -0.540662  0  2.34861  0
O  O141  1  0.97322071  0.09154613  0.38766576  1  -1.158456  0  -0.313041  -0.540727  0  2.348784  0
O  O142  1  0.47322150  0.09153722  0.11233558  1  -1.158667  0  -0.313045  -0.540695  0  2.348565  0
O  O143  1  0.02678051  0.90843720  0.61233762  1  -1.158691  0  -0.313064  -0.540802  0  2.348656  0
O  O144  1  0.59334214  0.11577718  0.89762173  1  -1.160643  0  -0.310657  -0.545244  0  2.366159  0
O  O145  1  0.90666647  0.88422434  0.39761889  1  -1.161071  0  -0.310662  -0.545252  0  2.366279  0
O  O146  1  0.40666043  0.88421716  0.10238109  1  -1.160682  0  -0.310686  -0.545288  0  2.366167  0
O  O147  1  0.09333146  0.11575719  0.60237944  1  -1.160803  0  -0.310615  -0.545322  0  2.36623  0
O  O148  1  0.26999814  0.29843439  0.09981412  1  -1.111165  0  -0.270496  -0.435399  0  2.087775  0
O  O149  1  0.23000420  0.70156647  0.59981448  1  -1.111451  0  -0.270495  -0.4354  0  2.08775  0
O  O150  1  0.73000655  0.70156728  0.90018477  1  -1.1115  0  -0.270535  -0.435466  0  2.087953  0
O  O151  1  0.76999403  0.29842884  0.40018778  1  -1.111401  0  -0.270455  -0.435337  0  2.088067  0
O  O152  1  0.03820602  0.33947440  0.89117105  1  -1.118167  0  -0.278924  -0.446099  0  2.078033  0
O  O153  1  0.46178381  0.66052220  0.39116495  1  -1.118102  0  -0.278886  -0.446037  0  2.077753  0
O  O154  1  0.96179156  0.66052183  0.10882728  1  -1.118511  0  -0.278872  -0.446025  0  2.078106  0
O  O155  1  0.53820158  0.33947967  0.60882776  1  -1.117444  0  -0.278879  -0.446083  0  2.077932  0
