# generated using pymatgen
data_Ag2H8C17(O2F3)2
_symmetry_space_group_name_H-M   'P 1'
_cell_length_a   6.61947997
_cell_length_b   31.36205622
_cell_length_c   31.36262144
_cell_angle_alpha   89.99982009
_cell_angle_beta   89.99989060
_cell_angle_gamma   89.99995712
_symmetry_Int_Tables_number   1
_chemical_formula_structural   Ag2H8C17(O2F3)2
_chemical_formula_sum   'Ag16 H64 C136 O32 F48'
_cell_volume   6510.89598169
_cell_formula_units_Z   8
loop_
 _symmetry_equiv_pos_site_id
 _symmetry_equiv_pos_as_xyz
  1  'x, y, z'
loop_
 _atom_site_type_symbol
 _atom_site_label
 _atom_site_symmetry_multiplicity
 _atom_site_fract_x
 _atom_site_fract_y
 _atom_site_fract_z
 _atom_site_occupancy
 _atom_site_pbe_bader_charge
 _atom_site_pbe_bader_spin_density
 _atom_site_pbe_cm5_charge
 _atom_site_pbe_ddec_charge
 _atom_site_pbe_ddec_spin_density
 _atom_site_pbe_ddec_sum_bond_order
 _atom_site_pbe_magmom
Ag  Ag0  1  0.00643345  0.56980175  0.51970694  1  0.572891  0  0.414918  0.408513  0  1.797295  0
Ag  Ag1  1  0.67803180  0.53535600  0.47734274  1  0.630335  0  0.415291  0.489497  0  1.753732  0
Ag  Ag2  1  0.00644261  0.93019672  0.98029287  1  0.572904  0  0.414878  0.408547  0  1.797124  0
Ag  Ag3  1  0.67804374  0.96464394  0.02265813  1  0.630401  0  0.415255  0.489451  0  1.753777  0
Ag  Ag4  1  0.49358917  0.51971283  0.93019366  1  0.572784  0  0.414949  0.408629  0  1.797135  0
Ag  Ag5  1  0.82196231  0.47734149  0.96464231  1  0.630405  0  0.415261  0.489376  0  1.753755  0
Ag  Ag6  1  0.49359606  0.98028939  0.56980182  1  0.572953  0  0.414901  0.40851  0  1.797285  0
Ag  Ag7  1  0.82200907  0.02265514  0.53536099  1  0.630274  0  0.415311  0.489518  0  1.753573  0
Ag  Ag8  1  0.50641012  0.48028724  0.06980390  1  0.572761  0  0.414941  0.408594  0  1.797295  0
Ag  Ag9  1  0.17802338  0.52265699  0.03535844  1  0.630225  0  0.415295  0.489467  0  1.753669  0
Ag  Ag10  1  0.50642890  0.01971005  0.43019606  1  0.572852  0  0.414888  0.408514  0  1.797178  0
Ag  Ag11  1  0.17805970  0.97733632  0.46464390  1  0.630449  0  0.415296  0.489452  0  1.753731  0
Ag  Ag12  1  0.99355677  0.43019769  0.48029222  1  0.572939  0  0.414884  0.408517  0  1.797349  0
Ag  Ag13  1  0.32195389  0.46464535  0.52265801  1  0.630354  0  0.415278  0.489439  0  1.753702  0
Ag  Ag14  1  0.99358537  0.06980750  0.01971202  1  0.57277  0  0.414946  0.408601  0  1.797144  0
Ag  Ag15  1  0.32195857  0.03535773  0.97734229  1  0.630268  0  0.415264  0.489458  0  1.7536  0
H  H16  1  0.06250889  0.70212479  0.45873446  1  0.093905  0  0.105868  0.113485  0  0.988694  0
H  H17  1  0.95574675  0.77155135  0.42804382  1  0.085434  0  0.096023  0.106857  0  1.033575  0
H  H18  1  0.41964608  0.71221129  0.37744397  1  0.072774  0  0.091096  0.098365  0  1.06089  0
H  H19  1  0.52853377  0.64380596  0.40869719  1  0.111302  0  0.101558  0.10454  0  1.048833  0
H  H20  1  0.57653093  0.79394653  0.46652597  1  0.076296  0  0.10448  0.111828  0  0.997207  0
H  H21  1  0.58877021  0.85708581  0.51373557  1  0.073761  0  0.107648  0.113651  0  0.983686  0
H  H22  1  0.80700523  0.93348656  0.40956236  1  0.11991  0  0.104344  0.110416  0  1.009238  0
H  H23  1  0.77040754  0.87226329  0.36129609  1  0.064302  0  0.099426  0.104865  0  1.041692  0
H  H24  1  0.06251979  0.79787651  0.04127080  1  0.093176  0  0.105871  0.113472  0  0.988702  0
H  H25  1  0.95576366  0.72844982  0.07196205  1  0.08531  0  0.096022  0.106846  0  1.033481  0
H  H26  1  0.41966529  0.78778837  0.12256210  1  0.072779  0  0.091043  0.098379  0  1.060898  0
H  H27  1  0.52854396  0.85619496  0.09131044  1  0.111322  0  0.101513  0.104472  0  1.048755  0
H  H28  1  0.57652262  0.70605852  0.03347749  1  0.076049  0  0.104516  0.111806  0  0.997163  0
H  H29  1  0.58876079  0.64292341  0.98626242  1  0.07373  0  0.107661  0.113627  0  0.983797  0
H  H30  1  0.80697274  0.56651431  0.09043273  1  0.119954  0  0.104306  0.110287  0  1.009309  0
H  H31  1  0.77039096  0.62773535  0.13870252  1  0.064195  0  0.099465  0.104994  0  1.041625  0
H  H32  1  0.43749186  0.45873809  0.79787734  1  0.093807  0  0.105897  0.113509  0  0.988736  0
H  H33  1  0.54424687  0.42804951  0.72844981  1  0.085651  0  0.096036  0.106815  0  1.033607  0
H  H34  1  0.08034014  0.37744116  0.78778749  1  0.072798  0  0.091056  0.098334  0  1.060945  0
H  H35  1  0.97145054  0.40868894  0.85619578  1  0.110803  0  0.101484  0.104464  0  1.048559  0
H  H36  1  0.92347306  0.46652946  0.70605551  1  0.07611  0  0.104438  0.111738  0  0.997218  0
H  H37  1  0.91124422  0.51374011  0.64291786  1  0.073615  0  0.10763  0.113615  0  0.983859  0
H  H38  1  0.69302825  0.40956532  0.56651501  1  0.119959  0  0.10436  0.110343  0  1.009384  0
H  H39  1  0.72961401  0.36129670  0.62773828  1  0.064159  0  0.099481  0.10502  0  1.041571  0
H  H40  1  0.43747349  0.04126306  0.70212260  1  0.09372  0  0.105841  0.113454  0  0.988718  0
H  H41  1  0.54422620  0.07195353  0.77155009  1  0.085623  0  0.096036  0.106877  0  1.033474  0
H  H42  1  0.08034553  0.12255175  0.71221194  1  0.073041  0  0.091094  0.098384  0  1.060857  0
H  H43  1  0.97146426  0.09129969  0.64380746  1  0.110815  0  0.101568  0.104541  0  1.048829  0
H  H44  1  0.92347348  0.03347162  0.79394265  1  0.076078  0  0.104457  0.111701  0  0.997316  0
H  H45  1  0.91126493  0.98626109  0.85708129  1  0.073635  0  0.107649  0.113665  0  0.98372  0
H  H46  1  0.69301199  0.09043292  0.93348228  1  0.120182  0  0.104311  0.110228  0  1.009364  0
H  H47  1  0.72958153  0.13869994  0.87226028  1  0.064619  0  0.099475  0.104967  0  1.041749  0
H  H48  1  0.56252253  0.54126390  0.20212118  1  0.093774  0  0.105895  0.113539  0  0.988703  0
H  H49  1  0.45576601  0.57195375  0.27154838  1  0.085709  0  0.095998  0.106819  0  1.033582  0
H  H50  1  0.91964403  0.62254839  0.21221325  1  0.073197  0  0.091095  0.098388  0  1.060854  0
H  H51  1  0.02852608  0.59130029  0.14380656  1  0.111339  0  0.101566  0.104521  0  1.048765  0
H  H52  1  0.07654133  0.53347029  0.29394333  1  0.076094  0  0.104384  0.111656  0  0.997297  0
H  H53  1  0.08875355  0.48625900  0.35708034  1  0.073485  0  0.107698  0.113749  0  0.983815  0
H  H54  1  0.30698463  0.59043316  0.43348223  1  0.120203  0  0.104318  0.110237  0  1.009342  0
H  H55  1  0.27041247  0.63869986  0.37226024  1  0.064285  0  0.099471  0.105006  0  1.041733  0
H  H56  1  0.56251824  0.95873223  0.29787623  1  0.093283  0  0.105865  0.113459  0  0.988768  0
H  H57  1  0.45575496  0.92804463  0.22845034  1  0.08549  0  0.095999  0.106766  0  1.033552  0
H  H58  1  0.91962958  0.87745247  0.28778785  1  0.073103  0  0.091079  0.098318  0  1.060887  0
H  H59  1  0.02852444  0.90869910  0.35619456  1  0.111263  0  0.101596  0.104604  0  1.048758  0
H  H60  1  0.07652883  0.96653005  0.20605809  1  0.076103  0  0.104428  0.111679  0  0.997294  0
H  H61  1  0.08877816  0.01374281  0.14292201  1  0.073592  0  0.107671  0.113834  0  0.983645  0
H  H62  1  0.30698578  0.90956810  0.06651719  1  0.120202  0  0.104309  0.110224  0  1.009293  0
H  H63  1  0.27037848  0.86129822  0.12773824  1  0.064085  0  0.099491  0.10509  0  1.041545  0
H  H64  1  0.93747529  0.29787942  0.54126629  1  0.093617  0  0.10588  0.113488  0  0.988718  0
H  H65  1  0.04422383  0.22845287  0.57195629  1  0.085747  0  0.096048  0.10691  0  1.033469  0
H  H66  1  0.58034263  0.28778751  0.62255231  1  0.072992  0  0.091063  0.098346  0  1.060961  0
H  H67  1  0.47146551  0.35619571  0.59130292  1  0.111285  0  0.101589  0.104592  0  1.048757  0
H  H68  1  0.42344116  0.20605737  0.53347063  1  0.076289  0  0.104378  0.111602  0  0.997335  0
H  H69  1  0.41123361  0.14291777  0.48626007  1  0.073984  0  0.107657  0.113687  0  0.983797  0
H  H70  1  0.19304844  0.06651032  0.59043743  1  0.119759  0  0.10431  0.110252  0  1.009309  0
H  H71  1  0.22961138  0.12773455  0.63870306  1  0.064203  0  0.099451  0.104948  0  1.04163  0
H  H72  1  0.93748101  0.20212389  0.95873250  1  0.093673  0  0.105869  0.113501  0  0.988696  0
H  H73  1  0.04423260  0.27155057  0.92804061  1  0.085258  0  0.096022  0.106925  0  1.033465  0
H  H74  1  0.58032946  0.21221171  0.87743833  1  0.072845  0  0.091043  0.09833  0  1.060979  0
H  H75  1  0.47145079  0.14380416  0.90869126  1  0.111365  0  0.101527  0.104509  0  1.048581  0
H  H76  1  0.42346458  0.29394187  0.96652326  1  0.076094  0  0.104476  0.111771  0  0.997241  0
H  H77  1  0.41122943  0.35707794  0.01373737  1  0.073725  0  0.107625  0.113609  0  0.983735  0
H  H78  1  0.19303259  0.43348767  0.90956515  1  0.119997  0  0.104326  0.110322  0  1.009364  0
H  H79  1  0.22962192  0.37226695  0.86129600  1  0.06407  0  0.099436  0.10494  0  1.041655  0
C  C80  1  0.84809342  0.62632200  0.45549841  1  1.53263  0  0.20601  0.563318  0  4.187402  0
C  C81  1  0.79958509  0.66853387  0.43576786  1  -0.000237  0  -0.017055  -0.023433  0  3.961387  0
C  C82  1  0.92160214  0.70464309  0.44094815  1  -0.040023  0  -0.082009  -0.078754  0  3.948216  0
C  C83  1  0.86117595  0.74356500  0.42364757  1  0.003024  0  -0.094277  -0.13337  0  3.971427  0
C  C84  1  0.67943670  0.74730204  0.40094350  1  -0.102532  0  -0.015287  0.088678  0  3.945718  0
C  C85  1  0.55967210  0.71092148  0.39542044  1  -0.031294  0  -0.100016  -0.140704  0  3.989527  0
C  C86  1  0.61962695  0.67226039  0.41280775  1  0.017634  0  -0.085544  -0.073636  0  3.962894  0
C  C87  1  0.62382509  0.79051194  0.38089856  1  0.070799  0  -0.011187  -0.273963  0  3.852475  0
C  C88  1  0.39235831  0.79428213  0.37212414  1  1.728579  0  0.301998  0.675508  0  3.973737  0
C  C89  1  0.73487632  0.79274655  0.33701222  1  1.717919  0  0.302531  0.679267  0  3.970149  0
C  C90  1  0.67281362  0.82836974  0.41030834  1  -0.104625  0  -0.012018  0.092797  0  3.938606  0
C  C91  1  0.62585354  0.82451342  0.45378942  1  0.01956  0  -0.090168  -0.127809  0  3.977381  0
C  C92  1  0.63410625  0.85979837  0.48047973  1  -0.020327  0  -0.081651  -0.078355  0  3.960211  0
C  C93  1  0.69819890  0.89944790  0.46483651  1  0.050383  0  -0.016962  -0.026943  0  3.970932  0
C  C94  1  0.68667815  0.93747948  0.49334587  1  1.523094  0  0.209202  0.565522  0  4.187523  0
C  C95  1  0.75633962  0.90292190  0.42213312  1  -0.128729  0  -0.079865  -0.070116  0  3.936883  0
C  C96  1  0.73827042  0.86793253  0.39497473  1  0.050074  0  -0.091452  -0.128545  0  3.952945  0
C  C97  1  0.84810551  0.87367919  0.04450623  1  1.532912  0  0.206056  0.563436  0  4.187408  0
C  C98  1  0.79958809  0.83146733  0.06423584  1  -0.000506  0  -0.017053  -0.02321  0  3.961332  0
C  C99  1  0.92160532  0.79535872  0.05905646  1  -0.039146  0  -0.082055  -0.078874  0  3.947924  0
C  C100  1  0.86118062  0.75643460  0.07635674  1  0.003813  0  -0.094329  -0.133418  0  3.97129  0
C  C101  1  0.67945779  0.75269821  0.09906088  1  -0.103694  0  -0.015109  0.089038  0  3.945427  0
C  C102  1  0.55969602  0.78908071  0.10458558  1  -0.030744  0  -0.100058  -0.140913  0  3.989438  0
C  C103  1  0.61964182  0.82774146  0.08719888  1  0.017328  0  -0.085497  -0.073649  0  3.962876  0
C  C104  1  0.62382803  0.70948832  0.11910393  1  0.071167  0  -0.011235  -0.274259  0  3.852546  0
C  C105  1  0.39235815  0.70572008  0.12787748  1  1.728545  0  0.30207  0.675729  0  3.973517  0
C  C106  1  0.73486977  0.70724924  0.16299150  1  1.717775  0  0.302513  0.679154  0  3.97045  0
C  C107  1  0.67280490  0.67163179  0.08969285  1  -0.104552  0  -0.01196  0.093092  0  3.938216  0
C  C108  1  0.62584220  0.67549258  0.04621180  1  0.019361  0  -0.09013  -0.127713  0  3.976858  0
C  C109  1  0.63408322  0.64020763  0.01951893  1  -0.020611  0  -0.081706  -0.078482  0  3.959984  0
C  C110  1  0.69817285  0.60055618  0.03515989  1  0.050597  0  -0.016955  -0.026741  0  3.970463  0
C  C111  1  0.68663590  0.56252364  0.00664958  1  1.523835  0  0.209219  0.565506  0  4.187521  0
C  C112  1  0.75631770  0.59707993  0.07786231  1  -0.128782  0  -0.079847  -0.070006  0  3.936756  0
C  C113  1  0.73825264  0.63206899  0.10502517  1  0.050408  0  -0.091567  -0.128895  0  3.952903  0
C  C114  1  0.65190563  0.45549805  0.87367804  1  1.533052  0  0.205974  0.56313  0  4.187758  0
C  C115  1  0.70040666  0.43576631  0.83146731  1  -6.6e-05  0  -0.017104  -0.023432  0  3.961319  0
C  C116  1  0.57839573  0.44095003  0.79535842  1  -0.040131  0  -0.082078  -0.078796  0  3.948155  0
C  C117  1  0.63882214  0.42365084  0.75643566  1  0.002771  0  -0.094246  -0.13334  0  3.971499  0
C  C118  1  0.82055098  0.40094505  0.75269682  1  -0.102813  0  -0.015139  0.088919  0  3.945526  0
C  C119  1  0.94031098  0.39541888  0.78907929  1  -0.031352  0  -0.100062  -0.140794  0  3.98947  0
C  C120  1  0.88035892  0.41280384  0.82774026  1  0.018006  0  -0.085475  -0.073607  0  3.962615  0
C  C121  1  0.87617494  0.38090114  0.70948904  1  0.071484  0  -0.01124  -0.274057  0  3.852312  0
C  C122  1  0.10764481  0.37212531  0.70572070  1  1.728556  0  0.302051  0.675679  0  3.973488  0
C  C123  1  0.76512401  0.33701436  0.70725271  1  1.718086  0  0.30239  0.67902  0  3.970604  0
C  C124  1  0.82719840  0.41031127  0.67163120  1  -0.104983  0  -0.011897  0.092874  0  3.938376  0
C  C125  1  0.87415516  0.45379278  0.67549017  1  0.020032  0  -0.090154  -0.127662  0  3.977043  0
C  C126  1  0.86591143  0.48048433  0.64020450  1  -0.020702  0  -0.081736  -0.078544  0  3.960151  0
C  C127  1  0.80183109  0.46483874  0.60055447  1  0.050469  0  -0.016854  -0.026685  0  3.970575  0
C  C128  1  0.81337593  0.49334873  0.56252125  1  1.524138  0  0.209188  0.565484  0  4.187678  0
C  C129  1  0.74368010  0.42213842  0.59707843  1  -0.128635  0  -0.079896  -0.070116  0  3.936824  0
C  C130  1  0.76175240  0.39497561  0.63206981  1  0.050345  0  -0.091595  -0.128737  0  3.952707  0
C  C131  1  0.65190308  0.04449892  0.62632309  1  1.53285  0  0.205969  0.563335  0  4.187606  0
C  C132  1  0.70040816  0.06422970  0.66853476  1  0.00026  0  -0.017069  -0.023402  0  3.961464  0
C  C133  1  0.57838633  0.05904855  0.70464051  1  -0.040129  0  -0.08202  -0.078784  0  3.948095  0
C  C134  1  0.63881230  0.07634997  0.74356420  1  0.002779  0  -0.094248  -0.133353  0  3.971431  0
C  C135  1  0.82054706  0.09905445  0.74730202  1  -0.102279  0  -0.015089  0.088817  0  3.94562  0
C  C136  1  0.94031192  0.10457582  0.71091951  1  -0.032904  0  -0.100143  -0.140789  0  3.989577  0
C  C137  1  0.88036483  0.08718959  0.67225983  1  0.018904  0  -0.085566  -0.073743  0  3.963313  0
C  C138  1  0.87616599  0.11909899  0.79051042  1  0.071244  0  -0.011255  -0.273863  0  3.852049  0
C  C139  1  0.10763277  0.12787301  0.79427682  1  1.728839  0  0.302018  0.6755  0  3.973515  0
C  C140  1  0.76511185  0.16298546  0.79274679  1  1.717969  0  0.302339  0.67905  0  3.970498  0
C  C141  1  0.82719222  0.08968791  0.82836796  1  -0.104878  0  -0.011835  0.092858  0  3.938113  0
C  C142  1  0.87416278  0.04620767  0.82450801  1  0.019712  0  -0.090087  -0.127535  0  3.976878  0
C  C143  1  0.86592032  0.01951612  0.85979433  1  -0.02064  0  -0.08173  -0.078578  0  3.959921  0
C  C144  1  0.80182745  0.03515917  0.89944406  1  0.050523  0  -0.016933  -0.026778  0  3.970624  0
C  C145  1  0.81337506  0.00664950  0.93747823  1  1.524138  0  0.209295  0.565691  0  4.187653  0
C  C146  1  0.74366569  0.07786013  0.90291916  1  -0.128784  0  -0.079848  -0.069937  0  3.936728  0
C  C147  1  0.76173369  0.10502199  0.86792905  1  0.049963  0  -0.09161  -0.128726  0  3.952735  0
C  C148  1  0.34809970  0.54449756  0.12632238  1  1.532895  0  0.205923  0.563205  0  4.187827  0
C  C149  1  0.29959263  0.56423026  0.16853184  1  0.000245  0  -0.017082  -0.023353  0  3.961368  0
C  C150  1  0.42160960  0.55904973  0.20464010  1  -0.040077  0  -0.082022  -0.078877  0  3.94819  0
C  C151  1  0.36118771  0.57634956  0.24356253  1  0.002951  0  -0.094253  -0.133293  0  3.971496  0
C  C152  1  0.17945132  0.59905407  0.24730170  1  -0.102792  0  -0.01515  0.088808  0  3.945604  0
C  C153  1  0.05968226  0.60457482  0.21092018  1  -0.032563  0  -0.100118  -0.140822  0  3.989609  0
C  C154  1  0.11963281  0.58718986  0.17225985  1  0.018143  0  -0.085563  -0.073693  0  3.963093  0
C  C155  1  0.12383643  0.61909861  0.29051043  1  0.070802  0  -0.011253  -0.273938  0  3.852227  0
C  C156  1  0.89236807  0.62787476  0.29427941  1  1.728427  0  0.302004  0.675376  0  3.973654  0
C  C157  1  0.23489340  0.66298571  0.29274645  1  1.717967  0  0.302423  0.679055  0  3.970496  0
C  C158  1  0.17281599  0.58968625  0.32836764  1  -0.104071  0  -0.011808  0.093008  0  3.938226  0
C  C159  1  0.12585772  0.54620570  0.32450803  1  0.019884  0  -0.090103  -0.127594  0  3.976991  0
C  C160  1  0.13409087  0.51951415  0.35979466  1  -0.02059  0  -0.081787  -0.078738  0  3.960182  0
C  C161  1  0.19816668  0.53515878  0.39944373  1  0.050494  0  -0.016942  -0.026696  0  3.970591  0
C  C162  1  0.18661126  0.50665039  0.43747759  1  1.524211  0  0.209276  0.565512  0  4.187574  0
C  C163  1  0.25633429  0.57786038  0.40291817  1  -0.128791  0  -0.07981  -0.069846  0  3.936618  0
C  C164  1  0.23826955  0.60502192  0.36792903  1  0.049712  0  -0.091649  -0.128908  0  3.952906  0
C  C165  1  0.34810224  0.95549828  0.37367798  1  1.532769  0  0.206015  0.56322  0  4.187803  0
C  C166  1  0.29958659  0.93576910  0.33146726  1  0.000346  0  -0.017141  -0.023524  0  3.961685  0
C  C167  1  0.42160540  0.94094833  0.29535991  1  -0.039364  0  -0.081999  -0.07871  0  3.948084  0
C  C168  1  0.36116885  0.92364915  0.25643559  1  0.002994  0  -0.094185  -0.133173  0  3.971375  0
C  C169  1  0.17943410  0.90094658  0.25269809  1  -0.102643  0  -0.015163  0.088709  0  3.945599  0
C  C170  1  0.05966621  0.89542616  0.28908220  1  -0.032556  0  -0.10008  -0.140676  0  3.9896  0
C  C171  1  0.11962690  0.91281112  0.32774124  1  0.017964  0  -0.085602  -0.073773  0  3.963354  0
C  C172  1  0.12381970  0.88090236  0.20948969  1  0.071148  0  -0.01128  -0.274013  0  3.852014  0
C  C173  1  0.89235141  0.87212546  0.20572011  1  1.728586  0  0.302039  0.675664  0  3.973354  0
C  C174  1  0.23487988  0.83701620  0.20725396  1  1.717948  0  0.302417  0.679181  0  3.970334  0
C  C175  1  0.17280253  0.91031312  0.17163151  1  -0.104818  0  -0.011844  0.092992  0  3.938139  0
C  C176  1  0.12585614  0.95379368  0.17549338  1  0.019706  0  -0.090145  -0.127592  0  3.976872  0
C  C177  1  0.13411370  0.98048810  0.14020833  1  -0.020451  0  -0.081833  -0.078871  0  3.960049  0
C  C178  1  0.19819449  0.96484441  0.10055892  1  0.050351  0  -0.016861  -0.026803  0  3.970771  0
C  C179  1  0.18665897  0.99335312  0.06252539  1  1.523355  0  0.209349  0.565675  0  4.187259  0
C  C180  1  0.25633360  0.92214153  0.09708127  1  -0.128969  0  -0.07973  -0.06965  0  3.936442  0
C  C181  1  0.23825049  0.89497745  0.13206914  1  0.050604  0  -0.091685  -0.129062  0  3.95256  0
C  C182  1  0.15189378  0.37368063  0.54450298  1  1.533284  0  0.206209  0.563362  0  4.187363  0
C  C183  1  0.20040059  0.33146844  0.56423161  1  -0.000538  0  -0.017128  -0.023396  0  3.961268  0
C  C184  1  0.07838959  0.29536049  0.55905164  1  -0.039926  0  -0.082059  -0.078861  0  3.948323  0
C  C185  1  0.13881276  0.25643635  0.57634999  1  0.002732  0  -0.094289  -0.133421  0  3.971323  0
C  C186  1  0.32055201  0.25269739  0.59905470  1  -0.102755  0  -0.015082  0.089011  0  3.945473  0
C  C187  1  0.44031056  0.28907924  0.60457616  1  -0.031782  0  -0.100091  -0.14084  0  3.989843  0
C  C188  1  0.38036931  0.32774095  0.58719172  1  0.017763  0  -0.085602  -0.073758  0  3.962974  0
C  C189  1  0.37615757  0.20948654  0.61909932  1  0.071155  0  -0.011235  -0.274054  0  3.852303  0
C  C190  1  0.60762436  0.20571890  0.62787756  1  1.728529  0  0.301985  0.675228  0  3.974032  0
C  C191  1  0.26509124  0.20725289  0.66298598  1  1.717636  0  0.302485  0.679156  0  3.970578  0
C  C192  1  0.32718415  0.17163002  0.58968858  1  -0.104311  0  -0.011894  0.092933  0  3.938314  0
C  C193  1  0.37413517  0.17548920  0.54620750  1  0.019608  0  -0.09013  -0.127482  0  3.977056  0
C  C194  1  0.36589303  0.14020393  0.51951623  1  -0.020962  0  -0.081679  -0.078662  0  3.960346  0
C  C195  1  0.30182304  0.10055249  0.53516041  1  0.050502  0  -0.016901  -0.026696  0  3.970725  0
C  C196  1  0.31337552  0.06251964  0.50665201  1  1.523995  0  0.20916  0.565552  0  4.187903  0
C  C197  1  0.24367930  0.09707721  0.57786349  1  -0.128598  0  -0.079862  -0.07  0  3.936735  0
C  C198  1  0.26174095  0.13206690  0.60502410  1  0.050419  0  -0.091564  -0.128739  0  3.952833  0
C  C199  1  0.15188622  0.12632439  0.95549898  1  1.532738  0  0.206121  0.563399  0  4.187702  0
C  C200  1  0.20039609  0.16853307  0.93576746  1  -6.4e-05  0  -0.017047  -0.02329  0  3.961217  0
C  C201  1  0.07839245  0.20464294  0.94094684  1  -0.039884  0  -0.082079  -0.078916  0  3.948076  0
C  C202  1  0.13882017  0.24356612  0.92364560  1  0.003895  0  -0.094273  -0.133462  0  3.971253  0
C  C203  1  0.32054754  0.24730282  0.90094018  1  -0.103616  0  -0.015115  0.088994  0  3.945431  0
C  C204  1  0.44030327  0.21091904  0.89541581  1  -0.03073  0  -0.100144  -0.140917  0  3.989704  0
C  C205  1  0.38035444  0.17225925  0.91280218  1  0.017341  0  -0.085495  -0.073652  0  3.962562  0
C  C206  1  0.37617428  0.29051239  0.88089650  1  0.070985  0  -0.011236  -0.27407  0  3.852513  0
C  C207  1  0.60764265  0.29427808  0.87212327  1  1.72855  0  0.302057  0.675509  0  3.973899  0
C  C208  1  0.26512800  0.29274892  0.83700924  1  1.7179  0  0.302486  0.679095  0  3.970551  0
C  C209  1  0.32719892  0.32836924  0.91030662  1  -0.104742  0  -0.011954  0.093073  0  3.938298  0
C  C210  1  0.37415406  0.32450940  0.95378831  1  0.019675  0  -0.090091  -0.127718  0  3.976985  0
C  C211  1  0.36590549  0.35979340  0.98048023  1  -0.020417  0  -0.081711  -0.078445  0  3.959976  0
C  C212  1  0.30182039  0.39944517  0.96483894  1  0.050265  0  -0.01691  -0.026895  0  3.970649  0
C  C213  1  0.31335130  0.43747707  0.99334830  1  1.523754  0  0.209218  0.565622  0  4.187453  0
C  C214  1  0.24367856  0.40292269  0.92213589  1  -0.128618  0  -0.079905  -0.070071  0  3.936748  0
C  C215  1  0.26175420  0.36793236  0.89497399  1  0.050347  0  -0.091473  -0.128692  0  3.952802  0
O  O216  1  0.73229440  0.59544044  0.44545404  1  -1.123821  0  -0.328493  -0.523267  0  2.393183  0
O  O217  1  0.99742980  0.62502165  0.48154595  1  -1.114972  0  -0.334226  -0.498061  0  2.353693  0
O  O218  1  0.53934318  0.93684492  0.51969925  1  -1.101401  0  -0.328288  -0.510342  0  2.451948  0
O  O219  1  0.81644359  0.96767616  0.48934677  1  -1.158167  0  -0.331196  -0.551458  0  2.481633  0
O  O220  1  0.73230778  0.90456204  0.05455000  1  -1.123876  0  -0.328514  -0.52334  0  2.393144  0
O  O221  1  0.99743156  0.87497824  0.01845767  1  -1.114819  0  -0.334233  -0.498172  0  2.35383  0
O  O222  1  0.53931449  0.56316080  0.98029430  1  -1.101938  0  -0.3283  -0.510461  0  2.452068  0
O  O223  1  0.81638783  0.53232344  0.01065373  1  -1.158173  0  -0.331257  -0.551482  0  2.481592  0
O  O224  1  0.76768498  0.44544955  0.90456034  1  -1.124101  0  -0.328512  -0.523148  0  2.393346  0
O  O225  1  0.50259172  0.48155152  0.87497575  1  -1.115184  0  -0.334187  -0.498018  0  2.353758  0
O  O226  1  0.96071072  0.51970030  0.56315537  1  -1.101969  0  -0.328259  -0.510356  0  2.45224  0
O  O227  1  0.68360456  0.48934681  0.53232514  1  -1.158584  0  -0.331191  -0.551421  0  2.481592  0
O  O228  1  0.76769479  0.05454582  0.59544171  1  -1.123968  0  -0.328472  -0.523265  0  2.393364  0
O  O229  1  0.50258023  0.01844930  0.62502161  1  -1.115129  0  -0.334213  -0.498069  0  2.353727  0
O  O230  1  0.96071406  0.98029802  0.93684471  1  -1.102114  0  -0.328317  -0.510496  0  2.452179  0
O  O231  1  0.68360792  0.01065111  0.96767470  1  -1.158464  0  -0.331256  -0.551562  0  2.481723  0
O  O232  1  0.23229768  0.55454479  0.09544200  1  -1.123782  0  -0.32844  -0.523201  0  2.393302  0
O  O233  1  0.49741511  0.51844792  0.12502085  1  -1.115381  0  -0.334215  -0.498059  0  2.353983  0
O  O234  1  0.03927346  0.48029881  0.43684410  1  -1.102252  0  -0.328267  -0.510387  0  2.452195  0
O  O235  1  0.31638263  0.51065326  0.46767433  1  -1.158421  0  -0.331283  -0.551497  0  2.481619  0
O  O236  1  0.23231809  0.94544947  0.40455968  1  -1.124046  0  -0.32848  -0.523138  0  2.393357  0
O  O237  1  0.49742359  0.98154694  0.37497786  1  -1.11504  0  -0.334221  -0.498038  0  2.353878  0
O  O238  1  0.03933507  0.01970747  0.06316050  1  -1.101869  0  -0.328337  -0.510479  0  2.451994  0
O  O239  1  0.31642611  0.98935087  0.03232827  1  -1.15785  0  -0.331329  -0.55157  0  2.481599  0
O  O240  1  0.26768222  0.40456346  0.55454990  1  -1.123875  0  -0.328536  -0.523207  0  2.393109  0
O  O241  1  0.00257401  0.37497843  0.51845129  1  -1.115311  0  -0.334329  -0.498145  0  2.353734  0
O  O242  1  0.46070444  0.06315515  0.48029959  1  -1.101903  0  -0.328278  -0.510408  0  2.452205  0
O  O243  1  0.18362519  0.03231945  0.51065525  1  -1.158557  0  -0.33119  -0.551526  0  2.481901  0
O  O244  1  0.26767639  0.09544154  0.94545138  1  -1.123802  0  -0.328543  -0.523216  0  2.393266  0
O  O245  1  0.00257075  0.12502534  0.98154977  1  -1.115113  0  -0.334275  -0.49821  0  2.353891  0
O  O246  1  0.46068178  0.43684215  0.01970262  1  -1.101686  0  -0.328305  -0.510456  0  2.451892  0
O  O247  1  0.18359182  0.46767440  0.98934701  1  -1.158264  0  -0.331217  -0.551465  0  2.481706  0
F  F248  1  0.32942759  0.76927011  0.33938458  1  -0.611703  0  -0.092083  -0.197722  0  1.385165  0
F  F249  1  0.28541622  0.78275286  0.40763014  1  -0.627164  0  -0.091152  -0.202538  0  1.348855  0
F  F250  1  0.33719382  0.83482126  0.36269025  1  -0.616714  0  -0.091562  -0.192274  0  1.376428  0
F  F251  1  0.72079986  0.75563358  0.31510722  1  -0.608308  0  -0.096747  -0.191793  0  1.325184  0
F  F252  1  0.93450676  0.80107697  0.34263192  1  -0.61602  0  -0.093061  -0.198056  0  1.3754  0
F  F253  1  0.65891271  0.82402547  0.31118271  1  -0.608523  0  -0.096075  -0.205938  0  1.355532  0
F  F254  1  0.32941946  0.73072924  0.16061738  1  -0.611843  0  -0.092103  -0.197767  0  1.38513  0
F  F255  1  0.28542391  0.71725191  0.09237088  1  -0.627157  0  -0.091147  -0.202623  0  1.3489  0
F  F256  1  0.33718315  0.66517968  0.13730789  1  -0.616577  0  -0.091614  -0.19232  0  1.376406  0
F  F257  1  0.72078994  0.74436125  0.18490033  1  -0.608593  0  -0.096762  -0.191725  0  1.32514  0
F  F258  1  0.93450332  0.69891814  0.15737333  1  -0.615973  0  -0.093019  -0.197993  0  1.375382  0
F  F259  1  0.65889244  0.67596905  0.18881594  1  -0.608372  0  -0.096025  -0.205871  0  1.355764  0
F  F260  1  0.17056812  0.33938316  0.73073012  1  -0.611779  0  -0.092056  -0.197713  0  1.385168  0
F  F261  1  0.21458813  0.40763157  0.71725346  1  -0.627258  0  -0.091115  -0.20257  0  1.348809  0
F  F262  1  0.16282005  0.36269423  0.66518072  1  -0.616541  0  -0.091675  -0.192377  0  1.37643  0
F  F263  1  0.77919749  0.31510726  0.74436603  1  -0.608241  0  -0.096727  -0.19171  0  1.325185  0
F  F264  1  0.56549658  0.34263552  0.69892148  1  -0.616143  0  -0.092994  -0.197994  0  1.375508  0
F  F265  1  0.84109242  0.31118606  0.67597505  1  -0.608598  0  -0.096008  -0.205858  0  1.355746  0
F  F266  1  0.17055771  0.16061803  0.76926800  1  -0.611834  0  -0.092087  -0.197708  0  1.384961  0
F  F267  1  0.21457332  0.09236770  0.78274242  1  -0.627294  0  -0.091097  -0.20255  0  1.348899  0
F  F268  1  0.16281967  0.13730281  0.83481645  1  -0.616806  0  -0.091623  -0.192311  0  1.376554  0
F  F269  1  0.77919315  0.18489320  0.75563442  1  -0.608268  0  -0.096745  -0.191763  0  1.325145  0
F  F270  1  0.56547831  0.15736593  0.80107490  1  -0.616179  0  -0.093018  -0.198012  0  1.375505  0
F  F271  1  0.84107834  0.18881184  0.82402601  1  -0.608524  0  -0.095944  -0.205852  0  1.355753  0
F  F272  1  0.82944778  0.66061851  0.26926967  1  -0.611798  0  -0.092145  -0.197718  0  1.385117  0
F  F273  1  0.78542173  0.59237042  0.28274825  1  -0.627155  0  -0.091034  -0.202452  0  1.348977  0
F  F274  1  0.83719283  0.63730775  0.33481971  1  -0.616522  0  -0.091607  -0.192285  0  1.376386  0
F  F275  1  0.22081539  0.68489377  0.25563568  1  -0.608246  0  -0.096756  -0.191728  0  1.325204  0
F  F276  1  0.43452386  0.65736392  0.30107576  1  -0.616153  0  -0.093033  -0.198029  0  1.375553  0
F  F277  1  0.15893557  0.68881273  0.32402665  1  -0.60851  0  -0.095944  -0.205793  0  1.355672  0
F  F278  1  0.82942647  0.83938523  0.23073083  1  -0.61177  0  -0.092056  -0.197715  0  1.385116  0
F  F279  1  0.78541237  0.90763333  0.21724972  1  -0.627326  0  -0.091148  -0.202614  0  1.348847  0
F  F280  1  0.83718415  0.86269248  0.16518015  1  -0.616606  0  -0.091605  -0.192326  0  1.376324  0
F  F281  1  0.22080915  0.81510942  0.24436664  1  -0.608205  0  -0.096721  -0.191715  0  1.325153  0
F  F282  1  0.43451191  0.84263796  0.19892297  1  -0.616116  0  -0.093029  -0.198072  0  1.375407  0
F  F283  1  0.15892094  0.81118696  0.17597601  1  -0.608528  0  -0.095983  -0.205895  0  1.355771  0
F  F284  1  0.67054450  0.23072932  0.66061999  1  -0.61191  0  -0.092116  -0.197662  0  1.385156  0
F  F285  1  0.71458004  0.21724785  0.59237411  1  -0.626966  0  -0.09108  -0.202436  0  1.349167  0
F  F286  1  0.66279036  0.16517785  0.63731273  1  -0.616681  0  -0.091546  -0.192167  0  1.37641  0
F  F287  1  0.27915863  0.24436745  0.68489034  1  -0.608227  0  -0.096769  -0.191732  0  1.325119  0
F  F288  1  0.06545929  0.19892119  0.65736437  1  -0.615858  0  -0.092988  -0.198011  0  1.375628  0
F  F289  1  0.34105333  0.17597588  0.68881485  1  -0.60849  0  -0.096038  -0.205864  0  1.35575  0
F  F290  1  0.67057076  0.26926669  0.83938432  1  -0.611893  0  -0.09203  -0.197634  0  1.385306  0
F  F291  1  0.71457990  0.28274625  0.90763050  1  -0.627201  0  -0.09114  -0.202559  0  1.348806  0
F  F292  1  0.66281613  0.33481784  0.86269190  1  -0.616513  0  -0.091652  -0.192333  0  1.376626  0
F  F293  1  0.27919424  0.25563659  0.81510201  1  -0.608306  0  -0.096736  -0.1917  0  1.325298  0
F  F294  1  0.06549596  0.30108257  0.84262678  1  -0.615994  0  -0.093006  -0.198002  0  1.375422  0
F  F295  1  0.34110986  0.32402688  0.81118289  1  -0.608689  0  -0.096063  -0.205901  0  1.355676  0
