# generated using pymatgen
data_CuH14C19N2O3
_symmetry_space_group_name_H-M   'P 1'
_cell_length_a   8.72320229
_cell_length_b   10.38894900
_cell_length_c   11.37023682
_cell_angle_alpha   79.04409062
_cell_angle_beta   87.97302165
_cell_angle_gamma   81.76290326
_symmetry_Int_Tables_number   1
_chemical_formula_structural   CuH14C19N2O3
_chemical_formula_sum   'Cu2 H28 C38 N4 O6'
_cell_volume   1001.17416874
_cell_formula_units_Z   2
loop_
 _symmetry_equiv_pos_site_id
 _symmetry_equiv_pos_as_xyz
  1  'x, y, z'
loop_
 _atom_site_type_symbol
 _atom_site_label
 _atom_site_symmetry_multiplicity
 _atom_site_fract_x
 _atom_site_fract_y
 _atom_site_fract_z
 _atom_site_occupancy
 _atom_site_hle17_ddec_charge
 _atom_site_hle17_ddec_spin_density
 _atom_site_hle17_ddec_sum_bond_order
 _atom_site_hle17_magmom
 _atom_site_hse06_10hf_ddec_charge
 _atom_site_hse06_10hf_ddec_spin_density
 _atom_site_hse06_10hf_ddec_sum_bond_order
 _atom_site_hse06_10hf_magmom
 _atom_site_hse06_ddec_charge
 _atom_site_hse06_ddec_spin_density
 _atom_site_hse06_ddec_sum_bond_order
 _atom_site_hse06_magmom
 _atom_site_pbe_cm5_charge
 _atom_site_pbe_ddec_charge
 _atom_site_pbe_ddec_spin_density
 _atom_site_pbe_ddec_sum_bond_order
 _atom_site_pbe_magmom
Cu  Cu0  1  0.43297687  0.92494961  0.39652131  1  0.840554  0.71329  1.794259  0.485  0.817055  0.795343  2.186889  0.601  0.908347  0.877465  2.119116  0.689  0.731251  0.762371  0.736435  2.233556  0.543
Cu  Cu1  1  0.56701431  0.07504236  0.60347421  1  0.840837  -0.713381  1.794797  -0.486  0.817282  -0.795381  2.187526  -0.601  0.908581  -0.877493  2.119664  -0.689  0.731521  0.762597  -0.736469  2.234199  -0.543
H  H2  1  0.33707996  0.75175080  0.61263836  1  0.07941  0.000788  0.966655  0.002  0.089739  0.000741  1.028409  0.002  0.091794  0.000503  1.026304  0.001  0.116194  0.087981  0.000903  1.03022  0.002
H  H3  1  0.66296819  0.24829695  0.38730182  1  0.079464  -0.000788  0.966834  -0.002  0.089809  -0.000741  1.028432  -0.002  0.091854  -0.000503  1.026374  -0.001  0.11623  0.088056  -0.000903  1.030234  -0.002
H  H4  1  0.43708414  0.53307559  0.74336634  1  0.105247  0.000467  0.930479  0.0  0.120706  0.000522  0.977405  0.0  0.123452  0.000382  0.977684  0.0  0.112902  0.118744  0.000587  0.977291  0.001
H  H5  1  0.56289623  0.46693474  0.25665295  1  0.105099  -0.000465  0.930657  0.0  0.120725  -0.000522  0.977414  0.0  0.123471  -0.000382  0.977686  0.0  0.112934  0.118751  -0.000587  0.977318  -0.001
H  H6  1  0.68790414  0.41005830  0.68931377  1  0.115074  0.000206  0.972137  0.0  0.126929  -2.2e-05  1.028748  0.0  0.130038  -4.3e-05  1.025795  0.0  0.110097  0.124569  -7e-06  1.031023  0.0
H  H7  1  0.31214780  0.58990245  0.31069425  1  0.115202  -0.000203  0.972082  0.0  0.127032  2.2e-05  1.028671  0.0  0.130138  4.3e-05  1.025728  0.0  0.11016  0.124672  6e-06  1.030947  0.0
H  H8  1  0.83049061  0.50983651  0.50323449  1  0.097262  0.00043  0.948402  0.0  0.110623  0.000457  1.002724  0.0  0.112994  0.00033  1.003369  0.0  0.105837  0.108949  0.000565  1.00233  0.001
H  H9  1  0.16953636  0.49018734  0.49670075  1  0.097538  -0.000432  0.948008  0.0  0.110695  -0.000458  1.00254  0.0  0.113098  -0.00033  1.003145  0.0  0.105942  0.109016  -0.000566  1.002153  -0.001
H  H10  1  0.70986497  0.72532721  0.38103075  1  0.090037  0.000605  0.954554  0.001  0.099447  0.000573  1.013296  0.001  0.10175  0.000417  1.011876  0.001  0.11926  0.097802  0.000711  1.014114  0.001
H  H11  1  0.29005288  0.27473539  0.61895506  1  0.090054  -0.000607  0.954539  -0.001  0.099395  -0.000573  1.013307  -0.001  0.10172  -0.000417  1.011863  -0.001  0.119243  0.097752  -0.000711  1.014123  -0.001
H  H12  1  0.20288315  0.97991842  0.74770289  1  0.108337  -0.00029  0.955308  -0.001  0.121072  -5.9e-05  1.012896  0.0  0.124774  -4.7e-05  1.011167  0.0  0.100982  0.118447  -9.4e-05  1.014245  0.0
H  H13  1  0.79710923  0.02006149  0.25230688  1  0.10836  0.000293  0.955439  0.001  0.121093  5.9e-05  1.013017  0.0  0.124796  4.7e-05  1.011286  0.0  0.101072  0.118473  9.4e-05  1.014359  0.0
H  H14  1  0.94606476  0.11418592  0.77734827  1  0.09312  0.000623  0.943754  0.001  0.106682  0.000308  0.998329  0.0  0.109482  0.000187  0.996041  0.0  0.101816  0.104677  0.00044  0.999946  0.001
H  H15  1  0.05385935  0.88583694  0.22272565  1  0.093231  -0.000621  0.944049  -0.001  0.106752  -0.000309  0.998583  0.0  0.109594  -0.000187  0.99624  0.0  0.101844  0.104743  -0.00044  1.000209  -0.001
H  H16  1  0.80520249  0.25404905  0.60575557  1  0.091719  0.000232  0.99889  0.0  0.09267  0.000271  1.081234  0.0  0.096112  0.000258  1.079227  0.0  0.093489  0.08994  0.000261  1.083333  0.0
H  H17  1  0.19476471  0.74595638  0.39425009  1  0.091753  -0.000234  0.999131  0.0  0.092761  -0.000271  1.081349  0.0  0.096225  -0.000258  1.079312  0.0  0.09355  0.090041  -0.000261  1.083437  0.0
H  H18  1  0.92202357  0.26753632  0.39957336  1  0.076406  0.000392  0.953637  0.0  0.089493  0.000321  1.012716  0.0  0.092434  0.000197  1.010104  0.0  0.095517  0.087431  0.000448  1.014549  0.0
H  H19  1  0.07806763  0.73241775  0.60044658  1  0.076358  -0.000393  0.953409  0.0  0.08945  -0.000321  1.012499  0.0  0.092388  -0.000197  1.009901  0.0  0.095492  0.087398  -0.000448  1.014319  0.0
H  H20  1  0.11853723  0.22422177  0.27205519  1  0.063639  0.007426  0.913994  0.008  0.076498  0.005174  0.974437  0.005  0.077923  0.003765  0.970301  0.004  0.11616  0.075214  0.006265  0.977526  0.006
H  H21  1  0.88148661  0.77578118  0.72788625  1  0.063289  -0.007436  0.913578  -0.008  0.07625  -0.00518  0.973972  -0.005  0.077676  -0.00377  0.969839  -0.004  0.116071  0.074967  -0.006273  0.977061  -0.006
H  H22  1  0.57514231  0.17447452  0.22285758  1  0.100262  -0.000516  0.966349  -0.001  0.108289  -0.000182  1.033331  0.0  0.111188  -0.000109  1.031768  0.0  0.1011  0.105979  -0.00018  1.035007  0.0
H  H23  1  0.42485786  0.82551602  0.77717653  1  0.100205  0.000518  0.966744  0.001  0.108307  0.000181  1.033546  0.0  0.111205  0.000109  1.03198  0.0  0.10117  0.105998  0.000179  1.035226  0.0
H  H24  1  0.66471979  0.22310888  0.00760969  1  0.097211  0.000124  0.941918  0.0  0.107606  -2e-05  0.99868  0.0  0.111317  -1.3e-05  0.995908  0.0  0.101756  0.104846  -0.0  1.000736  0.0
H  H25  1  0.33527014  0.77690042  0.99241997  1  0.09738  -0.000125  0.942092  0.0  0.107723  2e-05  0.998875  0.0  0.111439  1.3e-05  0.9961  0.0  0.101778  0.104954  1e-06  1.000929  0.0
H  H26  1  0.24191764  0.12013250  0.89521011  1  0.096398  -4.4e-05  0.954392  0.0  0.108075  -0.000177  1.014036  0.0  0.110811  -0.000126  1.012424  0.0  0.101612  0.106353  -0.000234  1.014682  0.0
H  H27  1  0.75802910  0.87985884  0.10479776  1  0.096749  4.3e-05  0.954299  0.0  0.108364  0.000177  1.013972  0.0  0.111123  0.000127  1.012332  0.0  0.101736  0.106644  0.000235  1.014615  0.0
H  H28  1  0.14857695  0.07935382  0.10791880  1  0.099277  -0.00033  0.949134  -0.001  0.112287  2e-05  1.005591  0.0  0.114791  3e-06  1.00523  0.0  0.102769  0.110316  5.2e-05  1.006195  0.0
H  H29  1  0.85145616  0.92063212  0.89211481  1  0.099348  0.000329  0.949049  0.001  0.112265  -2e-05  1.005607  0.0  0.114766  -3e-06  1.005241  0.0  0.102738  0.110282  -5.2e-05  1.006223  0.0
C  C30  1  0.44464240  0.69259992  0.59234769  1  0.116924  -0.005953  3.70817  -0.006  0.087757  -0.000401  3.962071  -0.001  0.096038  -0.001504  3.982174  -0.002  0.043345  0.082647  0.000453  3.949007  0.0
C  C31  1  0.55539212  0.30737547  0.40766298  1  0.11642  0.005941  3.708517  0.006  0.087382  0.000403  3.962291  0.001  0.095642  0.001503  3.982402  0.002  0.043129  0.082277  -0.000453  3.949221  0.0
C  C32  1  0.50174849  0.57277024  0.66422065  1  -0.120173  0.008847  3.746317  0.009  -0.129897  0.003688  3.991293  0.004  -0.138159  0.003446  4.013372  0.004  -0.082139  -0.1246  0.003871  3.976259  0.004
C  C33  1  0.49832466  0.42720324  0.33581261  1  -0.119997  -0.008841  3.746636  -0.009  -0.129961  -0.003685  3.991593  -0.004  -0.138215  -0.003444  4.013663  -0.004  -0.082367  -0.124654  -0.003869  3.976567  -0.004
C  C34  1  0.64288705  0.50475039  0.63384226  1  -0.003488  -0.008129  3.698162  -0.007  -0.021312  -0.002753  3.936802  -0.003  -0.016161  -0.002942  3.954393  -0.003  -0.064559  -0.024304  -0.00253  3.924739  -0.002
C  C35  1  0.35718163  0.49521346  0.36616901  1  -0.003515  0.008121  3.698526  0.007  -0.021285  0.002754  3.937165  0.003  -0.016134  0.002942  3.954756  0.003  -0.064445  -0.024273  0.002531  3.925098  0.002
C  C36  1  0.72024725  0.55931550  0.53111905  1  -0.127543  0.008329  3.751677  0.008  -0.13562  0.003338  3.995356  0.004  -0.144891  0.003209  4.018542  0.004  -0.085504  -0.129759  0.003403  3.979779  0.004
C  C37  1  0.27980995  0.44066716  0.46888340  1  -0.128005  -0.008319  3.751718  -0.008  -0.135956  -0.003338  3.995432  -0.004  -0.145256  -0.003209  4.018608  -0.004  -0.085656  -0.130086  -0.003403  3.979863  -0.004
C  C38  1  0.65523438  0.67917335  0.46271423  1  0.123403  -0.006589  3.692123  -0.007  0.095323  -0.000901  3.940473  -0.002  0.10445  -0.001874  3.9599  -0.003  0.045941  0.089695  -0.000146  3.927752  -0.001
C  C39  1  0.34478502  0.32080980  0.53729663  1  0.123639  0.006587  3.692051  0.007  0.095638  0.000904  3.940287  0.002  0.104755  0.001876  3.959698  0.003  0.04601  0.09  0.000148  3.927578  0.001
C  C40  1  0.20586015  0.04334319  0.55604833  1  0.351411  -0.00404  3.825097  -0.007  0.342468  0.000992  4.085133  -0.001  0.364256  5.4e-05  4.100821  -0.002  0.093199  0.327916  0.001973  4.073878  -0.001
C  C41  1  0.79413556  0.95667378  0.44393146  1  0.351474  0.004012  3.825995  0.007  0.342513  -0.000999  4.085993  0.001  0.364292  -6.7e-05  4.101691  0.002  0.093136  0.327961  -0.001984  4.074749  0.001
C  C42  1  0.13845838  0.04140741  0.67201692  1  -0.206465  0.01269  3.717732  0.013  -0.224957  0.006007  3.972114  0.007  -0.234376  0.004372  3.990052  0.005  -0.111372  -0.218465  0.007226  3.959341  0.008
C  C43  1  0.86154224  0.95861115  0.32799497  1  -0.206425  -0.012659  3.719832  -0.013  -0.224914  -0.006006  3.974161  -0.007  -0.234329  -0.004367  3.99211  -0.005  -0.11141  -0.218424  -0.007223  3.961393  -0.008
C  C44  1  0.99804829  0.11703679  0.68828397  1  -0.017904  -0.004021  3.76646  -0.003  -0.034977  -0.000457  4.019632  0.0  -0.030249  -0.000847  4.038682  -0.001  -0.085448  -0.037851  -0.00011  4.006254  0.0
C  C45  1  0.00191150  0.88298282  0.31176449  1  -0.017987  0.003993  3.767981  0.003  -0.035041  0.000458  4.021109  0.0  -0.030349  0.000842  4.040138  0.001  -0.085456  -0.037913  0.000108  4.007752  0.0
C  C46  1  0.91732391  0.19892719  0.59023522  1  -0.129536  0.002232  3.816844  0.002  -0.152642  0.000387  4.090979  0.0  -0.161188  0.000496  4.114777  0.0  -0.119225  -0.147436  0.000258  4.075684  0.0
C  C47  1  0.08266621  0.80108023  0.40978682  1  -0.129545  -0.002191  3.81776  -0.002  -0.152648  -0.000383  4.091795  0.0  -0.161219  -0.000488  4.115614  0.0  -0.119278  -0.147452  -0.000253  4.076509  0.0
C  C48  1  0.98160150  0.20426696  0.47710284  1  -0.077895  -0.003366  3.800832  -0.003  -0.099989  -0.000744  4.053648  -0.001  -0.095854  -0.000952  4.076041  -0.001  -0.091479  -0.102385  -0.000512  4.038377  -0.001
C  C49  1  0.01841348  0.79570225  0.52291048  1  -0.077829  0.003346  3.801003  0.003  -0.099945  0.00074  4.05382  0.001  -0.095817  0.000942  4.076221  0.001  -0.091416  -0.102347  0.000509  4.038545  0.001
C  C50  1  0.12493430  0.12844856  0.45678381  1  -0.122506  0.005901  3.836597  0.007  -0.10215  0.002835  4.069758  0.004  -0.119394  0.001956  4.099659  0.003  -0.038537  -0.090907  0.003721  4.049537  0.005
C  C51  1  0.87504463  0.87153178  0.54318507  1  -0.122974  -0.005888  3.836446  -0.007  -0.102524  -0.002832  4.069478  -0.004  -0.119752  -0.001948  4.099342  -0.003  -0.038629  -0.091277  -0.003719  4.049254  -0.005
C  C52  1  0.18603824  0.14732585  0.33761826  1  0.178578  -0.011928  3.701536  -0.012  0.136195  -0.00311  3.963013  -0.004  0.158334  -0.00431  3.972699  -0.005  0.078366  0.121718  -0.001949  3.956681  -0.003
C  C53  1  0.81389995  0.85270271  0.66233983  1  0.179351  0.011922  3.700711  0.012  0.13687  0.00311  3.96215  0.004  0.158999  0.004305  3.971844  0.005  0.078619  0.122394  0.001944  3.955823  0.003
C  C54  1  0.35698882  0.12512819  0.17749307  1  0.216933  -0.002252  3.812947  -0.004  0.218202  0.000336  4.059511  -0.001  0.225708  -0.000815  4.084378  -0.002  0.084804  0.213741  0.0015  4.0425  0.001
C  C55  1  0.64300056  0.87486594  0.82248809  1  0.21679  0.00226  3.812746  0.004  0.218006  -0.000347  4.059304  0.001  0.225499  0.000812  4.084168  0.002  0.084613  0.213552  -0.001506  4.042293  -0.001
C  C56  1  0.50180931  0.16714029  0.14964705  1  -0.140232  0.011034  3.73373  0.01  -0.164051  0.003274  3.989988  0.003  -0.169132  0.002778  4.010897  0.003  -0.094076  -0.161054  0.003477  3.976215  0.003
C  C57  1  0.49819122  0.83285766  0.85035241  1  -0.140244  -0.011052  3.733969  -0.01  -0.164052  -0.003267  3.99018  -0.003  -0.16913  -0.002776  4.01109  -0.003  -0.094149  -0.161056  -0.003475  3.976408  -0.003
C  C58  1  0.55117429  0.19309542  0.03124340  1  -0.060891  -0.006904  3.760259  -0.007  -0.080981  -0.001572  4.003902  -0.002  -0.080357  -0.001557  4.024969  -0.002  -0.086255  -0.081045  -0.001615  3.989603  -0.002
C  C59  1  0.44879611  0.80690507  0.96876471  1  -0.060867  0.006924  3.760172  0.007  -0.080946  0.001573  4.003757  0.002  -0.080328  0.00155  4.024822  0.002  -0.086138  -0.080997  0.001613  3.989449  0.002
C  C60  1  0.45944192  0.17349612  0.93905656  1  -0.070159  0.002987  3.760835  0.001  -0.048368  -0.002075  3.990974  -0.003  -0.058087  -0.001235  4.015502  -0.002  -0.023671  -0.042149  -0.002495  3.974541  -0.003
C  C61  1  0.54055302  0.82651195  0.06092209  1  -0.07021  -0.002996  3.761037  -0.002  -0.048406  0.00207  3.991074  0.003  -0.058128  0.001247  4.015621  0.002  -0.02394  -0.042185  0.002503  3.974633  0.003
C  C62  1  0.31240118  0.13628491  0.96685909  1  -0.054479  -0.004263  3.749634  -0.004  -0.076972  -0.000794  3.995087  -0.001  -0.074796  -0.001094  4.015603  -0.001  -0.086368  -0.078212  -0.000487  3.980892  0.0
C  C63  1  0.68758124  0.86372900  0.03311820  1  -0.055185  0.004287  3.749325  0.004  -0.07763  0.000802  3.994757  0.001  -0.075477  0.00109  4.01527  0.001  -0.086568  -0.078868  0.000486  3.980562  0.0
C  C64  1  0.26020744  0.11374016  0.08529179  1  -0.161718  0.010843  3.744664  0.01  -0.180742  0.0045  3.993364  0.004  -0.187809  0.003771  4.016477  0.004  -0.096314  -0.175973  0.005014  3.97772  0.005
C  C65  1  0.73980121  0.88627923  0.91466600  1  -0.161282  -0.010853  3.743469  -0.01  -0.180209  -0.004499  3.992075  -0.004  -0.187265  -0.003771  4.015187  -0.004  -0.095982  -0.175434  -0.005012  3.976439  -0.005
C  C66  1  0.53037887  0.17661262  0.81640236  1  0.621576  0.003319  3.929039  0.007  0.578101  -0.000103  4.233027  0.003  0.615623  0.000349  4.226613  0.002  0.196037  0.552797  -0.000561  4.23665  0.003
C  C67  1  0.46961773  0.82338912  0.18360630  1  0.621243  -0.003317  3.928452  -0.007  0.577837  0.0001  4.23233  -0.003  0.61536  -0.000354  4.225921  -0.002  0.196029  0.552528  0.000557  4.235954  -0.003
N  N68  1  0.52006781  0.74528414  0.49346240  1  -0.294371  0.069479  3.307296  0.083  -0.241834  0.052288  3.598071  0.067  -0.271004  0.044596  3.619083  0.061  -0.343711  -0.225075  0.055871  3.586194  0.069
N  N69  1  0.47992917  0.25468117  0.50653378  1  -0.294079  -0.069451  3.307176  -0.083  -0.24149  -0.052275  3.597697  -0.067  -0.270668  -0.044585  3.618727  -0.061  -0.343491  -0.224731  -0.055853  3.585818  -0.069
N  N70  1  0.31493665  0.08759145  0.29981110  1  -0.35759  0.086567  3.267433  0.103  -0.312971  0.056006  3.57282  0.072  -0.346166  0.047349  3.589003  0.064  -0.353553  -0.29372  0.060328  3.564179  0.074
N  N71  1  0.68498019  0.91240819  0.70014729  1  -0.357985  -0.08654  3.267526  -0.103  -0.313308  -0.05599  3.572935  -0.072  -0.346482  -0.047333  3.589069  -0.064  -0.353759  -0.294074  -0.060309  3.564322  -0.074
O  O72  1  0.34020851  0.97088766  0.54534464  1  -0.594544  0.099837  2.164114  0.124  -0.578023  0.064267  2.4854  0.089  -0.623992  0.049697  2.480798  0.072  -0.336708  -0.546906  0.074303  2.488375  0.099
O  O73  1  0.65981779  0.02912998  0.45468138  1  -0.594531  -0.099801  2.16436  -0.124  -0.578058  -0.064262  2.485737  -0.088  -0.624022  -0.049694  2.48113  -0.072  -0.336758  -0.546946  -0.074301  2.488703  -0.099
O  O74  1  0.65656665  0.21993184  0.79183076  1  -0.614568  -0.000429  1.937233  -0.002  -0.581367  -0.000486  2.172481  -0.002  -0.606183  0.000403  2.162739  0.0  -0.324475  -0.563938  -0.001077  2.178741  -0.002
O  O75  1  0.34342776  0.78006117  0.20816359  1  -0.614433  0.000423  1.937167  0.002  -0.581247  0.000485  2.172356  0.002  -0.606058  -0.000402  2.162623  0.0  -0.324434  -0.563825  0.001076  2.178618  0.002
O  O76  1  0.45488576  0.12465262  0.74487618  1  -0.608841  -0.102882  2.113935  -0.13  -0.578552  -0.067674  2.403885  -0.094  -0.624018  -0.052561  2.399646  -0.078  -0.329126  -0.548535  -0.077009  2.406701  -0.103
O  O77  1  0.54511293  0.87537594  0.25512622  1  -0.608563  0.102887  2.113633  0.13  -0.57834  0.067686  2.403624  0.094  -0.623792  0.052577  2.399375  0.078  -0.329054  -0.548332  0.077016  2.406454  0.103
