# generated using pymatgen
data_Zn2H20C17N12O
_symmetry_space_group_name_H-M   'P 1'
_cell_length_a   10.50531554
_cell_length_b   12.20638322
_cell_length_c   17.45367258
_cell_angle_alpha   89.99948038
_cell_angle_beta   96.68241717
_cell_angle_gamma   89.99960726
_symmetry_Int_Tables_number   1
_chemical_formula_structural   Zn2H20C17N12O
_chemical_formula_sum   'Zn8 H80 C68 N48 O4'
_cell_volume   2222.91286162
_cell_formula_units_Z   4
loop_
 _symmetry_equiv_pos_site_id
 _symmetry_equiv_pos_as_xyz
  1  'x, y, z'
loop_
 _atom_site_type_symbol
 _atom_site_label
 _atom_site_symmetry_multiplicity
 _atom_site_fract_x
 _atom_site_fract_y
 _atom_site_fract_z
 _atom_site_occupancy
 _atom_site_pbe_bader_charge
 _atom_site_pbe_bader_spin_density
 _atom_site_pbe_cm5_charge
 _atom_site_pbe_ddec_charge
 _atom_site_pbe_ddec_spin_density
 _atom_site_pbe_ddec_sum_bond_order
 _atom_site_pbe_magmom
Zn  Zn0  1  0.73750297  0.73673467  0.60662947  1  1.193001  0  0.744684  0.662212  0  2.541546  0
Zn  Zn1  1  0.76249964  0.23673616  0.89336491  1  1.192966  0  0.744688  0.662243  0  2.541565  0
Zn  Zn2  1  0.26250067  0.26326387  0.39336692  1  1.192999  0  0.744681  0.66214  0  2.541701  0
Zn  Zn3  1  0.23750117  0.76326729  0.10663359  1  1.192952  0  0.744644  0.662166  0  2.541522  0
Zn  Zn4  1  0.20986011  0.74933555  0.45340690  1  1.206132  0  0.746968  0.675059  0  2.480774  0
Zn  Zn5  1  0.29013703  0.24933478  0.04659110  1  1.206139  0  0.746959  0.675137  0  2.480675  0
Zn  Zn6  1  0.79013973  0.25065971  0.54659097  1  1.206147  0  0.746967  0.675065  0  2.480748  0
Zn  Zn7  1  0.70985805  0.75066048  0.95340875  1  1.206163  0  0.746972  0.674992  0  2.480775  0
H  H8  1  0.12572584  0.57627981  0.29570798  1  0.085921  0  0.100942  0.156597  0  1.009142  0
H  H9  1  0.37428151  0.07628553  0.20429065  1  0.086107  0  0.100908  0.156516  0  1.009106  0
H  H10  1  0.87426923  0.42371954  0.70429129  1  0.085925  0  0.100925  0.156605  0  1.009114  0
H  H11  1  0.62573263  0.92371874  0.79570356  1  0.085979  0  0.100932  0.156592  0  1.009097  0
H  H12  1  0.08112237  0.62936835  0.20189633  1  0.02868  0  0.09614  0.135052  0  1.041932  0
H  H13  1  0.41888549  0.12937423  0.29810486  1  0.028802  0  0.096138  0.135036  0  1.041983  0
H  H14  1  0.91887655  0.37063592  0.79810434  1  0.028804  0  0.096158  0.135093  0  1.041937  0
H  H15  1  0.58112101  0.87063659  0.70189057  1  0.028575  0  0.096116  0.135028  0  1.041983  0
H  H16  1  0.00504678  0.67604691  0.28227966  1  0.119079  0  0.104763  0.165646  0  1.002854  0
H  H17  1  0.49496543  0.17605993  0.21772094  1  0.118588  0  0.104733  0.165615  0  1.002834  0
H  H18  1  0.99495501  0.32395244  0.71772063  1  0.119107  0  0.104751  0.165613  0  1.002807  0
H  H19  1  0.50504586  0.82395253  0.78227480  1  0.118834  0  0.10472  0.165495  0  1.002923  0
H  H20  1  0.49966437  0.95132961  0.35796179  1  0.120881  0  0.117638  0.149699  0  0.972658  0
H  H21  1  0.00033190  0.45133098  0.14203772  1  0.120785  0  0.117684  0.149773  0  0.972561  0
H  H22  1  0.50033937  0.04866483  0.64204091  1  0.1208  0  0.117654  0.149725  0  0.972562  0
H  H23  1  0.99966222  0.54866920  0.85796150  1  0.120876  0  0.117654  0.149685  0  0.972547  0
H  H24  1  0.36276485  0.99659869  0.39965021  1  0.088193  0  0.106884  0.125834  0  1.001683  0
H  H25  1  0.13722908  0.49659896  0.10034828  1  0.088231  0  0.106904  0.125872  0  1.001668  0
H  H26  1  0.63723503  0.00339247  0.60035052  1  0.088092  0  0.106897  0.125806  0  1.00167  0
H  H27  1  0.86276218  0.50340204  0.89965190  1  0.08817  0  0.106863  0.125782  0  1.001753  0
H  H28  1  0.48403583  0.68147460  0.66814583  1  0.031629  0  0.096776  0.137202  0  1.027381  0
H  H29  1  0.01596101  0.18147752  0.83185870  1  0.031689  0  0.096787  0.137172  0  1.027479  0
H  H30  1  0.51595167  0.31853131  0.33185983  1  0.031507  0  0.096821  0.137218  0  1.027278  0
H  H31  1  0.98404080  0.81853084  0.16814273  1  0.031546  0  0.096816  0.137252  0  1.027319  0
H  H32  1  0.34640648  0.64101871  0.60511229  1  0.092251  0  0.09873  0.145046  0  1.030045  0
H  H33  1  0.15359358  0.14101673  0.89489042  1  0.092155  0  0.098762  0.145103  0  1.029986  0
H  H34  1  0.65358106  0.35898884  0.39489510  1  0.092322  0  0.098716  0.145025  0  1.030001  0
H  H35  1  0.84640722  0.85898836  0.10510750  1  0.092018  0  0.098731  0.145061  0  1.029989  0
H  H36  1  0.34320950  0.76363537  0.65815003  1  0.102566  0  0.106979  0.163066  0  0.974549  0
H  H37  1  0.15679043  0.26363487  0.84185532  1  0.102923  0  0.106978  0.163068  0  0.97455  0
H  H38  1  0.65678475  0.23637709  0.34185836  1  0.102875  0  0.106979  0.16306  0  0.974589  0
H  H39  1  0.84320943  0.73637267  0.15814369  1  0.102781  0  0.106993  0.163091  0  0.974449  0
H  H40  1  0.86812595  0.01429486  0.63810719  1  0.064582  0  0.096683  0.143435  0  1.017695  0
H  H41  1  0.63187507  0.51430054  0.86190056  1  0.064759  0  0.096684  0.143427  0  1.017724  0
H  H42  1  0.13187856  0.98570696  0.36188353  1  0.064559  0  0.096684  0.143439  0  1.01774  0
H  H43  1  0.36812008  0.48569881  0.13810388  1  0.064781  0  0.096688  0.143463  0  1.017702  0
H  H44  1  0.03379558  0.01137322  0.67414756  1  0.084355  0  0.104943  0.155024  0  1.002789  0
H  H45  1  0.46620291  0.51138394  0.82586276  1  0.084345  0  0.104916  0.155028  0  1.002957  0
H  H46  1  0.96620127  0.98862613  0.32584266  1  0.084255  0  0.104982  0.155115  0  1.002808  0
H  H47  1  0.53379514  0.48861705  0.17414359  1  0.084369  0  0.104932  0.15506  0  1.002891  0
H  H48  1  0.92535094  0.91536295  0.70841383  1  0.061065  0  0.097033  0.140667  0  1.008862  0
H  H49  1  0.57465784  0.41537669  0.79159011  1  0.06121  0  0.097042  0.140669  0  1.008846  0
H  H50  1  0.07465074  0.08463641  0.29157957  1  0.061003  0  0.096998  0.140631  0  1.008789  0
H  H51  1  0.42534113  0.58462266  0.20841342  1  0.060965  0  0.097021  0.140639  0  1.008833  0
H  H52  1  0.64356958  0.50714968  0.68046753  1  0.061942  0  0.102506  0.150026  0  1.010839  0
H  H53  1  0.85642179  0.00715238  0.81953047  1  0.061832  0  0.102519  0.149988  0  1.010899  0
H  H54  1  0.35641684  0.49284722  0.31952947  1  0.061805  0  0.102528  0.150022  0  1.010737  0
H  H55  1  0.14358765  0.99285353  0.18046916  1  0.061872  0  0.102509  0.149966  0  1.010826  0
H  H56  1  0.60713728  0.37865174  0.63391319  1  0.084641  0  0.102044  0.14914  0  1.01978  0
H  H57  1  0.89285348  0.87864600  0.86608009  1  0.084606  0  0.102022  0.14905  0  1.019743  0
H  H58  1  0.39283955  0.62135417  0.36608319  1  0.084655  0  0.102044  0.14917  0  1.019804  0
H  H59  1  0.10716736  0.12135746  0.13391340  1  0.084516  0  0.102028  0.149102  0  1.019839  0
H  H60  1  0.52174350  0.49840840  0.60116052  1  0.080843  0  0.104121  0.158417  0  0.976812  0
H  H61  1  0.97825090  0.99841565  0.89882935  1  0.080359  0  0.104135  0.158414  0  0.976815  0
H  H62  1  0.47824380  0.50158030  0.39883138  1  0.080588  0  0.104146  0.158491  0  0.976579  0
H  H63  1  0.02175850  0.00158452  0.10116741  1  0.080631  0  0.104149  0.158519  0  0.976579  0
H  H64  1  0.61007003  0.74294806  0.24480899  1  0.020146  0  0.085641  0.121366  0  1.01068  0
H  H65  1  0.88993466  0.24295303  0.25519543  1  0.020005  0  0.085643  0.121408  0  1.01064  0
H  H66  1  0.38993860  0.25704065  0.75520033  1  0.020237  0  0.085621  0.121341  0  1.010636  0
H  H67  1  0.11006425  0.75705534  0.74480467  1  0.020063  0  0.085644  0.121398  0  1.010603  0
H  H68  1  0.62121127  0.73984325  0.34780361  1  0.022743  0  0.08358  0.117345  0  1.013743  0
H  H69  1  0.87878675  0.23985125  0.15220153  1  0.022922  0  0.083575  0.11732  0  1.013835  0
H  H70  1  0.37878582  0.26015693  0.65220324  1  0.022921  0  0.083549  0.117337  0  1.0137  0
H  H71  1  0.12120930  0.76015958  0.84779895  1  0.022829  0  0.083565  0.117347  0  1.0138  0
H  H72  1  0.75532041  0.70250940  0.30202253  1  0.053249  0  0.085984  0.118429  0  1.027887  0
H  H73  1  0.74468082  0.20251433  0.19798249  1  0.053268  0  0.08602  0.118514  0  1.02791  0
H  H74  1  0.24469493  0.29748668  0.69798779  1  0.053468  0  0.086016  0.118465  0  1.027869  0
H  H75  1  0.25531138  0.79750223  0.80201717  1  0.053191  0  0.08598  0.118434  0  1.027875  0
H  H76  1  0.63166095  0.93095160  0.19228791  1  0.073452  0  0.089356  0.135965  0  1.034051  0
H  H77  1  0.86833628  0.43095848  0.30771767  1  0.073019  0  0.089349  0.13591  0  1.034035  0
H  H78  1  0.36836079  0.06901908  0.80770220  1  0.073425  0  0.089339  0.13594  0  1.033788  0
H  H79  1  0.13167723  0.56903514  0.69229827  1  0.073697  0  0.089362  0.135922  0  1.033931  0
H  H80  1  0.72636162  0.03381541  0.25318968  1  0.073813  0  0.084449  0.12051  0  1.054953  0
H  H81  1  0.77362303  0.53381927  0.24681937  1  0.074003  0  0.084451  0.120421  0  1.054771  0
H  H82  1  0.27364190  0.96616183  0.74679869  1  0.073588  0  0.084405  0.120345  0  1.054751  0
H  H83  1  0.22639243  0.46618090  0.75319841  1  0.073781  0  0.084454  0.120427  0  1.054701  0
H  H84  1  0.77501123  0.90038907  0.35592553  1  0.060002  0  0.091027  0.073908  0  1.016579  0
H  H85  1  0.72496328  0.40039972  0.14407821  1  0.060411  0  0.091049  0.073901  0  1.016461  0
H  H86  1  0.22496279  0.09960865  0.64407468  1  0.060369  0  0.091008  0.073864  0  1.016475  0
H  H87  1  0.27504152  0.59961684  0.85593144  1  0.060197  0  0.091003  0.073845  0  1.016433  0
C  C88  1  0.09624385  0.65077638  0.26315189  1  -0.05018  0  -0.23848  -0.47966  0  3.929779  0
C  C89  1  0.40376386  0.15078724  0.23685201  1  -0.049915  0  -0.238421  -0.479519  0  3.929905  0
C  C90  1  0.90375319  0.34922298  0.73685095  1  -0.05024  0  -0.238468  -0.479723  0  3.929927  0
C  C91  1  0.59624458  0.84922605  0.76314469  1  -0.050126  0  -0.238452  -0.479579  0  3.929813  0
C  C92  1  0.19403408  0.73857843  0.27572666  1  0.984977  0  0.214284  0.383892  0  4.016183  0
C  C93  1  0.30597456  0.23857610  0.22426586  1  0.984715  0  0.214236  0.38378  0  4.01608  0
C  C94  1  0.80596954  0.26142584  0.72426859  1  0.984827  0  0.214287  0.383939  0  4.015971  0
C  C95  1  0.69403475  0.76142243  0.77572575  1  0.98517  0  0.214255  0.383946  0  4.016135  0
C  C96  1  0.33377932  0.85539280  0.32670398  1  0.960521  0  0.208137  0.324569  0  4.018948  0
C  C97  1  0.16622355  0.35539032  0.17329428  1  0.960529  0  0.208103  0.32448  0  4.019084  0
C  C98  1  0.66622817  0.14460410  0.67329381  1  0.960349  0  0.208122  0.324449  0  4.01908  0
C  C99  1  0.83377155  0.64460658  0.82670729  1  0.960342  0  0.208036  0.324379  0  4.01892  0
C  C100  1  0.41589408  0.92320015  0.38456869  1  -0.016037  0  -0.139864  -0.327399  0  3.936759  0
C  C101  1  0.08409860  0.42320135  0.11543020  1  -0.016408  0  -0.139912  -0.327511  0  3.936617  0
C  C102  1  0.58410580  0.07679347  0.61543262  1  -0.015825  0  -0.139883  -0.327326  0  3.936643  0
C  C103  1  0.91589554  0.57679882  0.88457073  1  -0.015875  0  -0.139822  -0.327217  0  3.936509  0
C  C104  1  0.46002373  0.86444995  0.45798413  1  0.990341  0  0.209072  0.338782  0  4.013511  0
C  C105  1  0.03996472  0.36444909  0.04201543  1  0.990763  0  0.208947  0.338709  0  4.013666  0
C  C106  1  0.53996470  0.13554940  0.54201930  1  0.990162  0  0.209022  0.338718  0  4.013781  0
C  C107  1  0.96002748  0.63555108  0.95798423  1  0.990344  0  0.209049  0.338704  0  4.013449  0
C  C108  1  0.45309420  0.77314625  0.56291567  1  0.997457  0  0.213195  0.384784  0  4.00392  0
C  C109  1  0.04689692  0.27314765  0.93708275  1  0.997503  0  0.213191  0.38486  0  4.003836  0
C  C110  1  0.54689132  0.22685474  0.43708529  1  0.997547  0  0.213186  0.384863  0  4.003772  0
C  C111  1  0.95310288  0.72685826  0.06291282  1  0.997524  0  0.213259  0.384888  0  4.003951  0
C  C112  1  0.40500379  0.71122674  0.62701083  1  -0.078351  0  -0.233811  -0.475477  0  3.946442  0
C  C113  1  0.09499658  0.21122785  0.87299202  1  -0.078614  0  -0.233847  -0.475503  0  3.946588  0
C  C114  1  0.59499043  0.28877917  0.37299527  1  -0.07849  0  -0.233813  -0.47544  0  3.946291  0
C  C115  1  0.90500805  0.78877888  0.12700616  1  -0.078192  0  -0.233894  -0.475602  0  3.946301  0
C  C116  1  0.94928852  0.96039538  0.65749970  1  -0.069197  0  -0.230511  -0.45873  0  3.918606  0
C  C117  1  0.55070930  0.46040861  0.84250325  1  -0.069469  0  -0.2305  -0.45869  0  3.918793  0
C  C118  1  0.05070741  0.03959906  0.34249276  1  -0.069337  0  -0.230483  -0.458787  0  3.918764  0
C  C119  1  0.44928775  0.53958910  0.15750017  1  -0.069396  0  -0.230438  -0.458704  0  3.918832  0
C  C120  1  0.97512908  0.88318364  0.59546276  1  0.967239  0  0.219584  0.386619  0  3.9848  0
C  C121  1  0.52487423  0.38318804  0.90453989  1  0.96723  0  0.219525  0.386422  0  3.985102  0
C  C122  1  0.02486873  0.11681326  0.40452753  1  0.966749  0  0.219616  0.386792  0  3.984995  0
C  C123  1  0.47512284  0.61681050  0.09546524  1  0.967045  0  0.219569  0.386651  0  3.985373  0
C  C124  1  0.95472017  0.75205939  0.51323254  1  0.974569  0  0.206325  0.197117  0  4.025948  0
C  C125  1  0.54529487  0.25206098  0.98676943  1  0.974815  0  0.206284  0.197118  0  4.02601  0
C  C126  1  0.04527961  0.24793587  0.48676132  1  0.97504  0  0.206361  0.197254  0  4.025889  0
C  C127  1  0.45471470  0.74794248  0.01323881  1  0.974552  0  0.206289  0.197133  0  4.025923  0
C  C128  1  0.83516395  0.57127574  0.49906810  1  0.970438  0  0.201544  0.19586  0  4.031275  0
C  C129  1  0.66483742  0.07127712  0.00092976  1  0.970495  0  0.201569  0.195801  0  4.03123  0
C  C130  1  0.16483585  0.42871706  0.50092747  1  0.970873  0  0.201606  0.195849  0  4.03129  0
C  C131  1  0.33516344  0.92872469  0.99907218  1  0.970595  0  0.201567  0.195876  0  4.031165  0
C  C132  1  0.71273260  0.48967489  0.57092918  1  0.975892  0  0.220731  0.388178  0  3.97577  0
C  C133  1  0.78726771  0.98967552  0.92906629  1  0.976097  0  0.220605  0.388073  0  3.976054  0
C  C134  1  0.28726140  0.51031709  0.42906258  1  0.975152  0  0.220698  0.388206  0  3.975789  0
C  C135  1  0.21273794  0.01032138  0.07093597  1  0.975674  0  0.220582  0.388097  0  3.975937  0
C  C136  1  0.61626844  0.46688102  0.62472897  1  -0.062995  0  -0.230639  -0.469363  0  3.923143  0
C  C137  1  0.88372634  0.96688258  0.87526686  1  -0.062368  0  -0.230591  -0.469166  0  3.923235  0
C  C138  1  0.38371797  0.53312079  0.37526746  1  -0.062434  0  -0.230672  -0.469453  0  3.92302  0
C  C139  1  0.11628213  0.03312333  0.12473213  1  -0.062366  0  -0.230592  -0.469301  0  3.92314  0
C  C140  1  0.91592433  0.65410368  0.46671265  1  0.975318  0  0.171847  0.271058  0  4.057727  0
C  C141  1  0.58407443  0.15410431  0.03328966  1  0.975062  0  0.171882  0.271147  0  4.057864  0
C  C142  1  0.08407074  0.34588830  0.53328663  1  0.974667  0  0.171806  0.270864  0  4.057784  0
C  C143  1  0.41593314  0.84589341  0.96671329  1  0.97529  0  0.1718  0.270922  0  4.058081  0
C  C144  1  0.67328045  0.75925948  0.29822701  1  -0.078874  0  -0.246603  -0.371486  0  4.000513  0
C  C145  1  0.82671546  0.25926633  0.20177673  1  -0.078963  0  -0.246667  -0.371675  0  4.000576  0
C  C146  1  0.32672336  0.24072676  0.70178028  1  -0.079119  0  -0.246616  -0.371529  0  4.000412  0
C  C147  1  0.17328346  0.74073876  0.79822394  1  -0.078762  0  -0.246594  -0.371615  0  4.000403  0
C  C148  1  0.69070450  0.95005092  0.24633552  1  -0.09114  0  -0.196009  -0.345415  0  3.882384  0
C  C149  1  0.80928671  0.45004410  0.25366382  1  -0.091041  0  -0.195953  -0.345241  0  3.882681  0
C  C150  1  0.30930084  0.04993614  0.75364666  1  -0.090816  0  -0.195816  -0.345077  0  3.882498  0
C  C151  1  0.19072197  0.54995935  0.74634951  1  -0.091415  0  -0.196005  -0.345332  0  3.882606  0
C  C152  1  0.71775716  0.87572790  0.30219589  1  -0.122134  0  -0.099861  0.036031  0  4.044453  0
C  C153  1  0.78223100  0.37573916  0.19780946  1  -0.122365  0  -0.099908  0.036106  0  4.044673  0
C  C154  1  0.28224272  0.12425753  0.69780484  1  -0.122807  0  -0.099939  0.035981  0  4.044893  0
C  C155  1  0.21777574  0.62426675  0.80220203  1  -0.122325  0  -0.09984  0.036251  0  4.04458  0
N  N156  1  0.89572822  0.79922797  0.56985121  1  -1.264902  0  -0.353182  -0.379793  0  3.469175  0
N  N157  1  0.60427200  0.29922993  0.93014949  1  -1.265194  0  -0.353189  -0.379772  0  3.469313  0
N  N158  1  0.10426385  0.20077385  0.43013928  1  -1.264316  0  -0.35318  -0.379904  0  3.469157  0
N  N159  1  0.39572988  0.70077189  0.06985710  1  -1.264512  0  -0.353157  -0.379825  0  3.469359  0
N  N160  1  0.07965859  0.88708368  0.55822056  1  -0.637132  0  -0.229167  -0.262411  0  3.090086  0
N  N161  1  0.42034785  0.38709181  0.94178384  1  -0.636703  0  -0.229021  -0.262157  0  3.090212  0
N  N162  1  0.92033538  0.11291240  0.44176948  1  -0.637  0  -0.229257  -0.262577  0  3.090298  0
N  N163  1  0.57965983  0.61290837  0.05822600  1  -0.636869  0  -0.229211  -0.262569  0  3.090357  0
N  N164  1  0.06527996  0.80444861  0.50570859  1  -0.748615  0  -0.246001  -0.191727  0  3.576666  0
N  N165  1  0.43472148  0.30445270  0.99429487  1  -0.748712  0  -0.246076  -0.191998  0  3.576694  0
N  N166  1  0.93471021  0.19554583  0.49428349  1  -0.748481  0  -0.246062  -0.191795  0  3.576472  0
N  N167  1  0.56528525  0.69554912  0.00571547  1  -0.74848  0  -0.246046  -0.191683  0  3.576483  0
N  N168  1  0.75667759  0.58983721  0.55523155  1  -1.248398  0  -0.355593  -0.39211  0  3.462213  0
N  N169  1  0.74331487  0.08983734  0.94476255  1  -1.248479  0  -0.355554  -0.392072  0  3.462381  0
N  N170  1  0.24330684  0.41016296  0.44476073  1  -1.248173  0  -0.355589  -0.392067  0  3.462625  0
N  N171  1  0.25668975  0.91016693  0.05523505  1  -1.248482  0  -0.35556  -0.392066  0  3.462642  0
N  N172  1  0.84134957  0.46520183  0.48108694  1  -0.64492  0  -0.212961  -0.210956  0  3.187911  0
N  N173  1  0.65865394  0.96520029  0.01891138  1  -0.644732  0  -0.213016  -0.211009  0  3.188002  0
N  N174  1  0.15865413  0.53479343  0.51891346  1  -0.645046  0  -0.212971  -0.210895  0  3.187856  0
N  N175  1  0.34134588  0.03480070  0.98108534  1  -0.644504  0  -0.213001  -0.210992  0  3.187864  0
N  N176  1  0.76543140  0.41374507  0.52778162  1  -0.777911  0  -0.251159  -0.252535  0  3.506524  0
N  N177  1  0.73457442  0.91374545  0.97221584  1  -0.778264  0  -0.251109  -0.252479  0  3.506659  0
N  N178  1  0.23456942  0.58625347  0.47221803  1  -0.777788  0  -0.251175  -0.252658  0  3.506341  0
N  N179  1  0.26542633  0.08625636  0.02777922  1  -0.778311  0  -0.25111  -0.252569  0  3.506438  0
N  N180  1  0.57560510  0.80044066  0.55733346  1  -0.840977  0  -0.281745  -0.284644  0  3.590268  0
N  N181  1  0.92439031  0.30044384  0.94266692  1  -0.841169  0  -0.281762  -0.284756  0  3.590495  0
N  N182  1  0.42439102  0.19955951  0.44267219  1  -0.841115  0  -0.281765  -0.284655  0  3.590558  0
N  N183  1  0.07560949  0.69956453  0.05732865  1  -0.841064  0  -0.281803  -0.284781  0  3.59055  0
N  N184  1  0.58082147  0.85877203  0.48986999  1  -0.71027  0  -0.253301  -0.291671  0  3.150296  0
N  N185  1  0.91917635  0.35877015  0.01013036  1  -0.710518  0  -0.253209  -0.291453  0  3.150467  0
N  N186  1  0.41917559  0.14122814  0.51013399  1  -0.710454  0  -0.253332  -0.291649  0  3.150688  0
N  N187  1  0.08082827  0.64123249  0.98986724  1  -0.710458  0  -0.253319  -0.291619  0  3.15013  0
N  N188  1  0.37750335  0.81242550  0.50107486  1  -1.267312  0  -0.37252  -0.428831  0  3.451764  0
N  N189  1  0.12249126  0.31243139  0.99892467  1  -1.267048  0  -0.372502  -0.428981  0  3.451569  0
N  N190  1  0.62249177  0.18757385  0.49892786  1  -1.266984  0  -0.372494  -0.428937  0  3.451446  0
N  N191  1  0.87750859  0.68757370  0.00107377  1  -1.267197  0  -0.372478  -0.428774  0  3.451786  0
N  N192  1  0.24095670  0.78310947  0.34454206  1  -1.287304  0  -0.370701  -0.442962  0  3.473172  0
N  N193  1  0.25904113  0.28311567  0.15545863  1  -1.287464  0  -0.370691  -0.442913  0  3.473615  0
N  N194  1  0.75904604  0.21688579  0.65545771  1  -1.287409  0  -0.370732  -0.442996  0  3.473388  0
N  N195  1  0.74094912  0.71689105  0.84453861  1  -1.287305  0  -0.370639  -0.442916  0  3.473381  0
N  N196  1  0.34318423  0.85831222  0.25164406  1  -0.703009  0  -0.247349  -0.27995  0  3.165633  0
N  N197  1  0.15681767  0.35830473  0.24835527  1  -0.702807  0  -0.247331  -0.279852  0  3.165572  0
N  N198  1  0.65682135  0.14168714  0.74835361  1  -0.70281  0  -0.247286  -0.279781  0  3.165568  0
N  N199  1  0.84318219  0.64169135  0.75164431  1  -0.702757  0  -0.247303  -0.279826  0  3.165405  0
N  N200  1  0.25384109  0.78364602  0.21959985  1  -0.82936  0  -0.279912  -0.281372  0  3.595965  0
N  N201  1  0.24616162  0.28364578  0.28040803  1  -0.829126  0  -0.279867  -0.281344  0  3.595522  0
N  N202  1  0.74615791  0.21635498  0.78040598  1  -0.829285  0  -0.279918  -0.281455  0  3.595645  0
N  N203  1  0.75384597  0.71636177  0.71959664  1  -0.82949  0  -0.279878  -0.281444  0  3.595829  0
O  O204  1  0.95958672  0.63942802  0.40470011  1  -1.07694  0  -0.243184  -0.379989  0  2.196425  0
O  O205  1  0.54041115  0.13942647  0.09529765  1  -1.076985  0  -0.243177  -0.379961  0  2.196543  0
O  O206  1  0.04041407  0.36055904  0.59529782  1  -1.076926  0  -0.243139  -0.379788  0  2.196526  0
O  O207  1  0.45958882  0.86055732  0.90470881  1  -1.077351  0  -0.243045  -0.379723  0  2.196808  0
