# generated using pymatgen
data_Zn2H22C40IN6ClO8
_symmetry_space_group_name_H-M   'P 1'
_cell_length_a   13.59414627
_cell_length_b   15.96891387
_cell_length_c   17.25554663
_cell_angle_alpha   85.53636504
_cell_angle_beta   90.05871268
_cell_angle_gamma   68.69873987
_symmetry_Int_Tables_number   1
_chemical_formula_structural   Zn2H22C40IN6ClO8
_chemical_formula_sum   'Zn2 H22 C40 I1 N6 Cl1 O8'
_cell_volume   3477.67460932
_cell_formula_units_Z   1
loop_
 _symmetry_equiv_pos_site_id
 _symmetry_equiv_pos_as_xyz
  1  'x, y, z'
loop_
 _atom_site_type_symbol
 _atom_site_label
 _atom_site_symmetry_multiplicity
 _atom_site_fract_x
 _atom_site_fract_y
 _atom_site_fract_z
 _atom_site_occupancy
 _atom_site_pbe_bader_charge
 _atom_site_pbe_bader_spin_density
 _atom_site_pbe_cm5_charge
 _atom_site_pbe_ddec_charge
 _atom_site_pbe_ddec_spin_density
 _atom_site_pbe_ddec_sum_bond_order
 _atom_site_pbe_magmom
Zn  Zn0  1  0.51147557  0.40811058  0.50446908  1  1.287384  0  0.669339  0.824792  0  2.426426  0
Zn  Zn1  1  0.48865335  0.59132376  0.49735433  1  1.289548  0  0.663069  0.835323  0  2.390816  0
H  H2  1  0.15493018  0.71039974  0.43151349  1  0.073028  0  0.092513  0.095296  0  1.035734  0
H  H3  1  0.61630114  0.06744851  0.58421665  1  0.143581  0  0.120094  0.128737  0  0.996434  0
H  H4  1  0.63823249  0.80788544  0.60366366  1  0.120431  0  0.125026  0.138021  0  0.971285  0
H  H5  1  0.81262347  0.69821125  0.38820039  1  0.033751  0  0.097278  0.098036  0  1.000444  0
H  H6  1  0.60636555  0.66388379  0.58588554  1  0.144514  0  0.133424  0.114126  0  0.977378  0
H  H7  1  0.38324588  0.33236673  0.41984524  1  0.134983  0  0.12848  0.107803  0  0.989925  0
H  H8  1  0.41416549  0.93512056  0.41365794  1  0.140262  0  0.113887  0.129176  0  1.017245  0
H  H9  1  0.36044363  0.18195480  0.41359946  1  0.114758  0  0.124784  0.136693  0  0.971462  0
H  H10  1  0.96480469  0.74532523  0.39599660  1  0.077954  0  0.098355  0.098203  0  1.00066  0
H  H11  1  0.18928361  0.44175028  0.51383556  1  0.121234  0  0.100515  0.104048  0  1.035062  0
H  H12  1  0.84639279  0.28344251  0.53612315  1  0.100434  0  0.102914  0.106309  0  0.999366  0
H  H13  1  0.40089444  0.45707749  0.09850509  1  0.111344  0  0.107819  0.122842  0  1.016409  0
H  H14  1  0.12730469  0.34757671  0.52359786  1  0.015329  0  0.099155  0.097147  0  1.01905  0
H  H15  1  0.04295975  0.23638025  0.55157421  1  0.070611  0  0.099305  0.095822  0  0.995883  0
H  H16  1  0.72873622  0.58772593  0.42135862  1  0.101037  0  0.101843  0.117115  0  1.019483  0
H  H17  1  0.46244347  0.36358575  0.89515157  1  0.100337  0  0.107246  0.109873  0  0.994758  0
H  H18  1  0.46969954  0.36844122  0.74869274  1  0.092335  0  0.105532  0.110568  0  0.993004  0
H  H19  1  0.61410517  0.57265266  0.26392561  1  0.098034  0  0.108251  0.116307  0  0.989598  0
H  H20  1  0.56362082  0.58932465  0.89240119  1  0.090281  0  0.105044  0.106242  0  1.015202  0
H  H21  1  0.63625408  0.57613197  0.11903047  1  0.097727  0  0.109207  0.115442  0  0.989318  0
H  H22  1  0.56209889  0.59869898  0.74619217  1  0.044665  0  0.102866  0.104136  0  0.997914  0
H  H23  1  0.62589840  0.22271388  0.58542962  1  0.127622  0  0.134118  0.108216  0  0.956631  0
C  C24  1  0.51255003  0.49054126  0.65215079  1  1.518468  0  0.216201  0.597306  0  4.163539  0
C  C25  1  0.82302067  0.41900176  0.49465534  1  -0.038494  0  -0.013824  -0.07184  0  3.917465  0
C  C26  1  0.51589026  0.48398681  0.73927128  1  -0.002036  0  -0.007952  -0.012109  0  3.939729  0
C  C27  1  0.70543342  0.44457151  0.49652073  1  1.556564  0  0.213869  0.597983  0  4.159606  0
C  C28  1  0.54232303  0.54647263  0.77957471  1  0.070547  0  -0.08237  -0.083243  0  3.982573  0
C  C29  1  0.54264432  0.54190608  0.86016820  1  -0.087793  0  -0.084594  -0.141909  0  3.953549  0
C  C30  1  0.51292658  0.47576922  0.90171249  1  0.358351  0  0.085761  0.167752  0  4.048427  0
C  C31  1  0.48607675  0.41347668  0.86151827  1  -0.004777  0  -0.080366  -0.141085  0  3.963487  0
C  C32  1  0.48952278  0.41655551  0.78084525  1  -0.051653  0  -0.084341  -0.090157  0  3.980573  0
C  C33  1  0.44883168  0.48076716  0.13520819  1  0.044069  0  -0.091331  -0.217234  0  3.936657  0
C  C34  1  0.43710611  0.47944432  0.21522798  1  0.043317  0  0.021031  0.150426  0  4.008384  0
C  C35  1  0.98231680  0.45776430  0.48553090  1  -0.014466  0  -0.002299  0.032666  0  3.946224  0
C  C36  1  0.52234946  0.51406592  0.10076254  1  0.340693  0  0.087817  0.189493  0  4.054832  0
C  C37  1  0.49842401  0.51096053  0.26288481  1  -0.012777  0  -0.013568  -0.078027  0  3.908739  0
C  C38  1  0.56889094  0.54665036  0.22677865  1  -0.04081  0  -0.082467  -0.074145  0  3.982406  0
C  C39  1  0.49527166  0.50754454  0.34992519  1  1.606767  0  0.212478  0.603846  0  4.168922  0
C  C40  1  0.58115017  0.54878211  0.14686325  1  -0.029358  0  -0.084916  -0.153927  0  3.969412  0
C  C41  1  0.44499066  0.79406127  0.44728309  1  0.330736  0  0.092303  0.203293  0  3.911219  0
C  C42  1  0.45686151  0.87640130  0.45297521  1  0.020909  0  -0.08034  -0.220296  0  3.923949  0
C  C43  1  0.52572070  0.88223952  0.51081688  1  0.385855  0  0.107286  0.215786  0  4.025142  0
C  C44  1  0.58258949  0.80523221  0.55936379  1  -0.086748  0  -0.067587  -0.186942  0  3.907182  0
C  C45  1  0.56516575  0.72614008  0.54985276  1  0.518242  0  0.067141  0.129658  0  3.878121  0
C  C46  1  0.87096284  0.48308211  0.47259821  1  0.041067  0  -0.000828  0.064033  0  3.943931  0
C  C47  1  0.56375236  0.12471241  0.54741466  1  -0.080489  0  -0.069345  -0.18417  0  3.917604  0
C  C48  1  0.56923058  0.20972507  0.54799425  1  0.533936  0  0.065894  0.109876  0  3.917673  0
C  C49  1  0.48774792  0.11441479  0.49783217  1  0.35038  0  0.107385  0.200007  0  4.037295  0
C  C50  1  0.43210115  0.27184441  0.45522530  1  0.549672  0  0.068898  0.120764  0  3.88288  0
C  C51  1  0.29634799  0.54974722  0.49389929  1  1.575695  0  0.21298  0.598534  0  4.156632  0
C  C52  1  0.42018325  0.18931322  0.45174071  1  -0.035612  0  -0.061815  -0.176758  0  3.898556  0
C  C53  1  0.01401856  0.67863620  0.42215210  1  -0.060846  0  -0.095474  -0.141586  0  4.009648  0
C  C54  1  0.18164785  0.57304945  0.47468378  1  -0.009505  0  -0.021874  -0.031653  0  3.983583  0
C  C55  1  0.88523273  0.33114786  0.52118528  1  0.010473  0  -0.087438  -0.094474  0  4.002609  0
C  C56  1  0.99505820  0.30541544  0.53027459  1  -0.165272  0  -0.098184  -0.093409  0  4.076136  0
C  C57  1  0.03060079  0.52483056  0.46969621  1  0.015212  0  -0.005287  0.030675  0  3.951662  0
C  C58  1  0.04223623  0.36815114  0.51417015  1  0.020112  0  -0.090814  -0.126876  0  4.005475  0
C  C59  1  0.96762100  0.61275134  0.43607111  1  -0.018557  0  -0.008931  0.079585  0  4.024455  0
C  C60  1  0.85875395  0.63221002  0.41731165  1  -0.068487  0  -0.097366  -0.14423  0  4.042914  0
C  C61  1  0.81204940  0.57087957  0.43546134  1  -0.031726  0  -0.093979  -0.127773  0  4.00854  0
C  C62  1  0.13761221  0.50731643  0.48777485  1  -0.098967  0  -0.08326  -0.136593  0  3.946209  0
C  C63  1  0.11886634  0.65983506  0.44149474  1  -0.038615  0  -0.090525  -0.091688  0  4.003355  0
I  I64  1  0.34078549  0.78838278  0.35974651  1  0.197239  0  0.129725  0.031716  0  1.396403  0
N  N65  1  0.50358962  0.46846768  0.98317674  1  -0.496728  0  -0.148255  -0.132229  0  3.289169  0
N  N66  1  0.53885647  0.51786517  0.01996216  1  -0.475159  0  -0.152232  -0.142178  0  3.27157  0
N  N67  1  0.49704739  0.72033174  0.49513385  1  -1.21825  0  -0.309072  -0.221171  0  3.45025  0
N  N68  1  0.54364497  0.96295322  0.52135529  1  -0.429095  0  -0.126728  -0.109557  0  3.200199  0
N  N69  1  0.47169516  0.03258302  0.49041782  1  -0.445797  0  -0.12584  -0.106537  0  3.239794  0
N  N70  1  0.50518734  0.28145190  0.50263905  1  -1.250807  0  -0.308133  -0.183764  0  3.489511  0
Cl  Cl71  1  0.33993773  0.44254274  0.25278813  1  -0.209392  0  -0.02809  -0.095401  0  1.457037  0
O  O72  1  0.53300601  0.41684587  0.62040943  1  -1.157867  0  -0.321459  -0.553259  0  2.317864  0
O  O73  1  0.48852234  0.56902912  0.61733523  1  -1.153339  0  -0.31855  -0.550968  0  2.304915  0
O  O74  1  0.66820906  0.38345953  0.48592882  1  -1.162862  0  -0.323178  -0.546951  0  2.291133  0
O  O75  1  0.65133301  0.52490221  0.51179946  1  -1.171614  0  -0.314689  -0.559345  0  2.373575  0
O  O76  1  0.48011145  0.44109921  0.38587889  1  -1.159033  0  -0.313917  -0.547761  0  2.364536  0
O  O77  1  0.51197359  0.57114850  0.38102306  1  -1.165085  0  -0.321081  -0.562009  0  2.372751  0
O  O78  1  0.35016938  0.46798896  0.51687605  1  -1.179484  0  -0.323278  -0.559168  0  2.335056  0
O  O79  1  0.33265846  0.61315630  0.48450695  1  -1.167986  0  -0.323254  -0.553254  0  2.355878  0
