# generated using pymatgen
data_ZnPH23C33N4O7
_symmetry_space_group_name_H-M   'P 1'
_cell_length_a   14.04276570
_cell_length_b   14.03786754
_cell_length_c   21.19278393
_cell_angle_alpha   93.04094178
_cell_angle_beta   108.88618458
_cell_angle_gamma   115.57172852
_symmetry_Int_Tables_number   1
_chemical_formula_structural   ZnPH23C33N4O7
_chemical_formula_sum   'Zn4 P4 H92 C132 N16 O28'
_cell_volume   3473.49536748
_cell_formula_units_Z   4
loop_
 _symmetry_equiv_pos_site_id
 _symmetry_equiv_pos_as_xyz
  1  'x, y, z'
loop_
 _atom_site_type_symbol
 _atom_site_label
 _atom_site_symmetry_multiplicity
 _atom_site_fract_x
 _atom_site_fract_y
 _atom_site_fract_z
 _atom_site_occupancy
 _atom_site_pbe_bader_charge
 _atom_site_pbe_bader_spin_density
 _atom_site_pbe_cm5_charge
 _atom_site_pbe_ddec_charge
 _atom_site_pbe_ddec_spin_density
 _atom_site_pbe_ddec_sum_bond_order
 _atom_site_pbe_magmom
Zn  Zn0  1  0.93159725  0.28078473  0.49543901  1  1.255384  0  0.705772  0.7883  0  2.411445  0
Zn  Zn1  1  0.28529813  0.43617359  0.00472476  1  1.265244  0  0.70627  0.789255  0  2.410103  0
Zn  Zn2  1  0.06840432  0.71921851  0.50456420  1  1.255454  0  0.705758  0.788294  0  2.411354  0
Zn  Zn3  1  0.71470303  0.56382690  0.99527483  1  1.265206  0  0.706301  0.789259  0  2.410236  0
P  P4  1  0.66934832  0.59178134  0.70892348  1  2.760189  0  0.244132  0.801732  0  4.894081  0
P  P5  1  0.38294099  0.96055803  0.79114425  1  2.766923  0  0.244651  0.801692  0  4.891707  0
P  P6  1  0.33065086  0.40821729  0.29107737  1  2.764235  0  0.244158  0.801813  0  4.894132  0
P  P7  1  0.61705932  0.03944277  0.20885530  1  2.766998  0  0.244689  0.801822  0  4.891408  0
H  H8  1  0.82143006  0.50510106  0.54473803  1  0.093722  0  0.104956  0.110523  0  1.017641  0
H  H9  1  0.46069304  0.27716899  0.95528765  1  0.066306  0  0.105351  0.111635  0  1.01773  0
H  H10  1  0.17857204  0.49489855  0.45526491  1  0.093708  0  0.105012  0.11065  0  1.017539  0
H  H11  1  0.53930333  0.72282990  0.04471202  1  0.066286  0  0.105378  0.111638  0  1.017682  0
H  H12  1  0.85373317  0.47691311  0.29845751  1  0.133628  0  0.130545  0.130982  0  0.997621  0
H  H13  1  0.67830330  0.55467982  0.20159340  1  0.128952  0  0.130237  0.130475  0  0.997267  0
H  H14  1  0.14626783  0.52308572  0.70154193  1  0.133598  0  0.130541  0.130994  0  0.997613  0
H  H15  1  0.32169754  0.44531736  0.79840589  1  0.128976  0  0.13023  0.130488  0  0.997213  0
H  H16  1  0.73940126  0.43609218  0.75388432  1  0.052992  0  0.103346  0.102246  0  1.007499  0
H  H17  1  0.18225360  0.98567218  0.74623338  1  0.109187  0  0.103284  0.101954  0  1.007196  0
H  H18  1  0.26059628  0.56390297  0.24611571  1  0.052946  0  0.103336  0.102206  0  1.007459  0
H  H19  1  0.81774825  0.01432409  0.25376611  1  0.109201  0  0.103255  0.101987  0  1.007199  0
H  H20  1  0.19493088  0.38111555  0.12740138  1  0.241631  0  0.132816  0.124701  0  1.064156  0
H  H21  1  0.75415282  0.06791742  0.37277718  1  0.234109  0  0.13287  0.124679  0  1.063704  0
H  H22  1  0.80506883  0.61888213  0.87260160  1  0.241693  0  0.132781  0.124624  0  1.06422  0
H  H23  1  0.24584712  0.93208641  0.62722280  1  0.234006  0  0.132894  0.124701  0  1.063709  0
H  H24  1  0.75451426  0.61598009  0.59502751  1  0.100718  0  0.09957  0.099351  0  1.037449  0
H  H25  1  0.52114327  0.15984900  0.90497010  1  0.077216  0  0.099564  0.09973  0  1.03775  0
H  H26  1  0.24548344  0.38401896  0.40497267  1  0.100689  0  0.099625  0.099475  0  1.03739  0
H  H27  1  0.47885772  0.84015026  0.09503174  1  0.077242  0  0.099542  0.099715  0  1.037783  0
H  H28  1  0.97142036  0.24878559  0.35315335  1  0.156651  0  0.144381  0.113937  0  0.983582  0
H  H29  1  0.39592091  0.61822101  0.14696925  1  0.151187  0  0.144161  0.113016  0  0.984571  0
H  H30  1  0.02857825  0.75120907  0.64684614  1  0.156726  0  0.144386  0.113943  0  0.983556  0
H  H31  1  0.60408132  0.38177674  0.85302979  1  0.151209  0  0.144134  0.113002  0  0.984619  0
H  H32  1  0.87943949  0.35057402  0.99037545  1  0.207522  0  0.122327  0.140845  0  1.036861  0
H  H33  1  0.86004746  0.88888634  0.50960975  1  0.200448  0  0.12252  0.141298  0  1.036398  0
H  H34  1  0.12056439  0.64943397  0.00962439  1  0.207497  0  0.122348  0.140839  0  1.036844  0
H  H35  1  0.13995174  0.11111186  0.49038871  1  0.200455  0  0.12254  0.141291  0  1.036395  0
H  H36  1  0.02433007  0.37391220  0.92026609  1  0.119333  0  0.120072  0.114912  0  1.039387  0
H  H37  1  0.95368764  0.10390914  0.57990003  1  0.121227  0  0.119998  0.114847  0  1.040416  0
H  H38  1  0.97567805  0.62609468  0.07973637  1  0.119085  0  0.120061  0.114899  0  1.039387  0
H  H39  1  0.04631166  0.89609030  0.42009933  1  0.121216  0  0.120047  0.114922  0  1.040408  0
H  H40  1  0.81537126  0.33123463  0.70552985  1  0.11985  0  0.104684  0.111587  0  1.041036  0
H  H41  1  0.12591570  0.11013676  0.79460370  1  0.120024  0  0.104396  0.111131  0  1.040062  0
H  H42  1  0.18463180  0.66876549  0.29447164  1  0.119879  0  0.104685  0.11159  0  1.040975  0
H  H43  1  0.87408115  0.88985584  0.20539646  1  0.120012  0  0.104385  0.111116  0  1.040062  0
H  H44  1  0.47303238  0.59819342  0.71596548  1  0.075819  0  0.10636  0.106664  0  0.991471  0
H  H45  1  0.38222496  0.75721814  0.78424235  1  0.075954  0  0.106788  0.106615  0  0.990608  0
H  H46  1  0.52696882  0.40180608  0.28403817  1  0.075957  0  0.106362  0.106677  0  0.991444  0
H  H47  1  0.61777636  0.24278176  0.21575740  1  0.075978  0  0.106822  0.106658  0  0.990575  0
H  H48  1  0.92601112  0.19655358  0.24071563  1  0.075937  0  0.109853  0.112714  0  1.012844  0
H  H49  1  0.45598943  0.68521150  0.25922850  1  0.074247  0  0.109734  0.112954  0  1.012931  0
H  H50  1  0.07398744  0.80344474  0.75928219  1  0.075968  0  0.109862  0.112717  0  1.012884  0
H  H51  1  0.54401273  0.31478627  0.74077370  1  0.074333  0  0.109752  0.11298  0  1.012958  0
H  H52  1  0.54136464  0.42308381  0.57763167  1  0.072043  0  0.099089  0.100617  0  1.021771  0
H  H53  1  0.34559466  0.96407891  0.92256801  1  0.075659  0  0.099379  0.101571  0  1.021022  0
H  H54  1  0.45863492  0.57691855  0.42236874  1  0.072443  0  0.099095  0.100648  0  1.021726  0
H  H55  1  0.65440667  0.03592732  0.07742932  1  0.075722  0  0.099419  0.101543  0  1.021005  0
H  H56  1  0.83936221  0.17012590  0.63744028  1  0.674237  0  0.305363  0.384412  0  0.953905  0
H  H57  1  0.03281699  0.20231708  0.86288667  1  0.663981  0  0.305172  0.38399  0  0.954461  0
H  H58  1  0.16063713  0.82987214  0.36256073  1  0.674218  0  0.305356  0.384399  0  0.953932  0
H  H59  1  0.96718714  0.79768480  0.13711426  1  0.664045  0  0.305171  0.383979  0  0.954465  0
H  H60  1  0.33168787  0.31710310  0.50712491  1  0.085348  0  0.100991  0.098856  0  1.024812  0
H  H61  1  0.31005445  0.82483887  0.99302204  1  0.080794  0  0.100902  0.098451  0  1.025687  0
H  H62  1  0.66831094  0.68289631  0.49287637  1  0.085314  0  0.100995  0.098851  0  1.024791  0
H  H63  1  0.68994300  0.17516586  0.00697466  1  0.080558  0  0.100882  0.098419  0  1.025684  0
H  H64  1  0.95007659  0.51355188  0.23445661  1  0.114948  0  0.120486  0.133642  0  0.981349  0
H  H65  1  0.77923980  0.71553276  0.26568003  1  0.112803  0  0.120534  0.133278  0  0.981178  0
H  H66  1  0.04991553  0.48644404  0.76554286  1  0.115101  0  0.120423  0.133534  0  0.981422  0
H  H67  1  0.22076119  0.28446607  0.73431940  1  0.112867  0  0.120507  0.133246  0  0.981169  0
H  H68  1  0.84844211  0.43962277  0.42489658  1  0.155746  0  0.12377  0.125216  0  1.019372  0
H  H69  1  0.51442062  0.42301212  0.07508861  1  0.151127  0  0.123313  0.124675  0  1.018466  0
H  H70  1  0.15155840  0.56037603  0.57510479  1  0.155671  0  0.123764  0.125199  0  1.019402  0
H  H71  1  0.48558060  0.57698652  0.92491024  1  0.151248  0  0.123321  0.124697  0  1.018495  0
H  H72  1  0.59218952  0.69257236  0.59550375  1  0.069904  0  0.103203  0.101889  0  1.005071  0
H  H73  1  0.59722418  0.99697612  0.90444580  1  0.053483  0  0.102668  0.100765  0  1.007085  0
H  H74  1  0.40780992  0.30742467  0.40449817  1  0.069901  0  0.103186  0.101866  0  1.005101  0
H  H75  1  0.40277619  0.00302509  0.09555300  1  0.053459  0  0.102649  0.100748  0  1.007094  0
H  H76  1  0.67350649  0.88448321  0.58377623  1  0.096963  0  0.108094  0.110618  0  0.991313  0
H  H77  1  0.80079956  0.08976931  0.91611676  1  0.074541  0  0.107711  0.110072  0  0.990659  0
H  H78  1  0.32649015  0.11551408  0.41622451  1  0.09694  0  0.108073  0.110574  0  0.991414  0
H  H79  1  0.19920022  0.91023286  0.08388306  1  0.069497  0  0.107696  0.110037  0  0.990724  0
H  H80  1  0.94046870  0.98171751  0.78321812  1  0.114213  0  0.107076  0.110942  0  1.014268  0
H  H81  1  0.69851205  0.15714712  0.71664870  1  0.106032  0  0.1065  0.110083  0  1.014791  0
H  H82  1  0.05952931  0.01828036  0.21678238  1  0.114195  0  0.107083  0.110975  0  1.014251  0
H  H83  1  0.30149076  0.84285461  0.28335171  1  0.106041  0  0.106497  0.11007  0  1.014756  0
H  H84  1  0.85538468  0.79050019  0.79693169  1  0.079305  0  0.102714  0.097669  0  1.024908  0
H  H85  1  0.49365368  0.05842638  0.70290794  1  0.08088  0  0.103332  0.098693  0  1.023618  0
H  H86  1  0.14461057  0.20949878  0.20306928  1  0.079332  0  0.102719  0.097672  0  1.024879  0
H  H87  1  0.50634764  0.94157577  0.29709180  1  0.080791  0  0.103322  0.098687  0  1.023597  0
H  H88  1  0.97491693  0.19841159  0.13798151  1  0.084082  0  0.113749  0.120261  0  0.985082  0
H  H89  1  0.56046679  0.83710082  0.36185093  1  0.072638  0  0.113661  0.120555  0  0.985096  0
H  H90  1  0.02507749  0.80158909  0.86201460  1  0.084041  0  0.113722  0.120194  0  0.985108  0
H  H91  1  0.43953676  0.16289935  0.63814863  1  0.072645  0  0.113649  0.120516  0  0.985079  0
H  H92  1  0.26408020  0.49089978  0.64437804  1  0.090187  0  0.102856  0.102965  0  1.034357  0
H  H93  1  0.34657015  0.61988798  0.85583293  1  0.093736  0  0.102738  0.102425  0  1.03404  0
H  H94  1  0.73592004  0.50910104  0.35562466  1  0.089809  0  0.102823  0.102865  0  1.034396  0
H  H95  1  0.65343355  0.38011428  0.14416917  1  0.093688  0  0.102734  0.102435  0  1.034076  0
H  H96  1  0.99585215  0.51236201  0.13221071  1  0.10616  0  0.113999  0.123522  0  1.012982  0
H  H97  1  0.88022214  0.86373255  0.36789243  1  0.112595  0  0.113823  0.122842  0  1.013477  0
H  H98  1  0.00414193  0.48763845  0.86778990  1  0.106144  0  0.114021  0.123517  0  1.012933  0
H  H99  1  0.11977866  0.13626829  0.63210519  1  0.112617  0  0.113852  0.122888  0  1.013434  0
C  C100  1  0.73845850  0.52985864  0.67650711  1  -0.602434  0  -0.027134  -0.143954  0  4.012389  0
C  C101  1  0.35350561  0.06223737  0.82350460  1  -0.532415  0  -0.027068  -0.145075  0  4.01301  0
C  C102  1  0.26153995  0.47013886  0.32349221  1  -0.606852  0  -0.027079  -0.143868  0  4.012286  0
C  C103  1  0.64649539  0.93776371  0.17649483  1  -0.532332  0  -0.027074  -0.145091  0  4.012883  0
C  C104  1  0.81783064  0.40883325  0.62037698  1  -0.046343  0  -0.016546  -0.031337  0  3.955734  0
C  C105  1  0.28875685  0.19790042  0.87966956  1  -0.048801  0  -0.015921  -0.030105  0  3.955832  0
C  C106  1  0.18217200  0.59116724  0.37962568  1  -0.042976  0  -0.016548  -0.031287  0  3.955612  0
C  C107  1  0.71124148  0.80209626  0.12033126  1  -0.048869  0  -0.015961  -0.030138  0  3.955848  0
C  C108  1  0.80214479  0.49021525  0.59016198  1  -0.007197  0  -0.082089  -0.084027  0  3.947163  0
C  C109  1  0.40035705  0.21244783  0.90984328  1  -0.008469  0  -0.08319  -0.08748  0  3.9503  0
C  C110  1  0.19785609  0.50978276  0.40983895  1  -0.007203  0  -0.082159  -0.084239  0  3.947241  0
C  C111  1  0.59964427  0.78755207  0.09015648  1  -0.008455  0  -0.083237  -0.087552  0  3.950294  0
C  C112  1  0.28609961  0.39821694  0.57153106  1  -0.068511  0  -0.013447  -0.017379  0  3.948457  0
C  C113  1  0.32679420  0.71484108  0.92867408  1  -0.009567  0  -0.012033  -0.016947  0  3.951223  0
C  C114  1  0.71389936  0.60178187  0.42847039  1  -0.068457  0  -0.013473  -0.017498  0  3.948501  0
C  C115  1  0.67320298  0.28516342  0.07132396  1  -0.009572  0  -0.011951  -0.016839  0  3.951203  0
C  C116  1  0.52074205  0.51821477  0.65100886  1  -0.586327  0  -0.027098  -0.142327  0  4.002587  0
C  C117  1  0.36739362  0.87005845  0.84919919  1  -0.601559  0  -0.026955  -0.141846  0  4.002016  0
C  C118  1  0.47925665  0.48178607  0.34899392  1  -0.586347  0  -0.027192  -0.14251  0  4.002533  0
C  C119  1  0.63260547  0.12994568  0.15080074  1  -0.601962  0  -0.026988  -0.141943  0  4.002242  0
C  C120  1  0.86015199  0.34413338  0.58970984  1  1.582556  0  0.20945  0.574913  0  4.213483  0
C  C121  1  0.25462630  0.27072238  0.91039496  1  1.575605  0  0.209606  0.574921  0  4.215134  0
C  C122  1  0.13985596  0.65587002  0.41029487  1  1.582444  0  0.209507  0.575038  0  4.213051  0
C  C123  1  0.74536599  0.72927208  0.08959987  1  1.575774  0  0.209491  0.574628  0  4.215687  0
C  C124  1  0.87443973  0.42292414  0.32781460  1  0.242686  0  0.005088  -0.102327  0  3.912407  0
C  C125  1  0.59501077  0.54615968  0.17224901  1  0.271242  0  0.005588  -0.101496  0  3.908918  0
C  C126  1  0.12556047  0.57707359  0.67218645  1  0.242583  0  0.005067  -0.102408  0  3.912405  0
C  C127  1  0.40498986  0.45383768  0.82775087  1  0.27115  0  0.005552  -0.101516  0  3.90893  0
C  C128  1  0.75594237  0.44973034  0.70742363  1  -0.058459  0  -0.083522  -0.079542  0  3.99073  0
C  C129  1  0.24246492  0.04876645  0.79265534  1  -0.125511  0  -0.083384  -0.078621  0  3.990529  0
C  C130  1  0.24405378  0.55026648  0.29257663  1  -0.058049  0  -0.083569  -0.079543  0  3.990737  0
C  C131  1  0.75753506  0.95122920  0.20734631  1  -0.12551  0  -0.083401  -0.078734  0  3.990491  0
C  C132  1  0.15987500  0.33180354  0.52943019  1  1.564418  0  0.196398  0.551564  0  4.250107  0
C  C133  1  0.30238492  0.63068590  0.97076710  1  1.562713  0  0.196657  0.552699  0  4.250995  0
C  C134  1  0.84012572  0.66819775  0.47057299  1  1.565003  0  0.196472  0.551727  0  4.249855  0
C  C135  1  0.69761050  0.36931655  0.02923161  1  1.562952  0  0.196586  0.552469  0  4.251088  0
C  C136  1  0.12953955  0.37385746  0.07923962  1  0.915266  0  0.144226  0.091729  0  3.857383  0
C  C137  1  0.79494656  0.05052566  0.42090499  1  0.928989  0  0.143546  0.090741  0  3.859755  0
C  C138  1  0.87046150  0.62614221  0.92076147  1  0.915232  0  0.144312  0.091943  0  3.857209  0
C  C139  1  0.20505582  0.94947600  0.57909420  1  0.92913  0  0.143499  0.090659  0  3.85979  0
C  C140  1  0.76396387  0.55152016  0.61837946  1  -0.044269  0  -0.087039  -0.092702  0  4.000438  0
C  C141  1  0.43337161  0.14600052  0.88158104  1  -0.069013  0  -0.087037  -0.09184  0  3.999777  0
C  C142  1  0.23603898  0.44848015  0.38162262  1  -0.044302  0  -0.087161  -0.092892  0  4.000507  0
C  C143  1  0.56662822  0.85399755  0.11841804  1  -0.06901  0  -0.086993  -0.091732  0  3.999634  0
C  C144  1  0.93587723  0.35520387  0.24476786  1  0.284584  0  0.105354  0.176134  0  3.996402  0
C  C145  1  0.61054776  0.69094820  0.25534318  1  0.290302  0  0.105282  0.175583  0  3.996477  0
C  C146  1  0.06412212  0.64479373  0.75523075  1  0.284821  0  0.105365  0.176092  0  3.996324  0
C  C147  1  0.38945356  0.30904945  0.74465658  1  0.290247  0  0.105341  0.175609  0  3.996481  0
C  C148  1  0.93462022  0.30223756  0.35443621  1  1.003955  0  0.159247  0.12706  0  3.884528  0
C  C149  1  0.44797530  0.58003565  0.14566097  1  1.02659  0  0.159299  0.127606  0  3.886277  0
C  C150  1  0.06537907  0.69775738  0.64556316  1  1.003465  0  0.159316  0.127078  0  3.884393  0
C  C151  1  0.55202661  0.41996328  0.85433776  1  1.026627  0  0.159282  0.127554  0  3.886401  0
C  C152  1  0.96535227  0.35950769  0.00667077  1  0.267804  0  0.004013  -0.098899  0  3.878743  0
C  C153  1  0.85283075  0.95862968  0.49338626  1  0.257435  0  0.003435  -0.100403  0  3.878711  0
C  C154  1  0.03465070  0.64050019  0.99332978  1  0.267262  0  0.003956  -0.098955  0  3.878889  0
C  C155  1  0.14717227  0.04137186  0.50661357  1  0.256953  0  0.00344  -0.100303  0  3.878712  0
C  C156  1  0.03775699  0.37233449  0.97340262  1  0.401159  0  -0.001127  -0.031226  0  3.993718  0
C  C157  1  0.89907525  0.06433857  0.52673002  1  0.4093  0  -0.001721  -0.031126  0  3.994996  0
C  C158  1  0.96224958  0.62767467  0.02659991  1  0.401905  0  -0.00107  -0.031155  0  3.993597  0
C  C159  1  0.10092437  0.93566194  0.47326964  1  0.409333  0  -0.001771  -0.0313  0  3.99507  0
C  C160  1  0.79683476  0.39028678  0.68001621  1  -0.007647  0  -0.082187  -0.094444  0  3.956216  0
C  C161  1  0.21050225  0.11715248  0.82006204  1  0.010944  0  -0.082375  -0.094414  0  3.9554  0
C  C162  1  0.20316639  0.60971189  0.31998579  1  -0.010813  0  -0.082125  -0.094381  0  3.956125  0
C  C163  1  0.78949560  0.88284373  0.17993831  1  0.010998  0  -0.082303  -0.09431  0  3.955352  0
C  C164  1  0.72140890  0.72894560  0.69612031  1  -0.578984  0  -0.024182  -0.136332  0  3.988404  0
C  C165  1  0.53286829  0.02535598  0.80378475  1  -0.597765  0  -0.024461  -0.135552  0  3.986729  0
C  C166  1  0.27859007  0.27105095  0.30388114  1  -0.578156  0  -0.024257  -0.136454  0  3.988637  0
C  C167  1  0.46712942  0.97464490  0.19621302  1  -0.597659  0  -0.024449  -0.135643  0  3.986775  0
C  C168  1  0.44238485  0.53786449  0.66958855  1  0.071582  0  -0.080295  -0.076781  0  3.991333  0
C  C169  1  0.36840290  0.77304575  0.83064070  1  -0.026393  0  -0.081445  -0.077428  0  3.990436  0
C  C170  1  0.55761369  0.46213469  0.33041407  1  0.071187  0  -0.080268  -0.076812  0  3.991194  0
C  C171  1  0.63159407  0.22695400  0.16935554  1  -0.026032  0  -0.081414  -0.077372  0  3.990608  0
C  C172  1  0.94298495  0.26653638  0.21768021  1  0.025095  0  -0.08365  -0.146867  0  3.972766  0
C  C173  1  0.54900843  0.72534548  0.28231240  1  0.056505  0  -0.08351  -0.14705  0  3.976325  0
C  C174  1  0.05701228  0.73346403  0.78231709  1  0.025006  0  -0.083648  -0.146841  0  3.972718  0
C  C175  1  0.45099252  0.27465477  0.71768538  1  0.056152  0  -0.083484  -0.147062  0  3.976272  0
C  C176  1  0.48118042  0.43939164  0.59208101  1  -0.054408  0  -0.08626  -0.082864  0  3.998844  0
C  C177  1  0.34747263  0.88943526  0.90811227  1  -0.056784  0  -0.086643  -0.084061  0  4.001192  0
C  C178  1  0.51882104  0.56061034  0.40792129  1  -0.054539  0  -0.086193  -0.082767  0  3.998715  0
C  C179  1  0.65252641  0.11056804  0.09188601  1  -0.056716  0  -0.086666  -0.083987  0  4.001041  0
C  C180  1  0.36438284  0.37990730  0.55260090  1  -0.027321  0  -0.084615  -0.094597  0  3.973815  0
C  C181  1  0.32739610  0.81209226  0.94756525  1  0.01597  0  -0.0847  -0.094279  0  3.97575  0
C  C182  1  0.63561842  0.62009444  0.44739959  1  -0.027393  0  -0.08462  -0.09457  0  3.973796  0
C  C183  1  0.67260571  0.18791219  0.05243255  1  0.01619  0  -0.084676  -0.094248  0  3.975587  0
C  C184  1  0.95234096  0.44270970  0.21307533  1  0.000196  0  -0.075752  -0.137777  0  3.952378  0
C  C185  1  0.72973761  0.73913779  0.28704206  1  -0.022394  0  -0.074878  -0.136121  0  3.949906  0
C  C186  1  0.04765509  0.55728812  0.78692402  1  -0.000286  0  -0.075615  -0.137572  0  3.952249  0
C  C187  1  0.27026408  0.26086133  0.71295726  1  -0.02248  0  -0.074862  -0.13607  0  3.94986  0
C  C188  1  0.87179785  0.40362213  0.38996156  1  0.455346  0  0.009618  -0.006823  0  3.95386  0
C  C189  1  0.51353114  0.48141459  0.11007572  1  0.416116  0  0.010067  -0.006352  0  3.951463  0
C  C190  1  0.12820357  0.59637451  0.61003910  1  0.45538  0  0.009598  -0.006881  0  3.953997  0
C  C191  1  0.48646991  0.51858466  0.88992297  1  0.416102  0  0.010075  -0.006355  0  3.951379  0
C  C192  1  0.66917062  0.75566848  0.63643278  1  -0.021922  0  -0.080689  -0.077326  0  3.993426  0
C  C193  1  0.61931800  0.03283377  0.86346842  1  0.030406  0  -0.07932  -0.075442  0  3.993354  0
C  C194  1  0.33082707  0.24432875  0.36356981  1  -0.022281  0  -0.080715  -0.077336  0  3.993356  0
C  C195  1  0.38068050  0.96716639  0.13653014  1  0.030238  0  -0.079327  -0.075422  0  3.993367  0
C  C196  1  0.87005177  0.05840360  0.67530641  1  1.529028  0  0.228115  0.571795  0  4.152409  0
C  C197  1  0.88314794  0.19491543  0.82474167  1  1.557792  0  0.228294  0.570232  0  4.151326  0
C  C198  1  0.12994768  0.94159300  0.32469311  1  1.529104  0  0.228118  0.571745  0  4.152404  0
C  C199  1  0.11685577  0.80508639  0.17525804  1  1.55706  0  0.228268  0.570309  0  4.151291  0
C  C200  1  0.71421463  0.86307880  0.62985557  1  0.005346  0  -0.078207  -0.088858  0  3.947851  0
C  C201  1  0.73328099  0.08442529  0.87006571  1  -0.06692  0  -0.078535  -0.089194  0  3.948074  0
C  C202  1  0.28578173  0.13691827  0.37014651  1  0.005673  0  -0.078101  -0.088724  0  3.94786  0
C  C203  1  0.26671708  0.91557299  0.12993405  1  -0.06174  0  -0.078579  -0.089236  0  3.948154  0
C  C204  1  0.81348128  0.94395696  0.68228561  1  -0.066976  0  -0.007828  -0.0214  0  3.961391  0
C  C205  1  0.76167816  0.13119103  0.81760856  1  -0.022077  0  -0.007636  -0.019727  0  3.961513  0
C  C206  1  0.18651652  0.05603884  0.31771549  1  -0.067076  0  -0.007897  -0.021464  0  3.961602  0
C  C207  1  0.23832491  0.86881360  0.18239291  1  -0.021829  0  -0.007561  -0.019682  0  3.961437  0
C  C208  1  0.86511170  0.91741082  0.74219844  1  -0.084977  0  -0.079156  -0.090246  0  3.953373  0
C  C209  1  0.67520494  0.12282804  0.75766630  1  -0.020761  0  -0.078656  -0.089902  0  3.951999  0
C  C210  1  0.13488652  0.08258729  0.25780387  1  -0.084906  0  -0.079143  -0.090275  0  3.953457  0
C  C211  1  0.32479924  0.87717919  0.24233626  1  -0.020816  0  -0.078667  -0.089926  0  3.95197  0
C  C212  1  0.81819876  0.81101980  0.74952882  1  0.036412  0  -0.078688  -0.065446  0  3.980066  0
C  C213  1  0.56150486  0.06865171  0.75036264  1  -0.008224  0  -0.079696  -0.067658  0  3.980491  0
C  C214  1  0.18180308  0.18897915  0.25047306  1  0.035786  0  -0.078629  -0.065338  0  3.980004  0
C  C215  1  0.43849518  0.93135069  0.24963584  1  -0.008131  0  -0.079682  -0.067568  0  3.980524  0
C  C216  1  0.98904857  0.35576093  0.12958593  1  0.294926  0  0.09296  0.154282  0  4.029122  0
C  C217  1  0.72631771  0.85961347  0.37042193  1  0.318505  0  0.09311  0.154701  0  4.025981  0
C  C218  1  0.01095063  0.64424178  0.87041251  1  0.295  0  0.092916  0.15417  0  4.029232  0
C  C219  1  0.27368319  0.14038862  0.62957659  1  0.318429  0  0.093073  0.154673  0  4.026019  0
C  C220  1  0.96998586  0.26717516  0.16004022  1  0.007907  0  -0.08203  -0.146275  0  4.004369  0
C  C221  1  0.60727282  0.81009594  0.33992586  1  -0.033312  0  -0.082083  -0.147102  0  4.003416  0
C  C222  1  0.03000877  0.73282532  0.83995531  1  0.007954  0  -0.08198  -0.14616  0  4.004323  0
C  C223  1  0.39272791  0.18990224  0.66007252  1  -0.03301  0  -0.082075  -0.147009  0  4.003278  0
C  C224  1  0.32608777  0.47803904  0.63008357  1  -0.10692  0  -0.083622  -0.09464  0  3.964555  0
C  C225  1  0.34804815  0.69623518  0.87014716  1  -0.080328  0  -0.083585  -0.093679  0  3.963809  0
C  C226  1  0.67391142  0.52196184  0.36991728  1  -0.106514  0  -0.08359  -0.09443  0  3.96443  0
C  C227  1  0.65195445  0.30376855  0.12985144  1  -0.080355  0  -0.08364  -0.093764  0  3.963925  0
C  C228  1  0.97880786  0.44267451  0.15537953  1  0.00987  0  -0.074173  -0.123489  0  3.955772  0
C  C229  1  0.78738710  0.82346546  0.34467867  1  0.036195  0  -0.074669  -0.123246  0  3.955078  0
C  C230  1  0.02118533  0.55732542  0.84461938  1  0.010051  0  -0.074249  -0.123495  0  3.955749  0
C  C231  1  0.21261433  0.17653526  0.65531958  1  0.036139  0  -0.074714  -0.123331  0  3.955118  0
N  N232  1  0.02477357  0.36009568  0.07346924  1  -1.257917  0  -0.226865  0.005564  0  3.810581  0
N  N233  1  0.78676744  0.95141764  0.42659211  1  -1.277863  0  -0.225718  0.006722  0  3.807116  0
N  N234  1  0.97522764  0.63991015  0.92653199  1  -1.258029  0  -0.226836  0.005592  0  3.810552  0
N  N235  1  0.21323191  0.04858222  0.57340650  1  -1.277425  0  -0.2257  0.006696  0  3.807216  0
N  N236  1  0.91389308  0.35770439  0.30535046  1  -1.26099  0  -0.220009  0.00473  0  3.801378  0
N  N237  1  0.55246820  0.60829448  0.19474991  1  -1.258694  0  -0.220042  0.004569  0  3.798215  0
N  N238  1  0.08610537  0.64229311  0.69464886  1  -1.260595  0  -0.22008  0.00474  0  3.801364  0
N  N239  1  0.44753274  0.39170169  0.80525028  1  -1.258695  0  -0.220064  0.004553  0  3.798412  0
N  N240  1  0.13909864  0.38154450  0.01897246  1  -1.248715  0  -0.361025  -0.284921  0  3.633542  0
N  N241  1  0.86289220  0.12027087  0.48121632  1  -1.241078  0  -0.360019  -0.283595  0  3.634163  0
N  N242  1  0.86090384  0.61845884  0.98103004  1  -1.248633  0  -0.361113  -0.285085  0  3.633355  0
N  N243  1  0.13710603  0.87973132  0.51878358  1  -1.241082  0  -0.360029  -0.283509  0  3.6342  0
N  N244  1  0.90960057  0.32841756  0.40577964  1  -1.234874  0  -0.349951  -0.272084  0  3.565525  0
N  N245  1  0.42265775  0.50359403  0.09429580  1  -1.230759  0  -0.350294  -0.271957  0  3.567778  0
N  N246  1  0.09040065  0.67157884  0.59421921  1  -1.234714  0  -0.349934  -0.271985  0  3.5655  0
N  N247  1  0.57734368  0.49640443  0.90570246  1  -1.230725  0  -0.350251  -0.271935  0  3.567715  0
O  O248  1  0.86154024  0.35619645  0.53019564  1  -1.172025  0  -0.325514  -0.538373  0  2.328954  0
O  O249  1  0.32620836  0.33165939  0.96990222  1  -1.174663  0  -0.325654  -0.538086  0  2.330676  0
O  O250  1  0.13846148  0.64379718  0.46980776  1  -1.172125  0  -0.325442  -0.53835  0  2.328765  0
O  O251  1  0.67378649  0.66834091  0.03009272  1  -1.174905  0  -0.325523  -0.537884  0  2.330958  0
O  O252  1  0.09598689  0.35519473  0.55276050  1  -1.167695  0  -0.33339  -0.549627  0  2.33616  0
O  O253  1  0.30243791  0.54340313  0.94748156  1  -1.170529  0  -0.333118  -0.550119  0  2.334738  0
O  O254  1  0.90401282  0.64480703  0.44724007  1  -1.168174  0  -0.333382  -0.549672  0  2.336029  0
O  O255  1  0.69754537  0.45659491  0.05250833  1  -1.170493  0  -0.333096  -0.549969  0  2.334909  0
O  O256  1  0.68514464  0.58748689  0.78214975  1  -1.434979  0  -0.368653  -0.64855  0  2.143491  0
O  O257  1  0.30526306  0.90293425  0.71795801  1  -1.444227  0  -0.369082  -0.648532  0  2.142299  0
O  O258  1  0.31485374  0.41250569  0.21785034  1  -1.4351  0  -0.368633  -0.648562  0  2.143536  0
O  O259  1  0.69473853  0.09706812  0.28204040  1  -1.444197  0  -0.369136  -0.648624  0  2.142179  0
O  O260  1  0.12488938  0.26188326  0.47657082  1  -1.185466  0  -0.331609  -0.564455  0  2.117759  0
O  O261  1  0.28519686  0.64857146  0.02356176  1  -1.180534  0  -0.332614  -0.565506  0  2.119018  0
O  O262  1  0.87511400  0.73812018  0.52343097  1  -1.185604  0  -0.331677  -0.564549  0  2.11771  0
O  O263  1  0.71481157  0.35143424  0.97644102  1  -1.180863  0  -0.332653  -0.565497  0  2.11899  0
O  O264  1  0.89342437  0.28452244  0.62240710  1  -1.194628  0  -0.320096  -0.562231  0  2.214735  0
O  O265  1  0.16219990  0.27109939  0.87776234  1  -1.193332  0  -0.320102  -0.562586  0  2.215132  0
O  O266  1  0.10657858  0.71547911  0.37759588  1  -1.194521  0  -0.320214  -0.562402  0  2.214526  0
O  O267  1  0.83779532  0.72889788  0.12223217  1  -1.19337  0  -0.320075  -0.562445  0  2.215258  0
O  O268  1  0.79654566  0.09248769  0.64243483  1  -1.181906  0  -0.335156  -0.503622  0  2.284281  0
O  O269  1  0.95017041  0.15446521  0.85782040  1  -1.174063  0  -0.334698  -0.502577  0  2.283475  0
O  O270  1  0.20345182  0.90750930  0.35756595  1  -1.181928  0  -0.335099  -0.503527  0  2.284253  0
O  O271  1  0.04983350  0.84553912  0.14218112  1  -1.173758  0  -0.334684  -0.502576  0  2.283451  0
O  O272  1  0.97504604  0.11308166  0.69751221  1  -1.138479  0  -0.293203  -0.495528  0  2.104003  0
O  O273  1  0.91566280  0.27782961  0.80265203  1  -1.152171  0  -0.293471  -0.494968  0  2.103637  0
O  O274  1  0.02495171  0.88691555  0.30248723  1  -1.138538  0  -0.293254  -0.49556  0  2.103927  0
O  O275  1  0.08434172  0.72217332  0.19734606  1  -1.15205  0  -0.293443  -0.494994  0  2.103747  0
