# generated using pymatgen
data_LaH21(C6O5)2
_symmetry_space_group_name_H-M   'P 1'
_cell_length_a   8.76576583
_cell_length_b   9.92473046
_cell_length_c   11.84335413
_cell_angle_alpha   74.85203780
_cell_angle_beta   69.54069284
_cell_angle_gamma   86.84313339
_symmetry_Int_Tables_number   1
_chemical_formula_structural   LaH21(C6O5)2
_chemical_formula_sum   'La2 H42 C24 O20'
_cell_volume   931.06132688
_cell_formula_units_Z   2
loop_
 _symmetry_equiv_pos_site_id
 _symmetry_equiv_pos_as_xyz
  1  'x, y, z'
loop_
 _atom_site_type_symbol
 _atom_site_label
 _atom_site_symmetry_multiplicity
 _atom_site_fract_x
 _atom_site_fract_y
 _atom_site_fract_z
 _atom_site_occupancy
 _atom_site_pbe_bader_charge
 _atom_site_pbe_bader_spin_density
 _atom_site_pbe_cm5_charge
 _atom_site_pbe_ddec_charge
 _atom_site_pbe_ddec_spin_density
 _atom_site_pbe_ddec_sum_bond_order
 _atom_site_pbe_magmom
La  La0  1  0.75107422  0.48277142  0.50165630  1  2.245243  0  1.391882  1.864523  0  2.350969  0
La  La1  1  0.24891980  0.51722738  0.49834622  1  2.245238  0  1.391892  1.864554  0  2.350929  0
H  H2  1  0.23694041  0.28116896  0.86305008  1  0.063999  0  0.108086  0.127534  0  0.977931  0
H  H3  1  0.76304769  0.71883398  0.13695390  1  0.064139  0  0.108061  0.127496  0  0.977886  0
H  H4  1  0.20039457  0.46040973  0.83545771  1  0.107341  0  0.111787  0.138504  0  0.997539  0
H  H5  1  0.79959966  0.53959430  0.16454613  1  0.107417  0  0.11183  0.138552  0  0.997535  0
H  H6  1  0.39673640  0.29822001  0.99586911  1  0.016872  0  0.085445  0.073446  0  1.018363  0
H  H7  1  0.60325137  0.70177457  0.00413595  1  0.016936  0  0.085459  0.073455  0  1.018349  0
H  H8  1  0.39499432  0.48176175  0.95277488  1  0.026186  0  0.091623  0.085663  0  0.98194  0
H  H9  1  0.60500441  0.51823290  0.04722819  1  0.026164  0  0.091603  0.085684  0  0.981947  0
H  H10  1  0.09287997  0.47295190  0.05737861  1  0.046286  0  0.093504  0.090524  0  0.994079  0
H  H11  1  0.90711921  0.52705424  0.94262265  1  0.046146  0  0.093498  0.090525  0  0.994063  0
H  H12  1  0.08929386  0.28925081  0.10381331  1  0.025688  0  0.08627  0.077623  0  0.995755  0
H  H13  1  0.91069440  0.71075631  0.89619054  1  0.025442  0  0.086282  0.077605  0  0.995754  0
H  H14  1  0.26212210  0.29866280  0.23254301  1  0.045303  0  0.105393  0.1205  0  0.974374  0
H  H15  1  0.73787323  0.70133809  0.76745787  1  0.045276  0  0.105381  0.120478  0  0.974377  0
H  H16  1  0.29089922  0.47979902  0.17196475  1  0.096714  0  0.105613  0.121639  0  1.020247  0
H  H17  1  0.70909610  0.52020187  0.82803866  1  0.096646  0  0.10559  0.121606  0  1.020256  0
H  H18  1  0.70807386  0.96900665  0.55868172  1  0.068751  0  0.098475  0.117915  0  0.99747  0
H  H19  1  0.29192643  0.03099635  0.44131572  1  0.068769  0  0.098467  0.117882  0  0.997552  0
H  H20  1  0.70967276  0.97531081  0.70597910  1  0.053291  0  0.104114  0.119614  0  0.970012  0
H  H21  1  0.29033220  0.02468699  0.29401576  1  0.053216  0  0.104131  0.119671  0  0.969961  0
H  H22  1  0.95520973  0.86056514  0.60024035  1  0.011808  0  0.09377  0.088519  0  1.008599  0
H  H23  1  0.04479300  0.13943786  0.39975394  1  0.011764  0  0.093747  0.088473  0  1.008622  0
H  H24  1  0.01057031  0.01720452  0.62235897  1  0.018225  0  0.090014  0.082294  0  0.991001  0
H  H25  1  0.98943242  0.98279847  0.37763362  1  0.018103  0  0.090028  0.082365  0  0.990971  0
H  H26  1  0.96938275  0.71344047  0.24979714  1  0.629753  0  0.306326  0.398489  0  0.932195  0
H  H27  1  0.03062082  0.28655314  0.75019985  1  0.629848  0  0.306279  0.398401  0  0.932297  0
H  H28  1  0.71597304  0.77681199  0.44140525  1  0.615113  0  0.304908  0.391018  0  0.930485  0
H  H29  1  0.28402470  0.22318785  0.55859017  1  0.615147  0  0.30489  0.390956  0  0.930578  0
H  H30  1  0.52735776  0.75532951  0.51012431  1  0.66703  0  0.304222  0.407436  0  0.919384  0
H  H31  1  0.47263876  0.24467033  0.48987227  1  0.667039  0  0.304258  0.407462  0  0.919348  0
H  H32  1  0.99516352  0.74170181  0.36487039  1  0.65297  0  0.303041  0.396974  0  0.945428  0
H  H33  1  0.00483405  0.25829385  0.63512685  1  0.652983  0  0.30302  0.396958  0  0.945495  0
H  H34  1  0.75365539  0.93997333  0.98225374  1  0.062355  0  0.106514  0.125944  0  0.977245  0
H  H35  1  0.24636080  0.06003185  0.01774082  1  0.062344  0  0.106517  0.125982  0  0.977217  0
H  H36  1  0.66014910  0.01723639  0.10474581  1  0.062876  0  0.109955  0.131847  0  0.954803  0
H  H37  1  0.33986304  0.98275832  0.89525211  1  0.062756  0  0.109981  0.131912  0  0.954838  0
H  H38  1  0.94661813  0.11147093  0.07344928  1  0.0414  0  0.089644  0.081364  0  1.003403  0
H  H39  1  0.05339408  0.88852589  0.92655238  1  0.041193  0  0.08967  0.081387  0  1.003374  0
H  H40  1  0.90614200  0.93006589  0.13802879  1  0.032849  0  0.086932  0.077574  0  1.02239  0
H  H41  1  0.09386894  0.06992987  0.86197258  1  0.033031  0  0.086917  0.077536  0  1.022363  0
H  H42  1  0.62216474  0.25697734  0.83628882  1  0.661168  0  0.309382  0.369427  0  0.965733  0
H  H43  1  0.37784290  0.74302783  0.16371723  1  0.661057  0  0.309387  0.369399  0  0.965675  0
C  C44  1  0.43978177  0.41224018  0.73715672  1  1.520019  0  0.235468  0.674638  0  4.069866  0
C  C45  1  0.56020969  0.58775547  0.26284716  1  1.51996  0  0.235494  0.67467  0  4.069872  0
C  C46  1  0.29017041  0.38365879  0.85330778  1  -0.062447  0  -0.158084  -0.310103  0  3.906473  0
C  C47  1  0.70982004  0.61634208  0.14669689  1  -0.062576  0  -0.158132  -0.310068  0  3.906327  0
C  C48  1  0.32209278  0.38619289  0.97154370  1  0.000747  0  -0.166759  -0.124049  0  3.959975  0
C  C49  1  0.67789999  0.61380485  0.02846022  1  0.000754  0  -0.166734  -0.124124  0  3.960099  0
C  C50  1  0.16555047  0.38366098  0.08210330  1  -0.015393  0  -0.166872  -0.122711  0  3.957354  0
C  C51  1  0.83444489  0.61634096  0.91789987  1  -0.015018  0  -0.166871  -0.122673  0  3.957376  0
C  C52  1  0.20303091  0.39279831  0.19620658  1  -0.059589  0  -0.161177  -0.309441  0  3.942873  0
C  C53  1  0.79696445  0.60720363  0.80379574  1  -0.059364  0  -0.161139  -0.309375  0  3.942846  0
C  C54  1  0.05797776  0.41555734  0.30336714  1  1.540178  0  0.220664  0.658027  0  4.130211  0
C  C55  1  0.94201634  0.58444355  0.69663574  1  1.540039  0  0.220629  0.657977  0  4.130267  0
C  C56  1  0.75353910  0.17134674  0.57551964  1  1.548788  0  0.213696  0.650274  0  4.122795  0
C  C57  1  0.24645858  0.82865207  0.42448110  1  1.54882  0  0.213677  0.650279  0  4.122402  0
C  C58  1  0.77313239  0.01535525  0.60446064  1  -0.060115  0  -0.161464  -0.298892  0  3.928802  0
C  C59  1  0.22687022  0.98464462  0.39553521  1  -0.060247  0  -0.161475  -0.29895  0  3.928863  0
C  C60  1  0.95171000  0.97482925  0.56995684  1  0.020403  0  -0.16473  -0.119597  0  3.919144  0
C  C61  1  0.04828903  0.02517268  0.43003778  1  0.041389  0  -0.164754  -0.119619  0  3.919174  0
C  C62  1  0.75971876  0.16188149  0.92953214  1  1.525545  0  0.240403  0.645634  0  4.049538  0
C  C63  1  0.24029629  0.83812579  0.07046816  1  1.502481  0  0.240509  0.645804  0  4.049092  0
C  C64  1  0.76961497  0.02589027  0.02070112  1  -0.036826  0  -0.158648  -0.304334  0  3.940514  0
C  C65  1  0.23039862  0.97411073  0.97929757  1  -0.013949  0  -0.158723  -0.304563  0  3.94063  0
C  C66  1  0.92503161  0.01406972  0.05230740  1  -0.034858  0  -0.169819  -0.134491  0  3.969229  0
C  C67  1  0.07498299  0.98592606  0.94769219  1  -0.013121  0  -0.169731  -0.134247  0  3.968995  0
O  O68  1  0.58215496  0.38918517  0.74289835  1  -1.190766  0  -0.333962  -0.588418  0  2.271864  0
O  O69  1  0.41783788  0.61081467  0.25710508  1  -1.190758  0  -0.333952  -0.588406  0  2.271956  0
O  O70  1  0.42549392  0.46196758  0.63027622  1  -1.223073  0  -0.403773  -0.663502  0  2.319842  0
O  O71  1  0.57449872  0.53802702  0.36972589  1  -1.223446  0  -0.403782  -0.663518  0  2.31984  0
O  O72  1  0.91415418  0.40775719  0.30356593  1  -1.186669  0  -0.357133  -0.587146  0  2.178767  0
O  O73  1  0.08584111  0.59224265  0.69643604  1  -1.186588  0  -0.357138  -0.587177  0  2.178817  0
O  O74  1  0.08313209  0.44449618  0.39568753  1  -1.227549  0  -0.43029  -0.685455  0  2.339915  0
O  O75  1  0.91686189  0.55550157  0.60431692  1  -1.227525  0  -0.43026  -0.685398  0  2.339849  0
O  O76  1  0.85042709  0.24862902  0.59380982  1  -1.206369  0  -0.366624  -0.616619  0  2.313598  0
O  O77  1  0.14956450  0.75136976  0.40619248  1  -1.206427  0  -0.366627  -0.616639  0  2.313211  0
O  O78  1  0.64278776  0.22802286  0.53443721  1  -1.212113  0  -0.351856  -0.615188  0  2.206476  0
O  O79  1  0.35721122  0.77197805  0.46556272  1  -1.212091  0  -0.35185  -0.615196  0  2.206442  0
O  O80  1  0.90742149  0.71636197  0.33653195  1  -1.280699  0  -0.607792  -0.827701  0  2.04639  0
O  O81  1  0.09257970  0.28363266  0.66346290  1  -1.280759  0  -0.60772  -0.827618  0  2.046441  0
O  O82  1  0.63309503  0.73222226  0.52211180  1  -1.272805  0  -0.612029  -0.792834  0  1.948245  0
O  O83  1  0.36690267  0.26777653  0.47788302  1  -1.272842  0  -0.612054  -0.792795  0  1.948333  0
O  O84  1  0.63114838  0.16273231  0.89418664  1  -1.184792  0  -0.336479  -0.504877  0  2.301419  0
O  O85  1  0.36885939  0.83727599  0.10581784  1  -1.184717  0  -0.336577  -0.504953  0  2.301203  0
O  O86  1  0.85796659  0.26219640  0.89328043  1  -1.173844  0  -0.289653  -0.511619  0  2.142084  0
O  O87  1  0.14204686  0.73780148  0.10672236  1  -1.173658  0  -0.289666  -0.511717  0  2.141791  0
