# generated using pymatgen
data_CuH9C13N3O4
_symmetry_space_group_name_H-M   'P 1'
_cell_length_a   8.26040223
_cell_length_b   9.07288662
_cell_length_c   9.16739748
_cell_angle_alpha   114.48500621
_cell_angle_beta   95.52617877
_cell_angle_gamma   103.08132966
_symmetry_Int_Tables_number   1
_chemical_formula_structural   CuH9C13N3O4
_chemical_formula_sum   'Cu2 H18 C26 N6 O8'
_cell_volume   594.87355284
_cell_formula_units_Z   2
loop_
 _symmetry_equiv_pos_site_id
 _symmetry_equiv_pos_as_xyz
  1  'x, y, z'
loop_
 _atom_site_type_symbol
 _atom_site_label
 _atom_site_symmetry_multiplicity
 _atom_site_fract_x
 _atom_site_fract_y
 _atom_site_fract_z
 _atom_site_occupancy
 _atom_site_hle17_ddec_charge
 _atom_site_hle17_ddec_spin_density
 _atom_site_hle17_ddec_sum_bond_order
 _atom_site_hle17_magmom
 _atom_site_hse06_10hf_ddec_charge
 _atom_site_hse06_10hf_ddec_spin_density
 _atom_site_hse06_10hf_ddec_sum_bond_order
 _atom_site_hse06_10hf_magmom
 _atom_site_hse06_ddec_charge
 _atom_site_hse06_ddec_spin_density
 _atom_site_hse06_ddec_sum_bond_order
 _atom_site_hse06_magmom
 _atom_site_pbe_cm5_charge
 _atom_site_pbe_ddec_charge
 _atom_site_pbe_ddec_spin_density
 _atom_site_pbe_ddec_sum_bond_order
 _atom_site_pbe_magmom
Cu  Cu0  1  0.78462774  0.72604422  0.74303435  1  0.803454  -0.625923  1.864224  -0.447  0.79749  -0.776562  2.258724  -0.609  0.896734  -0.877828  2.188019  -0.717  0.732019  0.726453  -0.636176  2.314096  -0.49
Cu  Cu1  1  0.21539575  0.27395554  0.25695817  1  0.803501  0.625898  1.864463  0.447  0.797538  0.776584  2.259042  0.609  0.896843  0.877859  2.188213  0.717  0.732065  0.726566  0.636142  2.314277  0.49
H  H2  1  0.78544933  0.26474608  0.34522727  1  0.29752  0.000115  0.938278  0.0  0.278835  3.9e-05  1.005317  0.0  0.288327  2.2e-05  0.998127  0.0  0.302644  0.271587  6.4e-05  1.010751  0.0
H  H3  1  0.21456605  0.73525871  0.65477872  1  0.297584  -0.000114  0.938137  0.0  0.278811  -3.9e-05  1.005304  0.0  0.2883  -2.2e-05  0.998104  0.0  0.302669  0.271566  -6.4e-05  1.010734  0.0
H  H4  1  0.62748513  0.57092501  0.91962156  1  0.082729  -0.001199  0.947132  -0.002  0.09297  -0.001313  1.010209  -0.002  0.094706  -0.001  1.008443  -0.002  0.119788  0.090083  -0.001382  1.012725  -0.002
H  H5  1  0.37251111  0.42908104  0.08037911  1  0.082699  0.001196  0.947149  0.002  0.092918  0.001313  1.010261  0.002  0.094666  0.001  1.008482  0.002  0.11975  0.09003  0.001382  1.012778  0.002
H  H6  1  0.55933295  0.28839747  0.92126785  1  0.102448  -0.000423  0.975721  -0.001  0.11318  -0.000407  1.037556  -0.001  0.115443  -0.000297  1.038826  0.0  0.103927  0.1118  -0.000505  1.034732  -0.001
H  H7  1  0.44066261  0.71160980  0.07874855  1  0.102453  0.000425  0.975681  0.001  0.113178  0.000407  1.037528  0.001  0.115442  0.000297  1.038794  0.0  0.103917  0.111806  0.000505  1.034702  0.001
H  H8  1  0.60843604  0.04394279  0.68474247  1  0.098299  -0.00033  0.943884  -0.001  0.110367  -0.00016  1.002917  0.0  0.112485  -7e-05  1.001193  0.0  0.108437  0.107365  -0.000126  1.006055  0.0
H  H9  1  0.39156757  0.95606325  0.31526531  1  0.098306  0.00033  0.943838  0.001  0.110376  0.00016  1.002869  0.0  0.1125  7e-05  1.001137  0.0  0.108441  0.107372  0.000126  1.006007  0.0
H  H10  1  0.71356765  0.09337539  0.45638508  1  0.121409  -0.000684  0.957114  -0.001  0.132325  -0.000602  1.01632  -0.001  0.135478  -0.000429  1.016269  -0.001  0.112863  0.129157  -0.000698  1.017888  -0.001
H  H11  1  0.28644078  0.90663066  0.54361980  1  0.121385  0.000684  0.957023  0.001  0.132316  0.000601  1.016213  0.001  0.135448  0.000429  1.016217  0.001  0.11284  0.129149  0.000699  1.017781  0.001
H  H12  1  0.86720772  0.36258536  0.17144066  1  0.12619  -0.000591  0.96401  -0.001  0.133744  -0.000643  1.028743  -0.001  0.137479  -0.000495  1.027656  -0.001  0.110159  0.130553  -0.000597  1.029936  -0.001
H  H13  1  0.13280609  0.63742192  0.82857715  1  0.126192  0.000595  0.963971  0.001  0.133755  0.000643  1.028712  0.001  0.137489  0.000496  1.027627  0.001  0.110181  0.13057  0.000597  1.029897  0.001
H  H14  1  0.91460910  0.59934644  0.09153214  1  0.102625  -0.000299  0.955492  -0.001  0.114232  -0.000126  1.012362  0.0  0.117161  -4.5e-05  1.009687  0.0  0.107643  0.112356  -0.00018  1.013207  0.0
H  H15  1  0.08539234  0.40064820  0.90846856  1  0.102636  0.000293  0.95552  0.001  0.114245  0.000126  1.012388  0.0  0.117175  4.5e-05  1.009711  0.0  0.10767  0.11237  0.00018  1.013234  0.0
H  H16  1  0.87650635  0.87594148  0.28147062  1  0.118631  -0.000418  0.965594  -0.001  0.126319  -0.000426  1.029658  -0.001  0.130432  -0.000329  1.028074  0.0  0.105491  0.122246  -0.000379  1.032041  -0.001
H  H17  1  0.12348626  0.12406079  0.71852165  1  0.118572  0.000422  0.965657  0.001  0.126291  0.000426  1.029681  0.001  0.130406  0.000329  1.028096  0.0  0.105487  0.122222  0.000378  1.032059  0.001
H  H18  1  0.81485771  0.91116500  0.55471476  1  0.082879  -0.000586  0.974621  -0.001  0.090961  -0.000739  1.04143  -0.002  0.093172  -0.000533  1.039417  -0.001  0.115998  0.089307  -0.000779  1.04258  -0.001
H  H19  1  0.18513470  0.08883218  0.44528193  1  0.082854  0.000582  0.974602  0.001  0.090909  0.000739  1.041453  0.002  0.093122  0.000532  1.039438  0.001  0.115981  0.089255  0.000779  1.042601  0.001
C  C20  1  0.52612490  0.89344997  0.91438061  1  0.182895  0.005036  3.878395  0.007  0.165511  0.001141  4.179113  0.002  0.179514  0.000565  4.195678  0.001  0.087077  0.157011  0.000835  4.162454  0.002
C  C21  1  0.47387414  0.10655357  0.08561051  1  0.182966  -0.005026  3.878579  -0.007  0.165518  -0.001139  4.179403  -0.002  0.179521  -0.000564  4.195978  -0.001  0.087022  0.157014  -0.00083  4.162751  -0.002
C  C22  1  0.61609460  0.03096754  0.07980017  1  0.181597  0.002549  3.86375  0.003  0.154215  0.00158  4.159585  0.002  0.163867  0.000833  4.176425  0.001  0.090135  0.149682  0.001916  4.143132  0.002
C  C23  1  0.38391111  0.96904613  0.92019894  1  0.181581  -0.002543  3.863954  -0.003  0.154228  -0.00158  4.159755  -0.002  0.163876  -0.00083  4.176591  -0.001  0.090091  0.149693  -0.001905  4.143302  -0.002
C  C24  1  0.98076143  0.05309520  0.95764439  1  0.532236  0.001937  3.938149  0.004  0.491586  0.000173  4.238635  0.002  0.527576  0.000197  4.231299  0.001  0.202741  0.465324  -0.000145  4.245149  0.001
C  C25  1  0.01922427  0.94688808  0.04233074  1  0.53266  -0.001927  3.937772  -0.004  0.491929  -0.000175  4.238384  -0.002  0.5279  -0.000194  4.231065  -0.001  0.202864  0.465665  0.000144  4.2449  -0.001
C  C26  1  0.64339826  0.46006237  0.82021672  1  0.148655  0.004467  3.710756  0.005  0.118018  3.7e-05  3.963029  0.001  0.129173  0.001  3.981646  0.002  0.044229  0.111371  -0.000573  3.950636  0.0
C  C27  1  0.35659557  0.53994368  0.17978594  1  0.148679  -0.004433  3.710655  -0.005  0.118052  -3.7e-05  3.962904  -0.001  0.129195  -0.001  3.981525  -0.002  0.044278  0.111406  0.000571  3.950518  0.0
C  C28  1  0.60565269  0.30362318  0.81976186  1  -0.153176  -0.007064  3.760906  -0.008  -0.164766  -0.003909  4.009565  -0.005  -0.174489  -0.00354  4.031752  -0.005  -0.09703  -0.160038  -0.003497  3.994152  -0.004
C  C29  1  0.39434326  0.69638159  0.18024589  1  -0.153284  0.007035  3.761057  0.008  -0.164888  0.003908  4.009749  0.005  -0.174609  0.00354  4.03194  0.005  -0.097139  -0.160172  0.003496  3.99434  0.004
C  C30  1  0.63272845  0.16835482  0.68777208  1  0.02205  0.00603  3.741619  0.006  0.002767  0.002467  3.988561  0.002  0.011485  0.002675  4.003311  0.003  -0.06692  -0.002838  0.002059  3.981966  0.002
C  C31  1  0.36727110  0.83164995  0.31223159  1  0.022139  -0.006023  3.741578  -0.006  0.002851  -0.002466  3.988525  -0.002  0.011567  -0.002676  4.003268  -0.003  -0.066825  -0.002754  -0.002059  3.981931  -0.002
C  C32  1  0.69179205  0.19461997  0.56206631  1  -0.217092  -0.00808  3.68887  -0.008  -0.229686  -0.004445  3.93431  -0.005  -0.241032  -0.003929  3.953645  -0.005  -0.0896  -0.225617  -0.003901  3.925065  -0.004
C  C33  1  0.30820732  0.80537594  0.43793366  1  -0.216983  0.00807  3.688639  0.008  -0.229576  0.004446  3.934051  0.005  -0.240925  0.003929  3.953377  0.005  -0.089541  -0.225506  0.003902  3.924801  0.004
C  C34  1  0.72702926  0.35789685  0.56969522  1  0.42928  0.002936  3.774353  0.004  0.400912  -9.1e-05  4.035149  0.001  0.422008  0.000993  4.05027  0.002  0.235546  0.388501  -0.000682  4.025523  0.0
C  C35  1  0.27297345  0.64209778  0.43030993  1  0.429179  -0.002927  3.774251  -0.004  0.400806  9.1e-05  4.035037  -0.001  0.421903  -0.000992  4.050156  -0.002  0.235503  0.388394  0.000682  4.025412  0.0
C  C36  1  0.81231885  0.51293969  0.40501831  1  0.431905  0.002025  3.765208  0.002  0.405388  -0.00015  4.029056  0.0  0.426942  0.000706  4.042236  0.001  0.230845  0.392723  -0.000418  4.019803  0.0
C  C37  1  0.18767919  0.48706003  0.59498096  1  0.431894  -0.001973  3.76524  -0.002  0.40538  0.000147  4.029094  0.0  0.426936  -0.000705  4.042272  -0.001  0.230889  0.392712  0.000417  4.019848  0.0
C  C38  1  0.85348411  0.48532990  0.25149573  1  -0.210352  -0.006031  3.677125  -0.006  -0.224878  -0.003743  3.927657  -0.004  -0.235724  -0.003458  3.945721  -0.004  -0.091569  -0.220929  -0.003422  3.915718  -0.004
C  C39  1  0.14651616  0.51466473  0.74850815  1  -0.210403  0.00591  3.676921  0.006  -0.224934  0.003745  3.927475  0.004  -0.235774  0.003457  3.945533  0.004  -0.091659  -0.220984  0.003422  3.915538  0.004
C  C40  1  0.87939339  0.61566440  0.20746716  1  0.013883  0.00483  3.742427  0.005  -0.00428  0.002179  3.987684  0.002  0.003919  0.00234  4.002551  0.002  -0.07114  -0.009271  0.001914  3.97592  0.002
C  C41  1  0.12061220  0.38432771  0.79253499  1  0.013895  -0.004724  3.742371  -0.004  -0.004271  -0.00218  3.987685  -0.002  0.003926  -0.002341  4.002553  -0.002  -0.071091  -0.009264  -0.001914  3.975925  -0.002
C  C42  1  0.86066287  0.77182122  0.31402066  1  -0.150376  -0.005598  3.749774  -0.006  -0.163571  -0.003287  3.999664  -0.004  -0.172722  -0.002882  4.019987  -0.004  -0.099737  -0.156261  -0.002992  3.987041  -0.004
C  C43  1  0.13933880  0.22817850  0.68597780  1  -0.150275  0.005495  3.750042  0.006  -0.163471  0.003287  3.999882  0.004  -0.172621  0.002881  4.020204  0.004  -0.099746  -0.156164  0.002991  3.987259  0.004
C  C44  1  0.82432500  0.79137671  0.46371162  1  0.12867  0.00272  3.721974  0.003  0.10263  -4.9e-05  3.974682  0.001  0.1126  0.000933  3.993821  0.002  0.034141  0.095093  -0.000372  3.961714  0.0
C  C45  1  0.17567064  0.20862299  0.53629074  1  0.128669  -0.002616  3.722134  -0.003  0.102632  4.7e-05  3.974848  -0.001  0.1126  -0.000934  3.993992  -0.002  0.03414  0.095096  0.000372  3.961883  0.0
N  N46  1  0.70496811  0.48823387  0.69954580  1  -0.383684  -0.074261  3.2878  -0.091  -0.334841  -0.061548  3.582472  -0.08  -0.370544  -0.052587  3.599986  -0.072  -0.36251  -0.315059  -0.056897  3.574487  -0.072
N  N47  1  0.29502810  0.51175950  0.30045397  1  -0.383694  0.074236  3.287711  0.091  -0.334825  0.061539  3.582363  0.08  -0.370543  0.052578  3.599869  0.072  -0.362525  -0.315058  0.056891  3.574375  0.072
N  N48  1  0.78659137  0.37871759  0.44278815  1  -0.452678  0.001283  3.36801  0.001  -0.397318  3.2e-05  3.607589  -0.001  -0.420465  0.000246  3.615047  -0.001  -0.391147  -0.384643  9.3e-05  3.602222  -0.001
N  N49  1  0.21341354  0.62128465  0.55721706  1  -0.452655  -0.001273  3.367883  -0.001  -0.397225  -3.3e-05  3.607517  0.001  -0.420389  -0.000248  3.615024  0.001  -0.391159  -0.38455  -9.3e-05  3.602152  0.001
N  N50  1  0.80317643  0.66624900  0.51105467  1  -0.404093  -0.060436  3.269228  -0.076  -0.36377  -0.051326  3.577005  -0.07  -0.396169  -0.043744  3.589178  -0.063  -0.363093  -0.342832  -0.046888  3.56982  -0.061
N  N51  1  0.19681961  0.33374819  0.48894121  1  -0.404129  0.060365  3.269202  0.076  -0.363793  0.051313  3.576985  0.07  -0.396209  0.043726  3.589153  0.063  -0.363099  -0.342869  0.046875  3.569797  0.061
O  O52  1  0.55084540  0.76268289  0.80892585  1  -0.473356  -0.029421  2.15648  -0.04  -0.475447  -0.016728  2.441904  -0.025  -0.51013  -0.009607  2.439815  -0.016  -0.314614  -0.44175  -0.020945  2.438015  -0.03
O  O53  1  0.44913384  0.23730668  0.19106776  1  -0.473353  0.029478  2.156771  0.04  -0.475434  0.016747  2.442266  0.025  -0.510141  0.009618  2.440163  0.016  -0.314603  -0.44174  0.020981  2.438359  0.03
O  O54  1  0.75391007  0.06955277  0.17721366  1  -0.468677  0.000858  2.052097  0.001  -0.44348  4.8e-05  2.287606  0.0  -0.468438  -0.000188  2.289139  0.0  -0.29453  -0.418614  0.001056  2.282102  0.002
O  O55  1  0.24609117  0.93044947  0.82279018  1  -0.468693  -0.000835  2.051992  -0.001  -0.443508  -4.7e-05  2.28754  0.0  -0.46845  0.000187  2.289051  0.0  -0.29453  -0.418662  -0.001042  2.282077  -0.002
O  O56  1  0.87487153  0.97508917  0.81998717  1  -0.541707  -0.061889  2.119289  -0.081  -0.508859  -0.047727  2.392087  -0.068  -0.552409  -0.038069  2.386518  -0.057  -0.304461  -0.479531  -0.045914  2.398294  -0.063
O  O57  1  0.12513363  0.02491573  0.17997553  1  -0.541867  0.061873  2.119358  0.081  -0.508905  0.047723  2.392026  0.068  -0.552464  0.038062  2.386443  0.057  -0.30448  -0.479589  0.045912  2.398225  0.063
O  O58  1  0.05455417  0.21038670  0.02916362  1  -0.552234  0.015063  2.071982  0.02  -0.520602  0.019161  2.33506  0.028  -0.556423  0.017076  2.325737  0.027  -0.297321  -0.493286  0.015243  2.342368  0.022
O  O59  1  0.94543971  0.78959395  0.97084705  1  -0.552437  -0.015093  2.071801  -0.02  -0.52085  -0.019169  2.33497  -0.028  -0.556648  -0.017085  2.325651  -0.027  -0.297402  -0.493517  -0.015255  2.342289  -0.022
