# generated using pymatgen
data_Cd2H4C4S3(N3O2)2
_symmetry_space_group_name_H-M   'P 1'
_cell_length_a   7.12904274
_cell_length_b   12.47781956
_cell_length_c   13.19596210
_cell_angle_alpha   90.00003485
_cell_angle_beta   101.60994322
_cell_angle_gamma   89.99999975
_symmetry_Int_Tables_number   1
_chemical_formula_structural   Cd2H4C4S3(N3O2)2
_chemical_formula_sum   'Cd8 H16 C16 S12 N24 O16'
_cell_volume   1149.82912394
_cell_formula_units_Z   4
loop_
 _symmetry_equiv_pos_site_id
 _symmetry_equiv_pos_as_xyz
  1  'x, y, z'
loop_
 _atom_site_type_symbol
 _atom_site_label
 _atom_site_symmetry_multiplicity
 _atom_site_fract_x
 _atom_site_fract_y
 _atom_site_fract_z
 _atom_site_occupancy
 _atom_site_hle17_bader_spin_density
 _atom_site_hle17_ddec_charge
 _atom_site_hle17_ddec_spin_density
 _atom_site_hle17_ddec_sum_bond_order
 _atom_site_hle17_magmom
 _atom_site_hse06_10hf_bader_spin_density
 _atom_site_hse06_10hf_ddec_charge
 _atom_site_hse06_10hf_ddec_spin_density
 _atom_site_hse06_10hf_ddec_sum_bond_order
 _atom_site_hse06_10hf_magmom
 _atom_site_hse06_bader_spin_density
 _atom_site_hse06_ddec_charge
 _atom_site_hse06_ddec_spin_density
 _atom_site_hse06_ddec_sum_bond_order
 _atom_site_hse06_magmom
 _atom_site_pbe_bader_spin_density
 _atom_site_pbe_cm5_charge
 _atom_site_pbe_ddec_charge
 _atom_site_pbe_ddec_spin_density
 _atom_site_pbe_ddec_sum_bond_order
 _atom_site_pbe_magmom
Cd  Cd0  1  0.21732603  0.38645389  0.48823503  1  0  1.044224  0  1.757448  0  0  0.847713  0  2.212343  0  0  0.896241  0  2.171019  0  0  0.747984  0.813358  0  2.240592  0
Cd  Cd1  1  0.28267263  0.88645216  0.01176369  1  0  1.044241  0  1.757412  0  0  0.847728  0  2.2123  0  0  0.896256  0  2.170974  0  0  0.747959  0.813371  0  2.240547  0
Cd  Cd2  1  0.78267255  0.61354646  0.51176285  1  0  1.044195  0  1.757481  0  0  0.847673  0  2.212367  0  0  0.896201  0  2.171044  0  0  0.74796  0.813316  0  2.240612  0
Cd  Cd3  1  0.71732739  0.11354419  0.98823737  1  0  1.044199  0  1.757382  0  0  0.847677  0  2.2123  0  0  0.896206  0  2.170975  0  0  0.747967  0.813326  0  2.240547  0
Cd  Cd4  1  0.37654846  0.38551793  0.80270081  1  0  1.019141  0  1.878001  0  0  0.849582  0  2.353433  0  0  0.895485  0  2.309708  0  0  0.677808  0.81733  0  2.383101  0
Cd  Cd5  1  0.12344806  0.88551711  0.69729984  1  0  1.019113  0  1.87802  0  0  0.849558  0  2.353447  0  0  0.895465  0  2.309723  0  0  0.677796  0.817304  0  2.383117  0
Cd  Cd6  1  0.62345154  0.61448402  0.19729798  1  0  1.019097  0  1.878066  0  0  0.849523  0  2.353523  0  0  0.895427  0  2.3098  0  0  0.677784  0.817268  0  2.383187  0
Cd  Cd7  1  0.87655196  0.11448404  0.30270198  1  0  1.01911  0  1.878023  0  0  0.849553  0  2.353439  0  0  0.895457  0  2.309718  0  0  0.677789  0.817305  0  2.383113  0
H  H8  1  0.99542831  0.19851805  0.62122396  1  0  0.118138  0  0.945075  0  0  0.125304  0  1.010276  0  0  0.128268  0  1.006559  0  0  0.139439  0.123006  0  1.01312  0
H  H9  1  0.50457451  0.69851495  0.87877662  1  0  0.118027  0  0.945192  0  0  0.125258  0  1.010343  0  0  0.128222  0  1.006624  0  0  0.139422  0.122959  0  1.013189  0
H  H10  1  0.00456884  0.80148550  0.37877679  1  0  0.11807  0  0.945114  0  0  0.125328  0  1.010232  0  0  0.128293  0  1.006512  0  0  0.139456  0.123026  0  1.013079  0
H  H11  1  0.49542980  0.30148060  0.12122339  1  0  0.118083  0  0.945068  0  0  0.12525  0  1.010281  0  0  0.128212  0  1.006566  0  0  0.139425  0.122953  0  1.013119  0
H  H12  1  0.66630972  0.22657906  0.66604842  1  0  0.333238  0  0.906273  0  0  0.310786  0  0.969053  0  0  0.319972  0  0.961637  0  0  0.311683  0.304227  0  0.974471  0
H  H13  1  0.83369024  0.72657512  0.83395187  1  0  0.333227  0  0.906207  0  0  0.310759  0  0.969005  0  0  0.319984  0  0.961521  0  0  0.311677  0.304201  0  0.974421  0
H  H14  1  0.33368598  0.77342370  0.33394914  1  0  0.333246  0  0.906223  0  0  0.310777  0  0.969008  0  0  0.320012  0  0.961507  0  0  0.311675  0.304217  0  0.974425  0
H  H15  1  0.16631408  0.27342042  0.16604966  1  0  0.333291  0  0.906219  0  0  0.310846  0  0.968989  0  0  0.320033  0  0.961573  0  0  0.311704  0.304287  0  0.974403  0
H  H16  1  0.45321812  0.01375893  0.35436207  1  0  0.320037  0  0.921689  0  0  0.293435  0  0.993423  0  0  0.302604  0  0.985872  0  0  0.314494  0.28691  0  0.998876  0
H  H17  1  0.04678619  0.51375487  0.14563931  1  0  0.320023  0  0.921754  0  0  0.293471  0  0.993446  0  0  0.302631  0  0.98591  0  0  0.314534  0.286984  0  0.998837  0
H  H18  1  0.54678189  0.98624303  0.64563748  1  0  0.320073  0  0.921598  0  0  0.293487  0  0.993315  0  0  0.302648  0  0.985781  0  0  0.314517  0.287003  0  0.998705  0
H  H19  1  0.95321526  0.48624388  0.85436115  1  0  0.320052  0  0.921629  0  0  0.293467  0  0.993339  0  0  0.302624  0  0.98581  0  0  0.314515  0.286983  0  0.998726  0
H  H20  1  0.63095216  0.32877631  0.38789702  1  0  0.103549  0  0.958083  0  0  0.113528  0  1.021777  0  0  0.115516  0  1.019357  0  0  0.127952  0.111918  0  1.023624  0
H  H21  1  0.86905282  0.82877144  0.11210398  1  0  0.103558  0  0.958103  0  0  0.113497  0  1.021836  0  0  0.115517  0  1.019379  0  0  0.127968  0.111887  0  1.023685  0
H  H22  1  0.36904641  0.67122644  0.61210161  1  0  0.103468  0  0.958143  0  0  0.113455  0  1.021822  0  0  0.115449  0  1.019393  0  0  0.127946  0.111847  0  1.023667  0
H  H23  1  0.13095149  0.17122651  0.88789755  1  0  0.103491  0  0.958107  0  0  0.113472  0  1.021793  0  0  0.11547  0  1.019361  0  0  0.127952  0.111862  0  1.023643  0
C  C24  1  0.91638385  0.27337167  0.61353111  1  0  0.242335  0  3.621647  0  0  0.174667  0  3.896597  0  0  0.190187  0  3.906616  0  0  0.163681  0.164432  0  3.889808  0
C  C25  1  0.58361469  0.77336777  0.88646830  1  0  0.242512  0  3.621438  0  0  0.174761  0  3.896363  0  0  0.190279  0  3.906381  0  0  0.163689  0.164527  0  3.889568  0
C  C26  1  0.08360900  0.72662868  0.38646691  1  0  0.242421  0  3.621698  0  0  0.174633  0  3.896639  0  0  0.190149  0  3.906663  0  0  0.163661  0.164398  0  3.889843  0
C  C27  1  0.41638676  0.22662617  0.11353292  1  0  0.242418  0  3.621648  0  0  0.174741  0  3.896613  0  0  0.190264  0  3.906635  0  0  0.163657  0.164508  0  3.889811  0
C  C28  1  0.69322158  0.39317306  0.61769367  1  0  0.357168  0  3.799187  0  0  0.319317  0  4.09404  0  0  0.338342  0  4.107503  0  0  0.208774  0.306562  0  4.084602  0
C  C29  1  0.80677556  0.89317236  0.88230717  1  0  0.357146  0  3.799169  0  0  0.319308  0  4.093958  0  0  0.338331  0  4.107425  0  0  0.20881  0.306553  0  4.084521  0
C  C30  1  0.30677270  0.60682970  0.38230602  1  0  0.357158  0  3.799231  0  0  0.319317  0  4.094019  0  0  0.33834  0  4.107487  0  0  0.208812  0.30656  0  4.084578  0
C  C31  1  0.19322876  0.10682479  0.11769511  1  0  0.357233  0  3.799121  0  0  0.31939  0  4.093988  0  0  0.338416  0  4.10745  0  0  0.208847  0.306634  0  4.084548  0
C  C32  1  0.32737645  0.14747061  0.41963431  1  0  0.375998  0  3.794312  0  0  0.335926  0  4.086916  0  0  0.357381  0  4.097881  0  0  0.213471  0.32159  0  4.07915  0
C  C33  1  0.17262932  0.64746731  0.08036731  1  0  0.375669  0  3.794422  0  0  0.33574  0  4.086855  0  0  0.35719  0  4.09782  0  0  0.213456  0.321404  0  4.07909  0
C  C34  1  0.67262500  0.85253054  0.58036691  1  0  0.37589  0  3.794437  0  0  0.335828  0  4.087004  0  0  0.357282  0  4.097969  0  0  0.213427  0.321493  0  4.079243  0
C  C35  1  0.82737212  0.35253063  0.91963239  1  0  0.375811  0  3.794376  0  0  0.335775  0  4.086907  0  0  0.357223  0  4.097875  0  0  0.213453  0.321439  0  4.079142  0
C  C36  1  0.54744118  0.25686632  0.39191603  1  0  0.229672  0  3.691242  0  0  0.167582  0  3.96962  0  0  0.182799  0  3.982728  0  0  0.143539  0.157688  0  3.960577  0
C  C37  1  0.95256523  0.75686464  0.10808660  1  0  0.229682  0  3.691086  0  0  0.167638  0  3.969438  0  0  0.182829  0  3.982527  0  0  0.143536  0.157739  0  3.960402  0
C  C38  1  0.45255884  0.74313564  0.60808352  1  0  0.229759  0  3.691116  0  0  0.167662  0  3.969495  0  0  0.182879  0  3.982597  0  0  0.143527  0.157767  0  3.960452  0
C  C39  1  0.04743621  0.24313491  0.89191386  1  0  0.229749  0  3.691031  0  0  0.167685  0  3.969403  0  0  0.182896  0  3.982506  0  0  0.143548  0.157788  0  3.960367  0
S  S40  1  0.49546266  0.46383044  0.63639069  1  0  -0.456755  0  2.249628  0  0  -0.412048  0  2.644015  0  0  -0.434183  0  2.631744  0  0  -0.17517  -0.396233  0  2.651747  0
S  S41  1  0.00453530  0.96382813  0.86360865  1  0  -0.456706  0  2.249598  0  0  -0.412001  0  2.64396  0  0  -0.434133  0  2.631687  0  0  -0.175152  -0.39619  0  2.65169  0
S  S42  1  0.50453304  0.53617392  0.36360612  1  0  -0.456744  0  2.249704  0  0  -0.412041  0  2.644062  0  0  -0.434175  0  2.631792  0  0  -0.175165  -0.396228  0  2.651789  0
S  S43  1  0.99546472  0.03616902  0.13639317  1  0  -0.456755  0  2.249536  0  0  -0.412035  0  2.643905  0  0  -0.434171  0  2.631638  0  0  -0.175175  -0.396219  0  2.651633  0
S  S44  1  0.90279977  0.36106396  0.24215172  1  0  1.578223  0  5.824542  0  0  1.452972  0  6.358709  0  0  1.509683  0  6.322324  0  0  0.550168  1.413676  0  6.382698  0
S  S45  1  0.59720521  0.86106158  0.25784702  1  0  1.578249  0  5.824492  0  0  1.453007  0  6.35862  0  0  1.509719  0  6.322242  0  0  0.550175  1.413714  0  6.382617  0
S  S46  1  0.09720167  0.63893880  0.75784798  1  0  1.578196  0  5.824545  0  0  1.452923  0  6.358695  0  0  1.50963  0  6.322323  0  0  0.550189  1.41363  0  6.382689  0
S  S47  1  0.40279623  0.13893957  0.74215268  1  0  1.578253  0  5.82445  0  0  1.453027  0  6.358554  0  0  1.509746  0  6.322162  0  0  0.550231  1.413734  0  6.382557  0
S  S48  1  0.13633541  0.08864865  0.45896658  1  0  -0.441629  0  2.110192  0  0  -0.410449  0  2.488487  0  0  -0.428959  0  2.47678  0  0  -0.20826  -0.397411  0  2.496088  0
S  S49  1  0.36366891  0.58864372  0.04103485  1  0  -0.441491  0  2.110152  0  0  -0.410368  0  2.488418  0  0  -0.428878  0  2.476715  0  0  -0.208248  -0.39733  0  2.496018  0
S  S50  1  0.86366604  0.91135251  0.54103464  1  0  -0.441605  0  2.110217  0  0  -0.410454  0  2.488538  0  0  -0.428961  0  2.476828  0  0  -0.208257  -0.397414  0  2.496143  0
S  S51  1  0.63633110  0.41135342  0.95896470  1  0  -0.44157  0  2.110184  0  0  -0.4104  0  2.488453  0  0  -0.428913  0  2.476752  0  0  -0.208252  -0.397356  0  2.496052  0
N  N52  1  0.97296150  0.36381294  0.57698280  1  0  -0.245335  0  3.151437  0  0  -0.17821  0  3.438784  0  0  -0.194749  0  3.4552  0  0  -0.247735  -0.166994  0  3.427361  0
N  N53  1  0.52703707  0.86380987  0.92301894  1  0  -0.245477  0  3.151341  0  0  -0.178325  0  3.438679  0  0  -0.194872  0  3.455113  0  0  -0.247773  -0.167117  0  3.42728  0
N  N54  1  0.02703278  0.63619061  0.42301613  1  0  -0.245385  0  3.151398  0  0  -0.178238  0  3.438764  0  0  -0.194783  0  3.455193  0  0  -0.247728  -0.167032  0  3.427362  0
N  N55  1  0.47296582  0.13618568  0.07698243  1  0  -0.245346  0  3.151395  0  0  -0.178207  0  3.438736  0  0  -0.194749  0  3.45515  0  0  -0.247698  -0.166997  0  3.427331  0
N  N56  1  0.83272782  0.43919310  0.57868093  1  0  -0.323037  0  3.10332  0  0  -0.262653  0  3.383833  0  0  -0.279971  0  3.399817  0  0  -0.251746  -0.250865  0  3.37285  0
N  N57  1  0.66727077  0.93919002  0.92132009  1  0  -0.322987  0  3.103198  0  0  -0.262619  0  3.383695  0  0  -0.279935  0  3.399666  0  0  -0.251742  -0.250837  0  3.372716  0
N  N58  1  0.16726503  0.56080885  0.42131633  1  0  -0.323011  0  3.103255  0  0  -0.262619  0  3.383675  0  0  -0.279934  0  3.399644  0  0  -0.251762  -0.250845  0  3.37272  0
N  N59  1  0.33273212  0.06080472  0.07868204  1  0  -0.323074  0  3.103454  0  0  -0.262669  0  3.383896  0  0  -0.279988  0  3.399884  0  0  -0.251779  -0.250887  0  3.372917  0
N  N60  1  0.74394565  0.28829336  0.63982657  1  0  -0.344097  0  3.343076  0  0  -0.27493  0  3.577637  0  0  -0.294197  0  3.587976  0  0  -0.362904  -0.262179  0  3.570783  0
N  N61  1  0.75605576  0.78829104  0.86017316  1  0  -0.344107  0  3.342949  0  0  -0.274895  0  3.577463  0  0  -0.294181  0  3.587751  0  0  -0.362882  -0.262143  0  3.570605  0
N  N62  1  0.25605007  0.71170940  0.36017328  1  0  -0.344164  0  3.343091  0  0  -0.274923  0  3.577588  0  0  -0.294216  0  3.587867  0  0  -0.36294  -0.262169  0  3.570728  0
N  N63  1  0.24394855  0.21170530  0.13982685  1  0  -0.344164  0  3.343098  0  0  -0.275015  0  3.577683  0  0  -0.294288  0  3.588028  0  0  -0.362922  -0.262258  0  3.570817  0
N  N64  1  0.59878612  0.16179922  0.36118562  1  0  -0.256498  0  3.101677  0  0  -0.201914  0  3.387393  0  0  -0.218164  0  3.403798  0  0  -0.246345  -0.191047  0  3.37623  0
N  N65  1  0.90121884  0.66179516  0.13881679  1  0  -0.256494  0  3.101447  0  0  -0.201892  0  3.387183  0  0  -0.218144  0  3.403589  0  0  -0.246363  -0.191026  0  3.37603  0
N  N66  1  0.40121390  0.83820354  0.63881468  1  0  -0.25653  0  3.101554  0  0  -0.201961  0  3.387275  0  0  -0.218209  0  3.403675  0  0  -0.246361  -0.191096  0  3.376125  0
N  N67  1  0.09878261  0.33820359  0.86118291  1  0  -0.256516  0  3.101511  0  0  -0.201981  0  3.387259  0  0  -0.218235  0  3.403657  0  0  -0.246385  -0.191116  0  3.376109  0
N  N68  1  0.45973712  0.09390755  0.37927811  1  0  -0.212881  0  3.377824  0  0  -0.151764  0  3.610117  0  0  -0.166492  0  3.626144  0  0  -0.265588  -0.142136  0  3.599609  0
N  N69  1  0.04026721  0.59390268  0.12072408  1  0  -0.212602  0  3.377632  0  0  -0.151611  0  3.609942  0  0  -0.166321  0  3.625958  0  0  -0.265558  -0.142011  0  3.599396  0
N  N70  1  0.54026433  0.90609360  0.62072235  1  0  -0.212804  0  3.377704  0  0  -0.151674  0  3.609944  0  0  -0.166399  0  3.625981  0  0  -0.265546  -0.142076  0  3.5994  0
N  N71  1  0.95973279  0.40609447  0.87927471  1  0  -0.212796  0  3.377694  0  0  -0.151661  0  3.609938  0  0  -0.166368  0  3.625951  0  0  -0.265567  -0.142059  0  3.599387  0
N  N72  1  0.38249372  0.25240241  0.42815448  1  0  -0.465579  0  3.162456  0  0  -0.380243  0  3.444157  0  0  -0.405833  0  3.456227  0  0  -0.354547  -0.362928  0  3.435503  0
N  N73  1  0.11751208  0.75239911  0.07184720  1  0  -0.465646  0  3.162582  0  0  -0.380342  0  3.444229  0  0  -0.405934  0  3.45631  0  0  -0.354598  -0.363028  0  3.435575  0
N  N74  1  0.61750629  0.74759955  0.57184507  1  0  -0.465581  0  3.162464  0  0  -0.380252  0  3.444163  0  0  -0.405842  0  3.456233  0  0  -0.354551  -0.362936  0  3.435505  0
N  N75  1  0.88248936  0.24759884  0.92815174  1  0  -0.465568  0  3.162434  0  0  -0.380262  0  3.444128  0  0  -0.405854  0  3.456206  0  0  -0.354546  -0.362945  0  3.435471  0
O  O76  1  0.82839093  0.25802511  0.19075291  1  0  -0.767714  0  2.067562  0  0  -0.700112  0  2.354504  0  0  -0.726023  0  2.338072  0  0  -0.376621  -0.681588  0  2.365112  0
O  O77  1  0.67161119  0.75802196  0.30924925  1  0  -0.767693  0  2.067465  0  0  -0.700128  0  2.354472  0  0  -0.726048  0  2.338055  0  0  -0.376583  -0.681555  0  2.36495  0
O  O78  1  0.17161195  0.74197685  0.80924846  1  0  -0.767658  0  2.067461  0  0  -0.700099  0  2.354489  0  0  -0.726022  0  2.338076  0  0  -0.376603  -0.681522  0  2.364966  0
O  O79  1  0.32838883  0.24197920  0.69075181  1  0  -0.767701  0  2.067444  0  0  -0.700133  0  2.354444  0  0  -0.726055  0  2.338022  0  0  -0.376619  -0.681554  0  2.364907  0
O  O80  1  0.07669083  0.39303428  0.20166232  1  0  -0.713289  0  1.937959  0  0  -0.658661  0  2.178403  0  0  -0.679523  0  2.162345  0  0  -0.356906  -0.643981  0  2.189138  0
O  O81  1  0.42331213  0.89303272  0.29833838  1  0  -0.713274  0  1.937945  0  0  -0.658606  0  2.178356  0  0  -0.679481  0  2.162291  0  0  -0.356903  -0.643915  0  2.18909  0
O  O82  1  0.92331348  0.60696527  0.79833844  1  0  -0.713275  0  1.938037  0  0  -0.658603  0  2.17847  0  0  -0.679475  0  2.162408  0  0  -0.35691  -0.643931  0  2.189206  0
O  O83  1  0.57668788  0.10696763  0.70166117  1  0  -0.713302  0  1.937916  0  0  -0.658644  0  2.178335  0  0  -0.679499  0  2.162271  0  0  -0.356894  -0.643967  0  2.189066  0
O  O84  1  0.95267972  0.34089621  0.35561313  1  0  -0.763713  0  2.057382  0  0  -0.69844  0  2.345567  0  0  -0.723206  0  2.327819  0  0  -0.376571  -0.680813  0  2.357154  0
O  O85  1  0.54732671  0.84089215  0.14439030  1  0  -0.763697  0  2.057402  0  0  -0.698425  0  2.345595  0  0  -0.723196  0  2.327859  0  0  -0.37655  -0.680801  0  2.357178  0
O  O86  1  0.04732173  0.65910895  0.64438808  1  0  -0.763668  0  2.057315  0  0  -0.698386  0  2.345497  0  0  -0.723157  0  2.327763  0  0  -0.376555  -0.680758  0  2.357077  0
O  O87  1  0.45267044  0.15910579  0.85560970  1  0  -0.763712  0  2.057393  0  0  -0.698471  0  2.345615  0  0  -0.723239  0  2.327867  0  0  -0.376596  -0.680845  0  2.357199  0
O  O88  1  0.75321736  0.44412654  0.21830480  1  0  -0.731186  0  2.063699  0  0  -0.661392  0  2.350316  0  0  -0.685174  0  2.330281  0  0  -0.376602  -0.644557  0  2.363539  0
O  O89  1  0.74678623  0.94412418  0.28169838  1  0  -0.7312  0  2.063718  0  0  -0.661437  0  2.35037  0  0  -0.68523  0  2.330343  0  0  -0.376637  -0.644605  0  2.363581  0
O  O90  1  0.24678552  0.55587461  0.78169581  1  0  -0.73123  0  2.063694  0  0  -0.66142  0  2.350304  0  0  -0.685195  0  2.330263  0  0  -0.376624  -0.644606  0  2.36356  0
O  O91  1  0.25321377  0.05587618  0.71829965  1  0  -0.731186  0  2.063675  0  0  -0.661412  0  2.350299  0  0  -0.685208  0  2.330271  0  0  -0.376637  -0.644579  0  2.363512  0
