# generated using pymatgen
data_CdH12C13(N3O2)2
_symmetry_space_group_name_H-M   'P 1'
_cell_length_a   7.99521911
_cell_length_b   8.33097360
_cell_length_c   11.59157424
_cell_angle_alpha   90.92649652
_cell_angle_beta   103.87991276
_cell_angle_gamma   100.43866895
_symmetry_Int_Tables_number   1
_chemical_formula_structural   CdH12C13(N3O2)2
_chemical_formula_sum   'Cd2 H24 C26 N12 O8'
_cell_volume   735.70178690
_cell_formula_units_Z   2
loop_
 _symmetry_equiv_pos_site_id
 _symmetry_equiv_pos_as_xyz
  1  'x, y, z'
loop_
 _atom_site_type_symbol
 _atom_site_label
 _atom_site_symmetry_multiplicity
 _atom_site_fract_x
 _atom_site_fract_y
 _atom_site_fract_z
 _atom_site_occupancy
 _atom_site_hle17_bader_spin_density
 _atom_site_hle17_ddec_charge
 _atom_site_hle17_ddec_spin_density
 _atom_site_hle17_ddec_sum_bond_order
 _atom_site_hle17_magmom
 _atom_site_hse06_10hf_bader_spin_density
 _atom_site_hse06_10hf_ddec_charge
 _atom_site_hse06_10hf_ddec_spin_density
 _atom_site_hse06_10hf_ddec_sum_bond_order
 _atom_site_hse06_10hf_magmom
 _atom_site_hse06_bader_spin_density
 _atom_site_hse06_ddec_charge
 _atom_site_hse06_ddec_spin_density
 _atom_site_hse06_ddec_sum_bond_order
 _atom_site_hse06_magmom
 _atom_site_pbe_bader_spin_density
 _atom_site_pbe_cm5_charge
 _atom_site_pbe_ddec_charge
 _atom_site_pbe_ddec_spin_density
 _atom_site_pbe_ddec_sum_bond_order
 _atom_site_pbe_magmom
Cd  Cd0  1  0.10523765  0.15103905  0.15685269  1  0  1.117436  0  1.696707  0  0  0.930069  0  2.14937  0  0  0.988037  0  2.096439  0  0  0.764864  0.888796  0  2.185707  0
Cd  Cd1  1  0.89476285  0.84896184  0.84314745  1  0  1.117448  0  1.696721  0  0  0.930074  0  2.149393  0  0  0.988025  0  2.096494  0  0  0.764843  0.888796  0  2.185728  0
H  H2  1  0.08219166  0.76992866  0.52971906  1  0  0.301492  0  0.92335  0  0  0.269407  0  1.01226  0  0  0.27827  0  1.004726  0  0  0.31192  0.263069  0  1.017788  0
H  H3  1  0.91780730  0.23007102  0.47028082  1  0  0.301463  0  0.923382  0  0  0.269377  0  1.01229  0  0  0.278239  0  1.004754  0  0  0.311916  0.263036  0  1.017826  0
H  H4  1  0.06507076  0.59023889  0.13366996  1  0  0.150165  0  0.897036  0  0  0.158241  0  0.956421  0  0  0.16119  0  0.952218  0  0  0.16089  0.155785  0  0.959168  0
H  H5  1  0.93493052  0.40975956  0.86633116  1  0  0.150166  0  0.897027  0  0  0.158242  0  0.956418  0  0  0.16119  0  0.952216  0  0  0.160891  0.155788  0  0.959166  0
H  H6  1  0.79294785  0.78131661  0.30621440  1  0  0.115644  0  0.946379  0  0  0.123976  0  1.014113  0  0  0.125596  0  1.013527  0  0  0.125008  0.122834  0  1.013858  0
H  H7  1  0.20705291  0.21868550  0.69378494  1  0  0.115661  0  0.946382  0  0  0.123997  0  1.014101  0  0  0.125617  0  1.013513  0  0  0.12501  0.122853  0  1.013849  0
H  H8  1  0.90427969  0.82646019  0.19147599  1  0  0.142316  0  0.91822  0  0  0.15242  0  0.980676  0  0  0.154669  0  0.978078  0  0  0.134255  0.150716  0  0.981991  0
H  H9  1  0.09572184  0.17353947  0.80852345  1  0  0.142296  0  0.918256  0  0  0.152411  0  0.98069  0  0  0.154654  0  0.978099  0  0  0.134236  0.150721  0  0.981989  0
H  H10  1  0.37627633  0.93240046  0.71314100  1  0  0.12614  0  0.955025  0  0  0.133761  0  1.01693  0  0  0.137755  0  1.013679  0  0  0.108927  0.130793  0  1.019516  0
H  H11  1  0.62372340  0.06759676  0.28685812  1  0  0.126112  0  0.954977  0  0  0.133723  0  1.016903  0  0  0.137705  0  1.013667  0  0  0.108932  0.130758  0  1.019487  0
H  H12  1  0.60519314  0.18839123  0.75011191  1  0  0.085792  0  0.973097  0  0  0.094006  0  1.041988  0  0  0.09628  0  1.04153  0  0  0.094208  0.092287  0  1.042517  0
H  H13  1  0.39480557  0.81160723  0.24988964  1  0  0.085791  0  0.973093  0  0  0.094  0  1.041994  0  0  0.096273  0  1.041536  0  0  0.09421  0.092284  0  1.042518  0
H  H14  1  0.61600174  0.38854933  0.59456759  1  0  0.083838  0  0.962163  0  0  0.094751  0  1.023631  0  0  0.096966  0  1.023709  0  0  0.093454  0.093174  0  1.023643  0
H  H15  1  0.38399723  0.61145037  0.40543488  1  0  0.083816  0  0.962091  0  0  0.094745  0  1.023546  0  0  0.096959  0  1.023626  0  0  0.093447  0.09317  0  1.023555  0
H  H16  1  0.41157295  0.33092371  0.39222630  1  0  0.117633  0  0.96751  0  0  0.12571  0  1.031408  0  0  0.129231  0  1.028992  0  0  0.104  0.123131  0  1.033297  0
H  H17  1  0.58842757  0.66907720  0.60777644  1  0  0.11764  0  0.967524  0  0  0.125725  0  1.031414  0  0  0.129246  0  1.028997  0  0  0.104003  0.123146  0  1.033303  0
H  H18  1  0.47710908  0.04993760  0.12289374  1  0  0.109758  0  0.970534  0  0  0.122505  0  1.033802  0  0  0.124974  0  1.032916  0  0  0.101175  0.120774  0  1.034489  0
H  H19  1  0.52289067  0.95006575  0.87710803  1  0  0.109821  0  0.970546  0  0  0.122491  0  1.033871  0  0  0.124959  0  1.032985  0  0  0.101157  0.120761  0  1.034554  0
H  H20  1  0.48602754  0.85095170  0.07609196  1  0  0.097986  0  0.928187  0  0  0.117868  0  0.982885  0  0  0.119018  0  0.983468  0  0  0.100518  0.117061  0  0.982549  0
H  H21  1  0.51397349  0.14905165  0.92391002  1  0  0.097986  0  0.928219  0  0  0.117865  0  0.982888  0  0  0.119015  0  0.983468  0  0  0.100517  0.117058  0  0.982559  0
H  H22  1  0.55312238  0.58759950  0.12525938  1  0  0.094349  0  0.927285  0  0  0.112286  0  0.985834  0  0  0.11409  0  0.985506  0  0  0.099019  0.111035  0  0.986098  0
H  H23  1  0.44687529  0.41240018  0.87473856  1  0  0.094372  0  0.927326  0  0  0.112306  0  0.985879  0  0  0.114112  0  0.98555  0  0  0.099024  0.111049  0  0.98615  0
H  H24  1  0.63715173  0.42057574  0.08568807  1  0  0.104439  0  0.926824  0  0  0.118958  0  0.986097  0  0  0.121247  0  0.985423  0  0  0.098602  0.117316  0  0.986679  0
H  H25  1  0.36284646  0.57942638  0.91430998  1  0  0.104422  0  0.926814  0  0  0.118956  0  0.986084  0  0  0.121245  0  0.98541  0  0  0.098593  0.117314  0  0.986661  0
C  C26  1  0.02396102  0.53948512  0.21030413  1  0  0.167166  0  3.589172  0  0  0.088869  0  3.858212  0  0  0.112095  0  3.872711  0  0  0.189634  0.080892  0  3.850819  0
C  C27  1  0.97603922  0.46051455  0.78969596  1  0  0.167162  0  3.589208  0  0  0.088846  0  3.858263  0  0  0.112065  0  3.872756  0  0  0.189617  0.080868  0  3.850869  0
C  C28  1  0.91815872  0.78485705  0.28185972  1  0  -0.121012  0  3.62372  0  0  -0.19115  0  3.860533  0  0  -0.179493  0  3.86984  0  0  -0.029082  -0.192026  0  3.856356  0
C  C29  1  0.08184281  0.21514261  0.71813885  1  0  -0.121039  0  3.623781  0  0  -0.191137  0  3.8605  0  0  -0.179481  0  3.869795  0  0  -0.029032  -0.192023  0  3.856322  0
C  C30  1  0.06489159  0.89659419  0.36741331  1  0  0.38947  0  3.69259  0  0  0.354316  0  3.976634  0  0  0.373135  0  3.986674  0  0  0.233374  0.342348  0  3.967507  0
C  C31  1  0.93511046  0.10340791  0.63258624  1  0  0.389485  0  3.692573  0  0  0.354298  0  3.976658  0  0  0.373116  0  3.986695  0  0  0.23334  0.342329  0  3.967533  0
C  C32  1  0.26564365  0.99349496  0.53323554  1  0  0.153912  0  3.788256  0  0  0.148156  0  4.026198  0  0  0.151718  0  4.049727  0  0  0.092893  0.145658  0  4.010533  0
C  C33  1  0.73435916  0.00650468  0.46676411  1  0  0.153941  0  3.788222  0  0  0.148181  0  4.02619  0  0  0.151738  0  4.049708  0  0  0.09292  0.145682  0  4.010526  0
C  C34  1  0.38270116  0.02042336  0.64529970  1  0  -0.144681  0  3.721518  0  0  -0.16027  0  3.969315  0  0  -0.163316  0  3.98873  0  0  -0.091701  -0.158184  0  3.956425  0
C  C35  1  0.61729857  0.97957386  0.35470028  1  0  -0.144692  0  3.721374  0  0  -0.160273  0  3.969181  0  0  -0.163307  0  3.988599  0  0  -0.091741  -0.158189  0  3.956298  0
C  C36  1  0.50796232  0.16479242  0.66483465  1  0  -0.080069  0  3.779678  0  0  -0.099744  0  4.042906  0  0  -0.102195  0  4.066231  0  0  -0.101518  -0.098049  0  4.027219  0
C  C37  1  0.49203896  0.83520602  0.33516646  1  0  -0.080107  0  3.77969  0  0  -0.099775  0  4.04291  0  0  -0.102227  0  4.066234  0  0  -0.101532  -0.098086  0  4.027228  0
C  C38  1  0.51537677  0.27750421  0.57572572  1  0  -0.081459  0  3.789328  0  0  -0.100143  0  4.049981  0  0  -0.102696  0  4.073089  0  0  -0.105419  -0.098366  0  4.034306  0
C  C39  1  0.48462348  0.72249547  0.42427524  1  0  -0.081377  0  3.789142  0  0  -0.100061  0  4.049791  0  0  -0.102613  0  4.072899  0  0  -0.105401  -0.098291  0  4.034122  0
C  C40  1  0.40045238  0.24881528  0.46322750  1  0  -0.134101  0  3.725357  0  0  -0.15482  0  3.977087  0  0  -0.157202  0  3.996859  0  0  -0.093046  -0.153111  0  3.963719  0
C  C41  1  0.59955070  0.75118560  0.53677393  1  0  -0.134173  0  3.725303  0  0  -0.154896  0  3.977065  0  0  -0.157284  0  3.99683  0  0  -0.093068  -0.153188  0  3.963698  0
C  C42  1  0.27488901  0.10378397  0.44224449  1  0  0.146272  0  3.82414  0  0  0.144558  0  4.06912  0  0  0.147496  0  4.094275  0  0  0.084609  0.142471  0  4.052302  0
C  C43  1  0.72511252  0.89621568  0.55775495  1  0  0.146387  0  3.824097  0  0  0.144636  0  4.069133  0  0  0.147592  0  4.094263  0  0  0.084651  0.142551  0  4.052309  0
C  C44  1  0.25112473  0.93108884  0.99427195  1  0  0.693925  0  3.850624  0  0  0.646972  0  4.145677  0  0  0.680773  0  4.139356  0  0  0.198851  0.62393  0  4.149208  0
C  C45  1  0.74887476  0.06891329  0.00572976  1  0  0.693966  0  3.850591  0  0  0.646971  0  4.145662  0  0  0.680769  0  4.139344  0  0  0.198832  0.623925  0  4.149197  0
C  C46  1  0.44801024  0.96605501  0.04390860  1  0  -0.243338  0  3.699128  0  0  -0.2823  0  3.945811  0  0  -0.287631  0  3.954354  0  0  -0.17164  -0.278657  0  3.940024  0
C  C47  1  0.55198950  0.03394834  0.95609231  1  0  -0.243498  0  3.699253  0  0  -0.282328  0  3.945891  0  0  -0.287653  0  3.954427  0  0  -0.171628  -0.278685  0  3.940103  0
C  C48  1  0.37095806  0.36314588  0.09738571  1  0  0.672567  0  3.879904  0  0  0.631395  0  4.169763  0  0  0.663953  0  4.16644  0  0  0.187418  0.609314  0  4.171057  0
C  C49  1  0.62904090  0.63685379  0.90261245  1  0  0.672588  0  3.87957  0  0  0.631398  0  4.169477  0  0  0.663958  0  4.166151  0  0  0.187395  0.609325  0  4.170762  0
C  C50  1  0.52046992  0.47711024  0.06442751  1  0  -0.228957  0  3.703724  0  0  -0.268814  0  3.957136  0  0  -0.273764  0  3.965208  0  0  -0.168387  -0.265379  0  3.951422  0
C  C51  1  0.47952903  0.52288944  0.93557151  1  0  -0.228962  0  3.703668  0  0  -0.268844  0  3.95711  0  0  -0.273795  0  3.965182  0  0  -0.168363  -0.265403  0  3.95139  0
N  N52  1  0.03250689  0.39206296  0.25030243  1  0  -0.265287  0  3.073417  0  0  -0.217659  0  3.377782  0  0  -0.233769  0  3.387623  0  0  -0.207216  -0.206583  0  3.368277  0
N  N53  1  0.96749464  0.60793670  0.74969701  1  0  -0.265313  0  3.073491  0  0  -0.217678  0  3.37786  0  0  -0.233787  0  3.387701  0  0  -0.207218  -0.206598  0  3.368346  0
N  N54  1  0.96068801  0.38255307  0.34581935  1  0  -0.04589  0  2.979215  0  0  -0.035659  0  3.285317  0  0  -0.033718  0  3.290967  0  0  -0.058774  -0.036427  0  3.279061  0
N  N55  1  0.03931121  0.61744783  0.65418144  1  0  -0.045873  0  2.979205  0  0  -0.03565  0  3.285316  0  0  -0.033711  0  3.290967  0  0  -0.058773  -0.03642  0  3.279053  0
N  N56  1  0.90981414  0.51761949  0.36506997  1  0  -0.087676  0  2.841353  0  0  -0.109654  0  3.122957  0  0  -0.097047  0  3.137193  0  0  -0.064593  -0.111005  0  3.117202  0
N  N57  1  0.09018611  0.48238019  0.63493099  1  0  -0.087664  0  2.841334  0  0  -0.109645  0  3.122935  0  0  -0.097047  0  3.137168  0  0  -0.064581  -0.110991  0  3.117179  0
N  N58  1  0.94874351  0.61759042  0.28078761  1  0  0.048786  0  3.539505  0  0  0.165413  0  3.732143  0  0  0.12291  0  3.793199  0  0  -0.110548  0.171966  0  3.718287  0
N  N59  1  0.05125673  0.38240925  0.71921248  1  0  0.048785  0  3.539502  0  0  0.165424  0  3.732117  0  0  0.122945  0  3.793146  0  0  -0.110558  0.171971  0  3.718272  0
N  N60  1  0.12943803  0.86513683  0.48313095  1  0  -0.380615  0  3.367965  0  0  -0.322938  0  3.607811  0  0  -0.341223  0  3.619443  0  0  -0.372525  -0.310516  0  3.599598  0
N  N61  1  0.87056350  0.13486282  0.51686762  1  0  -0.380561  0  3.367974  0  0  -0.322864  0  3.607815  0  0  -0.341167  0  3.6195  0  0  -0.37251  -0.310442  0  3.599609  0
N  N62  1  0.14876951  0.03798830  0.33967811  1  0  -0.471047  0  3.133206  0  0  -0.408235  0  3.41408  0  0  -0.43118  0  3.428311  0  0  -0.346635  -0.392688  0  3.404176  0
N  N63  1  0.85123202  0.96201136  0.66032220  1  0  -0.471113  0  3.133202  0  0  -0.408285  0  3.414105  0  0  -0.431233  0  3.428327  0  0  -0.346635  -0.392734  0  3.404193  0
O  O64  1  0.15298498  0.90649413  0.06721208  1  0  -0.691815  0  1.971163  0  0  -0.63035  0  2.229902  0  0  -0.657399  0  2.216456  0  0  -0.352506  -0.611305  0  2.238548  0
O  O65  1  0.84701450  0.09350800  0.93278877  1  0  -0.691874  0  1.971167  0  0  -0.63037  0  2.229869  0  0  -0.657418  0  2.216425  0  0  -0.352505  -0.611323  0  2.23852  0
O  O66  1  0.19101594  0.92597493  0.88166363  1  0  -0.629939  0  1.993278  0  0  -0.559946  0  2.239383  0  0  -0.589872  0  2.231211  0  0  -0.326503  -0.539096  0  2.244353  0
O  O67  1  0.80898328  0.07402597  0.11833631  1  0  -0.629892  0  1.99326  0  0  -0.559895  0  2.239393  0  0  -0.589821  0  2.231222  0  0  -0.326484  -0.539042  0  2.244364  0
O  O68  1  0.21564666  0.34522401  0.02999424  1  0  -0.665133  0  1.914527  0  0  -0.602616  0  2.15001  0  0  -0.631517  0  2.141626  0  0  -0.346117  -0.582324  0  2.15497  0
O  O69  1  0.78435332  0.65477443  0.97000494  1  0  -0.665191  0  1.914408  0  0  -0.602648  0  2.149884  0  0  -0.631546  0  2.141494  0  0  -0.346137  -0.582363  0  2.154842  0
O  O70  1  0.40579515  0.28800166  0.19256873  1  0  -0.648016  0  1.946154  0  0  -0.589319  0  2.18287  0  0  -0.61735  0  2.174201  0  0  -0.337387  -0.569608  0  2.188033  0
O  O71  1  0.59420433  0.71200046  0.80742953  1  0  -0.648029  0  1.946033  0  0  -0.589336  0  2.182774  0  0  -0.617366  0  2.174106  0  0  -0.337393  -0.569633  0  2.187938  0
