# generated using pymatgen
data_Co2H12(C5O3)3
_symmetry_space_group_name_H-M   'P 1'
_cell_length_a   7.17723104
_cell_length_b   11.06694646
_cell_length_c   10.98216293
_cell_angle_alpha   90.02326886
_cell_angle_beta   107.97143691
_cell_angle_gamma   106.24204577
_symmetry_Int_Tables_number   1
_chemical_formula_structural   Co2H12(C5O3)3
_chemical_formula_sum   'Co4 H24 C30 O18'
_cell_volume   793.03874087
_cell_formula_units_Z   2
loop_
 _symmetry_equiv_pos_site_id
 _symmetry_equiv_pos_as_xyz
  1  'x, y, z'
loop_
 _atom_site_type_symbol
 _atom_site_label
 _atom_site_symmetry_multiplicity
 _atom_site_fract_x
 _atom_site_fract_y
 _atom_site_fract_z
 _atom_site_occupancy
 _atom_site_hle17_ddec_charge
 _atom_site_hle17_ddec_spin_density
 _atom_site_hle17_ddec_sum_bond_order
 _atom_site_hle17_magmom
 _atom_site_hse06_10hf_ddec_charge
 _atom_site_hse06_10hf_ddec_spin_density
 _atom_site_hse06_10hf_ddec_sum_bond_order
 _atom_site_hse06_10hf_magmom
 _atom_site_hse06_ddec_charge
 _atom_site_hse06_ddec_spin_density
 _atom_site_hse06_ddec_sum_bond_order
 _atom_site_hse06_magmom
 _atom_site_pbe_cm5_charge
 _atom_site_pbe_ddec_charge
 _atom_site_pbe_ddec_spin_density
 _atom_site_pbe_ddec_sum_bond_order
 _atom_site_pbe_magmom
Co  Co0  1  0.62189754  0.41885882  0.09521475  1  1.154025  -2.844537  1.902316  -2.575  1.146425  -2.804204  2.296026  -2.634  1.219309  -2.877084  2.225647  -2.72  0.636785  1.081729  -2.692678  2.350884  -2.508
Co  Co1  1  0.37667124  0.58004196  0.90425970  1  1.154461  2.813611  1.890118  2.594  1.151151  2.818587  2.280613  2.661  1.222296  2.867679  2.210394  2.733  0.638601  1.089329  2.756957  2.335219  2.58
Co  Co2  1  0.09826351  0.41827861  0.09070886  1  1.138921  2.822755  1.86038  2.602  1.120981  2.824525  2.252952  2.663  1.193568  2.870478  2.18289  2.733  0.630198  1.060116  2.766308  2.311915  2.584
Co  Co3  1  0.90075675  0.58212385  0.90813338  1  1.133818  2.824656  1.859242  2.605  1.121805  2.833738  2.248111  2.673  1.193751  2.8742  2.178365  2.738  0.629709  1.058379  2.785455  2.308732  2.603
H  H4  1  0.74681283  0.34950171  0.92875623  1  0.423222  -0.000626  0.825874  -0.001  0.406733  -0.000299  0.885332  0.0  0.415033  -0.000414  0.879067  -0.001  0.313161  0.40251  0.00012  0.886485  0.0
H  H5  1  0.25001428  0.65225151  0.07443037  1  0.426857  -0.000915  0.825978  -0.002  0.409566  0.000395  0.886279  0.001  0.418258  -8.2e-05  0.878726  0.0  0.310827  0.404207  0.000946  0.890005  0.002
H  H6  1  0.35704336  0.31288857  0.21985771  1  0.414793  7.4e-05  0.90137  0.0  0.381546  0.000156  0.973554  0.0  0.394802  0.000123  0.955114  0.0  0.291884  0.372155  0.000176  0.986469  0.0
H  H7  1  0.64043827  0.68623611  0.77696298  1  0.416121  -0.000408  0.900819  -0.001  0.38311  -5.2e-05  0.971166  0.0  0.396187  -0.000191  0.952938  0.0  0.292614  0.37377  0.000101  0.984066  0.0
H  H8  1  0.45468269  0.46716850  0.26680547  1  0.440778  -0.00028  0.792468  0.0  0.424663  -0.000279  0.845172  0.0  0.434823  -0.000223  0.834076  0.0  0.331499  0.41744  -0.000259  0.852496  0.0
H  H9  1  0.54722555  0.53270095  0.73030361  1  0.439661  -0.000838  0.794617  -0.001  0.424264  -0.000392  0.846418  0.0  0.434316  -0.000522  0.835262  0.0  0.330334  0.416715  -0.000221  0.85452  0.0
H  H10  1  0.72487143  0.21672636  0.13999809  1  0.424435  7.5e-05  0.880297  0.001  0.392475  -0.000271  0.946624  0.0  0.404205  -0.000255  0.929687  0.0  0.291479  0.38425  -0.000218  0.958389  0.0
H  H11  1  0.27494658  0.78250401  0.85886379  1  0.425102  -0.000154  0.879243  -0.001  0.393438  0.000266  0.945218  0.0  0.405142  0.000106  0.928297  0.0  0.291971  0.385084  0.000371  0.957161  0.0
H  H12  1  0.50710431  0.18194824  0.16325026  1  0.430065  -0.000108  0.834005  0.0  0.407994  -0.000394  0.898763  0.0  0.416404  -0.000229  0.886645  0.0  0.310428  0.402352  -0.00053  0.905665  0.0
H  H13  1  0.49061505  0.81616151  0.83283259  1  0.430603  0.000123  0.836982  0.0  0.408173  0.000433  0.900108  0.0  0.416678  0.000261  0.887862  0.0  0.309781  0.40207  0.000587  0.908862  0.001
H  H14  1  0.46730347  0.26871522  0.76053025  1  0.097077  4.2e-05  0.950479  0.0  0.106172  -5e-06  1.01542  0.0  0.110656  -1.8e-05  1.011011  0.0  0.104374  0.102288  1.2e-05  1.019401  0.0
H  H15  1  0.53508836  0.73129138  0.24097912  1  0.096964  -7.2e-05  0.950658  0.0  0.106979  -5.7e-05  1.014538  0.0  0.11128  -8e-05  1.010313  0.0  0.104677  0.103214  -1e-05  1.018432  0.0
H  H16  1  0.43191806  0.07964710  0.62575567  1  0.090994  9e-06  0.966172  0.0  0.101646  2.7e-05  1.029382  0.0  0.104078  1.7e-05  1.029133  0.0  0.101226  0.099981  4.1e-05  1.02964  0.0
H  H17  1  0.57220542  0.92022262  0.37672320  1  0.09052  3.9e-05  0.966817  0.0  0.10145  2.9e-05  1.029757  0.0  0.103895  2e-05  1.029531  0.0  0.100888  0.099626  4.5e-05  1.030191  0.0
H  H18  1  0.96298147  0.05925678  0.88085618  1  0.113197  7.6e-05  0.93166  0.0  0.121956  4e-05  0.992334  0.0  0.12614  1.2e-05  0.988973  0.0  0.110043  0.118714  8.4e-05  0.995061  0.0
H  H19  1  0.03745204  0.94084962  0.11908401  1  0.113149  4.9e-05  0.932427  0.0  0.121795  4.5e-05  0.993135  0.0  0.12598  9e-06  0.989773  0.0  0.109939  0.118538  9.9e-05  0.995897  0.0
H  H20  1  0.46658092  0.89215960  0.59313442  1  0.09386  -2e-05  0.968453  0.0  0.101509  -1.4e-05  1.035824  0.0  0.105207  -7e-06  1.033261  0.0  0.098099  0.098886  -2.1e-05  1.037747  0.0
H  H21  1  0.53442214  0.10702733  0.40679804  1  0.093914  2.2e-05  0.966312  0.0  0.101667  3e-05  1.033489  0.0  0.1054  1.8e-05  1.030902  0.0  0.098161  0.098922  5.3e-05  1.03555  0.0
H  H22  1  0.39922965  0.71585270  0.43160939  1  0.089888  0.00013  0.955822  0.0  0.100661  9.9e-05  1.018279  0.0  0.103797  5.6e-05  1.01591  0.0  0.099012  0.098303  0.00014  1.020242  0.0
H  H23  1  0.59971155  0.28251236  0.56871718  1  0.090572  0.000141  0.956711  0.0  0.101438  9.6e-05  1.01881  0.0  0.104547  5.3e-05  1.016472  0.0  0.099295  0.09897  0.000147  1.021015  0.0
H  H24  1  0.76657877  0.59653878  0.40825557  1  0.087887  -1.8e-05  0.954496  0.0  0.099093  4e-06  1.015364  0.0  0.103002  4.4e-05  1.012115  0.0  0.100516  0.095858  -2.9e-05  1.018071  0.0
H  H25  1  0.23284039  0.40394203  0.59353094  1  0.087826  -3.2e-05  0.955585  0.0  0.099586  -9.1e-05  1.015643  0.0  0.103465  -0.00012  1.012439  0.0  0.100883  0.096361  -3.4e-05  1.018484  0.0
H  H26  1  0.82455095  0.77838192  0.55878778  1  0.089336  2.4e-05  0.967244  0.0  0.1017  1.2e-05  1.025799  0.0  0.103949  8e-06  1.025351  0.0  0.101464  0.099958  2.2e-05  1.026405  0.0
H  H27  1  0.17687992  0.22298150  0.44214210  1  0.088959  5e-06  0.965821  0.0  0.101826  8e-06  1.023761  0.0  0.104059  2e-06  1.023356  0.0  0.101702  0.100031  1.2e-05  1.024449  0.0
C  C28  1  0.22183037  0.29196717  0.90107065  1  0.672663  -0.007564  3.824329  -0.011  0.627793  -0.004226  4.124497  -0.006  0.66729  -0.002458  4.114252  -0.004  0.221002  0.597293  -0.007978  4.132537  -0.011
C  C29  1  0.77812203  0.70823746  0.09850053  1  0.672018  -0.002163  3.823436  -0.004  0.627558  0.002079  4.122124  0.002  0.667028  0.001359  4.112119  0.001  0.220805  0.596355  0.001828  4.130982  0.001
C  C30  1  0.21349038  0.17726647  0.82689721  1  -0.055885  0.00486  3.751077  0.007  -0.032155  0.002785  3.983741  0.004  -0.042143  0.002069  4.006481  0.003  -0.015236  -0.026024  0.003312  3.970112  0.005
C  C31  1  0.78764275  0.82278526  0.17366948  1  -0.054014  0.001788  3.746531  0.003  -0.030664  0.001026  3.979067  0.002  -0.040315  0.000684  4.001365  0.001  -0.014665  -0.024505  0.001033  3.965751  0.002
C  C32  1  0.35083231  0.18032969  0.75890441  1  -0.045823  -0.001771  3.71854  -0.002  -0.074224  -0.000314  3.972284  0.0  -0.070399  -0.0001  3.988042  0.0  -0.079084  -0.077585  -0.000957  3.963638  -0.001
C  C33  1  0.65141162  0.81967522  0.24245612  1  -0.045075  -0.000108  3.718046  0.0  -0.073757  0.00041  3.97117  0.001  -0.070091  0.000262  3.987245  0.0  -0.078345  -0.077156  0.000328  3.962433  0.001
C  C34  1  0.33196670  0.07338287  0.68424612  1  -0.110228  0.001305  3.72674  0.002  -0.128392  0.000454  3.978768  0.001  -0.133081  0.000276  3.998975  0.0  -0.086517  -0.125195  0.00059  3.965764  0.001
C  C35  1  0.67100260  0.92660164  0.31742409  1  -0.110018  -1.7e-05  3.727407  0.0  -0.128122  -9.2e-05  3.978964  0.0  -0.132875  -6.8e-05  3.999395  0.0  -0.086223  -0.124982  -0.000114  3.966283  0.0
C  C36  1  0.18214114  0.95826925  0.67893621  1  0.050501  -0.002082  3.73498  -0.003  0.054413  -0.00071  3.968256  -0.001  0.058074  -0.00037  3.989854  -0.001  0.001621  0.051656  -0.001486  3.95438  -0.002
C  C37  1  0.82001695  0.04189859  0.32199953  1  0.049258  -0.000153  3.736603  0.0  0.053369  0.000208  3.969752  0.0  0.056853  0.000142  3.99151  0.0  0.001392  0.050441  -0.000644  3.956353  -0.001
C  C38  1  0.05532890  0.95374194  0.75669886  1  -0.102026  0.002775  3.718377  0.004  -0.083113  0.001493  3.95533  0.002  -0.091273  0.001013  3.975328  0.002  -0.011836  -0.078442  0.002156  3.942981  0.003
C  C39  1  0.94602098  0.04646719  0.24364263  1  -0.102554  0.00169  3.718388  0.003  -0.083961  0.001195  3.955944  0.002  -0.092168  0.000861  3.976067  0.001  -0.012341  -0.079548  0.001248  3.94378  0.002
C  C40  1  0.06608418  0.06299430  0.82497322  1  -0.058467  -0.001178  3.687094  -0.002  -0.093743  -2.7e-05  3.930682  0.0  -0.090596  6.1e-05  3.948134  0.0  -0.073424  -0.096028  -0.000617  3.919881  -0.001
C  C41  1  0.93495661  0.93708335  0.17538829  1  -0.060384  -0.000398  3.688006  -0.001  -0.095031  0.000228  3.931111  0.0  -0.091996  0.000111  3.948519  0.0  -0.073773  -0.097306  0.000434  3.920574  0.001
C  C42  1  0.92304614  0.83157123  0.78139187  1  0.669384  -0.002267  3.866973  -0.003  0.616753  -1.6e-05  4.170635  0.0  0.652562  0.000105  4.161942  0.0  0.225202  0.591816  -0.000536  4.175334  -0.001
C  C43  1  0.07666788  0.16874605  0.21783786  1  0.672816  -0.002308  3.861254  -0.003  0.619625  -0.000287  4.165409  0.0  0.655444  -5.7e-05  4.156474  0.0  0.226699  0.595282  -0.000889  4.170094  -0.001
C  C44  1  0.15058615  0.84926639  0.58933377  1  0.057647  -0.000355  3.761292  0.0  0.071116  -0.000444  3.99723  0.0  0.071872  -0.000515  4.020238  -0.001  -0.004878  0.070023  -0.000425  3.98226  0.0
C  C45  1  0.85087158  0.15086457  0.41141772  1  0.058395  -0.00194  3.762354  -0.003  0.072321  -0.000249  3.997529  0.0  0.073146  -5e-06  4.020624  0.0  -0.005035  0.070773  -0.001128  3.983262  -0.001
C  C46  1  0.31093160  0.82969025  0.55104117  1  -0.114366  -0.000188  3.723769  0.0  -0.134705  1e-05  3.977123  0.0  -0.138097  0.000164  3.996684  0.0  -0.091503  -0.132764  -0.00047  3.964857  -0.001
C  C47  1  0.68980274  0.16971608  0.44941129  1  -0.114293  0.001287  3.723757  0.002  -0.134287  0.000269  3.97625  0.0  -0.137801  0.000122  3.995819  0.0  -0.091479  -0.132533  0.000373  3.964832  0.001
C  C48  1  0.27486038  0.72930541  0.46198374  1  -0.058366  -0.000812  3.729941  -0.001  -0.081848  -0.000785  3.977224  -0.001  -0.080484  -0.000786  3.996467  -0.001  -0.085923  -0.083584  -0.000626  3.965687  -0.001
C  C49  1  0.72476170  0.26957963  0.53877174  1  -0.05885  -0.001733  3.73146  -0.002  -0.08149  0.00017  3.977621  0.0  -0.080065  0.000264  3.996905  0.0  -0.086069  -0.083793  -0.000365  3.966872  0.0
C  C50  1  0.07798379  0.64456337  0.40912991  1  -0.064708  0.000755  3.74316  0.001  -0.042809  0.000821  3.974179  0.001  -0.051414  0.000837  3.997149  0.001  -0.018717  -0.037345  0.000517  3.959677  0.001
C  C51  1  0.92127734  0.35463379  0.59212566  1  -0.066275  0.0064  3.745594  0.01  -0.045101  0.003271  3.976822  0.005  -0.053826  0.002201  3.999828  0.003  -0.019201  -0.039354  0.004154  3.962752  0.007
C  C52  1  0.91949635  0.66213461  0.44936138  1  -0.050058  -0.000368  3.748523  0.0  -0.075149  -0.000446  4.000992  0.0  -0.074745  -0.000424  4.02115  0.0  -0.083826  -0.074944  -0.000491  3.987115  0.0
C  C53  1  0.08040191  0.33790738  0.55203148  1  -0.050334  -0.001438  3.746358  -0.002  -0.075413  6.7e-05  3.99857  0.0  -0.074911  0.000131  4.018687  0.0  -0.084258  -0.075824  -0.000527  3.985466  -0.001
C  C54  1  0.95395688  0.76331562  0.53574765  1  -0.098751  0.0  3.730464  0.0  -0.120193  0.000118  3.9816  0.0  -0.12351  0.000222  4.003229  0.0  -0.088767  -0.117564  -4.3e-05  3.966852  0.0
C  C55  1  0.04704886  0.23722949  0.46529386  1  -0.097852  0.001034  3.72814  0.002  -0.119199  0.00014  3.978894  0.0  -0.122648  1.6e-05  4.000589  0.0  -0.088511  -0.116831  0.000195  3.964906  0.001
C  C56  1  0.02710875  0.54347351  0.30385090  1  0.674174  -0.003121  3.858631  -0.005  0.630942  -0.003822  4.160749  -0.006  0.669658  -0.003332  4.15168  -0.005  0.214531  0.601709  -0.004248  4.166804  -0.007
C  C57  1  0.97080539  0.45612996  0.69655789  1  0.673534  -0.004746  3.861095  -0.009  0.631875  0.002639  4.16093  0.002  0.670815  0.002597  4.152019  0.003  0.215979  0.601404  0.000536  4.168485  -0.001
O  O58  1  0.38373662  0.38903155  0.92103812  1  -0.709842  -0.001952  2.230322  0.002  -0.68005  -0.000283  2.5321  0.004  -0.719442  0.000155  2.517225  0.005  -0.329526  -0.647713  -0.001534  2.541802  0.003
O  O59  1  0.61584074  0.61144167  0.07814938  1  -0.707248  0.002817  2.223304  0.001  -0.67587  0.003058  2.520258  0.001  -0.715956  0.001147  2.506035  -0.002  -0.326809  -0.642736  0.005297  2.530181  0.004
O  O60  1  0.07475432  0.29141735  0.94133251  1  -0.592198  0.023749  2.053034  0.044  -0.558281  0.01658  2.310167  0.027  -0.587312  0.014034  2.295682  0.022  -0.294754  -0.535968  0.019128  2.320781  0.032
O  O61  1  0.92490058  0.70918633  0.05782496  1  -0.59041  0.03525  2.054208  0.064  -0.555174  0.028432  2.308429  0.047  -0.584691  0.022941  2.294543  0.038  -0.293807  -0.53309  0.034486  2.320186  0.058
O  O62  1  0.01445195  0.74993900  0.82733855  1  -0.631439  0.027737  2.134415  0.046  -0.579117  0.023297  2.384293  0.035  -0.612668  0.019169  2.374017  0.028  -0.291127  -0.552705  0.027863  2.390331  0.042
O  O63  1  0.98441277  0.25000873  0.17220236  1  -0.633656  0.026876  2.135255  0.044  -0.579986  0.02256  2.38458  0.033  -0.612973  0.018921  2.373355  0.027  -0.291801  -0.555657  0.026471  2.392352  0.04
O  O64  1  0.73243368  0.81672270  0.75971731  1  -0.614927  -0.000624  1.981866  0.0  -0.559842  -0.000538  2.201007  0.0  -0.585797  -0.000672  2.190288  -0.001  -0.312028  -0.541543  -0.000284  2.208058  0.0
O  O65  1  0.26742412  0.18428667  0.23843003  1  -0.614031  -0.000781  1.981989  -0.001  -0.559278  -0.000554  2.201808  -0.001  -0.585112  -0.00049  2.190738  -0.001  -0.312081  -0.54106  -0.000537  2.208778  -0.001
O  O66  1  0.16666843  0.53612986  0.25732395  1  -0.65013  0.028564  2.046939  0.052  -0.617782  0.020686  2.312713  0.034  -0.650098  0.0172  2.297478  0.028  -0.321082  -0.591468  0.024086  2.32237  0.04
O  O67  1  0.83056116  0.46405049  0.74221289  1  -0.650833  0.03931  2.054132  0.072  -0.618689  0.029407  2.318538  0.051  -0.651083  0.023372  2.303073  0.04  -0.321655  -0.593474  0.035987  2.33024  0.062
O  O68  1  0.84202012  0.47230028  0.26423876  1  -0.654344  -0.040306  2.120749  -0.066  -0.628363  -0.028488  2.405291  -0.042  -0.665239  -0.021849  2.393064  -0.03  -0.324782  -0.597962  -0.036102  2.412849  -0.056
O  O69  1  0.15533021  0.52820357  0.73627986  1  -0.654762  0.039953  2.127609  0.068  -0.626803  0.030973  2.408547  0.046  -0.66481  0.022901  2.397357  0.032  -0.325039  -0.596106  0.039421  2.416454  0.061
O  O70  1  0.80934956  0.42194731  0.99380592  1  -0.934802  0.042408  2.078182  0.073  -0.933809  0.032092  2.400074  0.05  -0.991597  0.025404  2.374439  0.039  -0.552595  -0.877283  0.041111  2.411457  0.065
O  O71  1  0.19086254  0.58079793  0.00860075  1  -0.944421  0.129392  2.06691  0.222  -0.947839  0.098905  2.388026  0.152  -1.000493  0.080979  2.357573  0.122  -0.562219  -0.901185  0.11726  2.407924  0.184
O  O72  1  0.40364978  0.40577661  0.19157324  1  -0.84437  0.001304  2.086307  0.002  -0.811601  0.001406  2.332639  0.002  -0.844562  0.000549  2.29773  0.001  -0.542053  -0.78225  0.00324  2.35549  0.005
O  O73  1  0.59431481  0.59407974  0.80514041  1  -0.843026  0.044737  2.080552  0.071  -0.812902  0.042598  2.326407  0.061  -0.84365  0.036383  2.290099  0.051  -0.545512  -0.786504  0.048604  2.350686  0.07
O  O74  1  0.58081022  0.22099828  0.10512724  1  -0.818809  -0.026756  1.909692  -0.046  -0.782929  -0.022742  2.102555  -0.035  -0.806954  -0.019357  2.069267  -0.03  -0.569489  -0.763667  -0.025488  2.124398  -0.04
O  O75  1  0.41893016  0.77809351  0.89228044  1  -0.819818  0.027314  1.908716  0.047  -0.783895  0.024217  2.098952  0.038  -0.808095  0.019976  2.065843  0.031  -0.570809  -0.764829  0.028152  2.122176  0.044
