# generated using pymatgen
data_Al6H11C60Cl3O28
_symmetry_space_group_name_H-M   'P 1'
_cell_length_a   12.54346263
_cell_length_b   12.50397778
_cell_length_c   27.00404221
_cell_angle_alpha   97.95064281
_cell_angle_beta   90.35988036
_cell_angle_gamma   119.06725610
_symmetry_Int_Tables_number   1
_chemical_formula_structural   Al6H11C60Cl3O28
_chemical_formula_sum   'Al6 H11 C60 Cl3 O28'
_cell_volume   3653.13330035
_cell_formula_units_Z   1
loop_
 _symmetry_equiv_pos_site_id
 _symmetry_equiv_pos_as_xyz
  1  'x, y, z'
loop_
 _atom_site_type_symbol
 _atom_site_label
 _atom_site_symmetry_multiplicity
 _atom_site_fract_x
 _atom_site_fract_y
 _atom_site_fract_z
 _atom_site_occupancy
 _atom_site_pbe_bader_charge
 _atom_site_pbe_bader_spin_density
 _atom_site_pbe_cm5_charge
 _atom_site_pbe_ddec_charge
 _atom_site_pbe_ddec_spin_density
 _atom_site_pbe_ddec_sum_bond_order
 _atom_site_pbe_magmom
Al  Al0  1  0.41238882  0.81445590  0.48967493  1  2.495198  0  0.40181  1.682819  0  2.557465  0
Al  Al1  1  0.66415574  0.07298858  0.50232239  1  2.483941  0  0.510781  1.657575  0  2.513926  0
Al  Al2  1  0.42898496  0.08207252  0.50349269  1  2.482456  0  0.513149  1.661722  0  2.504744  0
Al  Al3  1  0.91444849  0.83749694  0.02163005  1  2.490496  0  0.401522  1.680426  0  2.561763  0
Al  Al4  1  0.91342847  0.57713218  0.00400276  1  2.485527  0  0.512336  1.661894  0  2.504269  0
Al  Al5  1  0.67063416  0.57087722  0.00256224  1  2.485027  0  0.511093  1.65936  0  2.508374  0
H  H6  1  0.88315105  0.90883115  0.80111138  1  0.077207  0  0.113555  0.120803  0  0.976097  0
H  H7  1  0.49239350  0.66567102  0.77868741  1  0.066778  0  0.115617  0.120095  0  0.974396  0
H  H8  1  0.49529079  0.70153505  0.68983944  1  0.113321  0  0.119006  0.125266  0  0.968053  0
H  H9  1  0.87991154  0.47894385  0.22756292  1  0.075561  0  0.11624  0.119885  0  0.979398  0
H  H10  1  0.49378139  0.21880257  0.19535590  1  0.08425  0  0.119477  0.124756  0  0.970356  0
H  H11  1  0.47814862  0.18892955  0.28471434  1  0.09869  0  0.11655  0.119855  0  0.979124  0
H  H12  1  0.86424109  0.44890359  0.31692146  1  0.092575  0  0.118817  0.12356  0  0.972014  0
H  H13  1  0.00001713  0.70187887  0.68297192  1  0.119098  0  0.121647  0.146033  0  0.965906  0
H  H14  1  0.88613768  0.94453802  0.71228516  1  0.093157  0  0.113847  0.119462  0  0.977751  0
H  H15  1  0.30979973  0.60906316  0.44796736  1  0.590765  0  0.297789  0.389629  0  0.912482  0
H  H16  1  0.01668425  0.04202356  0.00583833  1  0.585764  0  0.297849  0.388971  0  0.913362  0
C  C17  1  0.61596937  0.89391728  0.41931430  1  1.680481  0  0.27807  0.696628  0  4.182609  0
C  C18  1  0.13073095  0.79630275  0.18116364  1  0.210804  0  -0.0041  0.029295  0  4.247932  0
C  C19  1  0.15861156  0.81703697  0.23077071  1  0.113494  0  0.00238  -0.001429  0  4.190026  0
C  C20  1  0.62175438  0.22662764  0.44613368  1  1.622313  0  0.287658  0.725745  0  4.143255  0
C  C21  1  0.18129461  0.83691847  0.27670887  1  -0.167062  0  0.001416  -0.003667  0  4.191585  0
C  C22  1  0.20826636  0.85904165  0.32642386  1  0.184471  0  -0.005565  0.028679  0  4.254714  0
C  C23  1  0.23468897  0.87987782  0.37187733  1  -0.294234  0  0.003111  -0.130242  0  3.816724  0
C  C24  1  0.66104482  0.76775506  0.13188923  1  0.219243  0  0.007889  -0.127281  0  3.81321  0
C  C25  1  0.65197960  0.78647145  0.17706400  1  -0.266184  0  0.001112  0.037521  0  4.241315  0
C  C26  1  0.64533038  0.80675829  0.22664452  1  0.127263  0  0.005163  0.001244  0  4.182829  0
C  C27  1  0.64292202  0.82559544  0.27257747  1  -0.211284  0  0.0049  0.001426  0  4.184501  0
C  C28  1  0.57443365  0.26879981  0.22210421  1  -0.005958  0  -0.066516  -0.107197  0  3.931675  0
C  C29  1  0.63954077  0.84672964  0.32235649  1  -0.103976  0  -0.002153  0.033192  0  4.250588  0
C  C30  1  0.63598985  0.86707056  0.36790083  1  0.08746  0  0.003083  -0.132123  0  3.822287  0
C  C31  1  0.69554161  0.37111190  0.87442068  1  0.068419  0  0.007814  -0.126311  0  3.793284  0
C  C32  1  0.28608919  0.90396941  0.42258021  1  1.679986  0  0.277388  0.692886  0  4.185694  0
C  C33  1  0.68546507  0.34961020  0.82836626  1  -0.095731  0  0.003349  0.04239  0  4.222058  0
C  C34  1  0.67635271  0.32963827  0.77804418  1  -0.126689  0  0.003499  0.006136  0  4.160594  0
C  C35  1  0.66945217  0.31463080  0.73171995  1  0.125101  0  0.002826  0.004841  0  4.163318  0
C  C36  1  0.65871730  0.29308617  0.68138273  1  -0.425207  0  -0.000421  0.03827  0  4.225791  0
C  C37  1  0.64638902  0.26943447  0.63536013  1  0.33532  0  0.008805  -0.124435  0  3.793036  0
C  C38  1  0.23335809  0.89143293  0.61067688  1  -0.028912  0  -0.020009  -0.164929  0  3.895961  0
C  C39  1  0.56567326  0.25229813  0.27196508  1  -0.03583  0  -0.067039  -0.106535  0  3.932972  0
C  C40  1  0.06861063  0.76156259  0.71374881  1  0.042066  0  -0.083463  -0.187914  0  3.940919  0
C  C41  1  0.04555391  0.74118954  0.76275328  1  0.059176  0  0.021453  0.113887  0  4.04723  0
C  C42  1  0.24663462  0.91504139  0.79299000  1  0.115689  0  0.018879  0.055923  0  4.018794  0
C  C43  1  0.27040072  0.93616631  0.74362279  1  0.150735  0  0.012668  0.032027  0  4.021328  0
C  C44  1  0.63536532  0.89630655  0.55953910  1  1.681097  0  0.279337  0.707595  0  4.166691  0
C  C45  1  0.18119262  0.85860520  0.70346957  1  0.103066  0  0.003598  0.099369  0  4.1054  0
C  C46  1  0.13381163  0.81648758  0.80345879  1  0.150639  0  -0.006926  0.017242  0  4.085854  0
C  C47  1  0.11032904  0.79461996  0.85311598  1  -0.535892  0  -0.023821  -0.01192  0  4.123829  0
C  C48  1  0.20709775  0.87683976  0.65349019  1  -0.158559  0  -0.015225  -0.009017  0  4.072703  0
C  C49  1  0.08898268  0.77513181  0.89588435  1  0.327439  0  -0.020664  -0.160586  0  3.894697  0
C  C50  1  0.67016477  0.31708901  0.30674898  1  0.096356  0  0.010077  0.119879  0  4.099182  0
C  C51  1  0.67323895  0.87111983  0.60462427  1  0.174812  0  -0.033359  -0.190285  0  3.944946  0
C  C52  1  0.80061118  0.88348071  0.72707860  1  0.003023  0  -0.074071  -0.116442  0  3.953181  0
C  C53  1  0.79895505  0.86380274  0.77641097  1  -0.035295  0  -0.07307  -0.113064  0  3.952426  0
C  C54  1  0.57794814  0.72625330  0.76379516  1  0.013855  0  -0.071595  -0.111948  0  3.949078  0
C  C55  1  0.57952828  0.74605175  0.71453170  1  -0.041404  0  -0.068696  -0.106989  0  3.933683  0
C  C56  1  0.62066534  0.21824824  0.58282426  1  1.683789  0  0.285083  0.702425  0  4.170066  0
C  C57  1  0.69064877  0.82622310  0.69569603  1  0.110155  0  0.007643  0.126691  0  4.106059  0
C  C58  1  0.68742052  0.78608247  0.79557381  1  0.080286  0  0.006088  0.123687  0  4.115234  0
C  C59  1  0.68640831  0.76985103  0.84632618  1  -0.50268  0  -0.013134  -0.018453  0  4.077124  0
C  C60  1  0.68699477  0.85126230  0.64646790  1  -0.482134  0  -0.010803  -0.01793  0  4.070409  0
C  C61  1  0.68793983  0.35066094  0.20551541  1  0.132255  0  0.011327  0.122588  0  4.095244  0
C  C62  1  0.68848523  0.75860412  0.89038302  1  0.286158  0  -0.035559  -0.193218  0  3.942271  0
C  C63  1  0.04831753  0.75602704  0.08595043  1  1.663984  0  0.281538  0.689608  0  4.1849  0
C  C64  1  0.72992637  0.43562579  0.06496876  1  1.654554  0  0.285971  0.725657  0  4.143037  0
C  C65  1  0.69348570  0.74449182  0.08227228  1  1.684303  0  0.282744  0.690166  0  4.184277  0
C  C66  1  0.04522968  0.75116395  0.94450602  1  1.696978  0  0.281339  0.712527  0  4.15364  0
C  C67  1  0.71889210  0.42321327  0.92678282  1  1.660722  0  0.287025  0.702367  0  4.168888  0
C  C68  1  0.28779337  0.91117093  0.56361335  1  1.659266  0  0.284565  0.708057  0  4.160504  0
C  C69  1  0.71074040  0.74395603  0.94048033  1  1.647017  0  0.277356  0.716834  0  4.158347  0
C  C70  1  0.64849628  0.27691537  0.40041733  1  0.238632  0  -0.032593  -0.20207  0  3.922172  0
C  C71  1  0.78363985  0.39891778  0.29015176  1  -0.004465  0  -0.066908  -0.107383  0  3.934831  0
C  C72  1  0.69755583  0.36985979  0.15488429  1  -0.45914  0  0.004794  0.012437  0  4.030489  0
C  C73  1  0.79237445  0.41546911  0.24029508  1  -0.028997  0  -0.06724  -0.106648  0  3.931213  0
C  C74  1  0.66006848  0.29751734  0.35732586  1  -0.44817  0  0.006877  0.016064  0  4.02748  0
C  C75  1  0.70757208  0.38943965  0.11165743  1  0.221128  0  -0.032009  -0.199575  0  3.924181  0
C  C76  1  0.10247582  0.77788548  0.13596181  1  -0.219436  0  0.008758  -0.123472  0  3.810654  0
Cl  Cl77  1  0.90706527  0.62157960  0.77409589  1  -0.185785  0  0.01755  -0.056846  0  1.563871  0
Cl  Cl78  1  0.35389530  0.00760577  0.84183287  1  -0.148918  0  0.019712  -0.029207  0  1.536619  0
Cl  Cl79  1  0.40729500  0.05451885  0.73124173  1  -0.157785  0  0.016506  -0.046371  0  1.646081  0
O  O80  1  0.30702955  0.82266475  0.43593413  1  -1.200336  0  -0.204863  -0.552332  0  2.294463  0
O  O81  1  0.64785203  0.45250981  0.04473260  1  -1.242644  0  -0.226697  -0.590346  0  2.244796  0
O  O82  1  0.61750367  0.64065295  0.05475690  1  -1.250348  0  -0.235274  -0.593679  0  2.230574  0
O  O83  1  0.51849281  0.81514568  0.43495719  1  -1.218972  0  -0.207014  -0.558455  0  2.292188  0
O  O84  1  0.81074753  0.82648444  0.96425538  1  -1.224579  0  -0.211487  -0.569916  0  2.301193  0
O  O85  1  0.02807705  0.83226797  0.97063657  1  -1.212894  0  -0.205938  -0.556709  0  2.284668  0
O  O86  1  0.02231654  0.64575607  0.95612415  1  -1.245293  0  -0.238355  -0.595463  0  2.221236  0
O  O87  1  0.82066639  0.44828849  0.94869867  1  -1.236178  0  -0.217503  -0.571399  0  2.247882  0
O  O88  1  0.63835599  0.44656352  0.94632533  1  -1.226693  0  -0.218453  -0.570649  0  2.243817  0
O  O89  1  0.62974551  0.64572326  0.95650832  1  -1.261392  0  -0.243938  -0.607588  0  2.228189  0
O  O90  1  0.83196929  0.65952226  0.00877117  1  -1.617013  0  -0.391343  -1.274428  0  2.292944  0
O  O91  1  0.69610177  0.18777981  0.56290206  1  -1.226265  0  -0.218302  -0.570855  0  2.247464  0
O  O92  1  0.69752429  0.99871590  0.44420079  1  -1.252411  0  -0.235339  -0.592149  0  2.237342  0
O  O93  1  0.69980124  0.20337665  0.46600145  1  -1.246334  0  -0.225768  -0.58739  0  2.238822  0
O  O94  1  0.51812072  0.20220181  0.46273253  1  -1.242694  0  -0.224482  -0.587942  0  2.244989  0
O  O95  1  0.31070128  0.00851065  0.44907936  1  -1.245747  0  -0.236019  -0.592064  0  2.233031  0
O  O96  1  0.31325260  0.83048301  0.54318738  1  -1.206051  0  -0.193828  -0.525086  0  2.280376  0
O  O97  1  0.52596359  0.82389590  0.54186211  1  -1.217706  0  -0.199847  -0.540933  0  2.290344  0
O  O98  1  0.71387266  0.99307554  0.54169008  1  -1.261807  0  -0.242709  -0.607061  0  2.227722  0
O  O99  1  0.52172968  0.20183665  0.56123848  1  -1.232371  0  -0.219367  -0.57467  0  2.245072  0
O  O100  1  0.31045630  0.01234398  0.54778784  1  -1.246626  0  -0.237754  -0.599948  0  2.231298  0
O  O101  1  0.50250931  0.99194627  0.49815410  1  -1.612859  0  -0.390711  -1.274748  0  2.293224  0
O  O102  1  0.79565739  0.82492399  0.07079628  1  -1.20167  0  -0.191535  -0.523181  0  2.284628  0
O  O103  1  0.01148748  0.82946112  0.07689214  1  -1.191659  0  -0.191993  -0.520553  0  2.287307  0
O  O104  1  0.03805105  0.66154842  0.05568173  1  -1.251219  0  -0.23721  -0.598954  0  2.234629  0
O  O105  1  0.83384921  0.46261114  0.04797486  1  -1.241988  0  -0.227862  -0.591913  0  2.241214  0
O  O106  1  0.32801959  0.65290016  0.48201216  1  -1.367969  0  -0.571535  -0.987949  0  1.787483  0
O  O107  1  0.99118592  0.99923897  0.03439325  1  -1.359893  0  -0.570371  -0.985552  0  1.787572  0
