# generated using pymatgen
data_CdH16C19N4O5
_symmetry_space_group_name_H-M   'P 1'
_cell_length_a   9.91759414
_cell_length_b   11.61747717
_cell_length_c   11.44262945
_cell_angle_alpha   94.11938957
_cell_angle_beta   97.69202530
_cell_angle_gamma   109.59502971
_symmetry_Int_Tables_number   1
_chemical_formula_structural   CdH16C19N4O5
_chemical_formula_sum   'Cd2 H32 C38 N8 O10'
_cell_volume   1221.20399786
_cell_formula_units_Z   2
loop_
 _symmetry_equiv_pos_site_id
 _symmetry_equiv_pos_as_xyz
  1  'x, y, z'
loop_
 _atom_site_type_symbol
 _atom_site_label
 _atom_site_symmetry_multiplicity
 _atom_site_fract_x
 _atom_site_fract_y
 _atom_site_fract_z
 _atom_site_occupancy
 _atom_site_hle17_bader_spin_density
 _atom_site_hle17_ddec_charge
 _atom_site_hle17_ddec_spin_density
 _atom_site_hle17_ddec_sum_bond_order
 _atom_site_hle17_magmom
 _atom_site_hse06_10hf_bader_spin_density
 _atom_site_hse06_10hf_ddec_charge
 _atom_site_hse06_10hf_ddec_spin_density
 _atom_site_hse06_10hf_ddec_sum_bond_order
 _atom_site_hse06_10hf_magmom
 _atom_site_hse06_bader_spin_density
 _atom_site_hse06_ddec_charge
 _atom_site_hse06_ddec_spin_density
 _atom_site_hse06_ddec_sum_bond_order
 _atom_site_hse06_magmom
 _atom_site_pbe_bader_spin_density
 _atom_site_pbe_cm5_charge
 _atom_site_pbe_ddec_charge
 _atom_site_pbe_ddec_spin_density
 _atom_site_pbe_ddec_sum_bond_order
 _atom_site_pbe_magmom
Cd  Cd0  1  0.59967513  0.76829994  0.90563297  1  0  1.137514  0  1.663519  0  0  0.946239  0  2.114759  0  0  1.003307  0  2.062222  0  0  0.765041  0.905537  0  2.150794  0
Cd  Cd1  1  0.40032511  0.23170010  0.09436720  1  0  1.137483  0  1.663567  0  0  0.94619  0  2.114823  0  0  1.00326  0  2.062284  0  0  0.765045  0.905492  0  2.15086  0
H  H2  1  0.05134032  0.19872462  0.09674079  1  0  0.322372  0  0.928861  0  0  0.300137  0  0.995538  0  0  0.309566  0  0.98791  0  0  0.306255  0.293655  0  1.000672  0
H  H3  1  0.94866197  0.80127545  0.90325962  1  0  0.322302  0  0.928868  0  0  0.300077  0  0.995532  0  0  0.309504  0  0.987907  0  0  0.306239  0.293596  0  1.000667  0
H  H4  1  0.45588836  0.53872900  0.74931007  1  0  0.413491  0  0.832923  0  0  0.401508  0  0.879457  0  0  0.40939  0  0.87078  0  0  0.318046  0.395911  0  0.88569  0
H  H5  1  0.54411054  0.46127284  0.25068746  1  0  0.413437  0  0.832893  0  0  0.40145  0  0.879443  0  0  0.409332  0  0.870767  0  0  0.31801  0.395853  0  0.88567  0
H  H6  1  0.38461263  0.51777214  0.86680944  1  0  0.429918  0  0.875456  0  0  0.39453  0  0.9468  0  0  0.406298  0  0.929663  0  0  0.284675  0.386276  0  0.958805  0
H  H7  1  0.61538929  0.48222700  0.13318911  1  0  0.429851  0  0.87554  0  0  0.394462  0  0.946883  0  0  0.406229  0  0.929747  0  0  0.284661  0.386208  0  0.958887  0
H  H8  1  0.63768697  0.85622672  0.50141250  1  0  0.095807  0  0.951565  0  0  0.10481  0  1.013303  0  0  0.108517  0  1.010887  0  0  0.099403  0.102137  0  1.015146  0
H  H9  1  0.36230779  0.14377231  0.49858785  1  0  0.095753  0  0.951558  0  0  0.104753  0  1.013302  0  0  0.10846  0  1.010888  0  0  0.099372  0.102079  0  1.015147  0
H  H10  1  0.39763877  0.03965596  0.67948088  1  0  0.101935  0  0.956525  0  0  0.108039  0  1.022928  0  0  0.111548  0  1.021443  0  0  0.098726  0.105502  0  1.024095  0
H  H11  1  0.60235293  0.96034303  0.32052262  1  0  0.101978  0  0.95653  0  0  0.108078  0  1.022938  0  0  0.111591  0  1.021437  0  0  0.098738  0.10554  0  1.024102  0
H  H12  1  0.96891954  0.61593851  0.83071309  1  0  0.101071  0  0.941898  0  0  0.112743  0  0.997212  0  0  0.116477  0  0.99491  0  0  0.105771  0.109906  0  0.999082  0
H  H13  1  0.03108760  0.38406619  0.16928383  1  0  0.10097  0  0.94183  0  0  0.112645  0  0.997162  0  0  0.116368  0  0.994875  0  0  0.105739  0.109808  0  0.99903  0
H  H14  1  0.83688194  0.47527171  0.15123457  1  0  0.107002  0  0.953555  0  0  0.118529  0  1.010843  0  0  0.122041  0  1.008431  0  0  0.106776  0.115583  0  1.013243  0
H  H15  1  0.16312555  0.52473391  0.84876158  1  0  0.107003  0  0.953598  0  0  0.118565  0  1.01083  0  0  0.122077  0  1.008417  0  0  0.106754  0.115617  0  1.013233  0
H  H16  1  0.71259177  0.74879423  0.17727255  1  0  0.10693  0  0.981635  0  0  0.115037  0  1.046787  0  0  0.118165  0  1.044947  0  0  0.100666  0.112579  0  1.048692  0
H  H17  1  0.28740642  0.25120577  0.82272738  1  0  0.106945  0  0.981666  0  0  0.115061  0  1.046799  0  0  0.118186  0  1.044969  0  0  0.100665  0.112604  0  1.048702  0
H  H18  1  0.86784872  0.77159886  0.37427203  1  0  0.088539  0  0.94219  0  0  0.102284  0  0.993458  0  0  0.105199  0  0.9927  0  0  0.099256  0.100135  0  0.994293  0
H  H19  1  0.13214844  0.22840112  0.62572691  1  0  0.088519  0  0.9422  0  0  0.102268  0  0.993467  0  0  0.105182  0  0.992708  0  0  0.099258  0.10012  0  0.994301  0
H  H20  1  0.08119835  0.96014429  0.44548922  1  0  0.088249  0  0.963681  0  0  0.098915  0  1.023698  0  0  0.100879  0  1.024346  0  0  0.098697  0.097998  0  1.022214  0
H  H21  1  0.91879914  0.03985388  0.55451401  1  0  0.088249  0  0.963701  0  0  0.098896  0  1.023733  0  0  0.100861  0  1.024381  0  0  0.098689  0.09798  0  1.02225  0
H  H22  1  0.14444218  0.13623798  0.32571661  1  0  0.12804  0  0.953552  0  0  0.137102  0  1.011548  0  0  0.141321  0  1.008322  0  0  0.107208  0.134028  0  1.013941  0
H  H23  1  0.85555837  0.86376023  0.67428609  1  0  0.128047  0  0.95354  0  0  0.137099  0  1.011554  0  0  0.1413  0  1.008351  0  0  0.107215  0.134027  0  1.013947  0
H  H24  1  0.93221033  0.17313335  0.87609061  1  0  0.102469  0  0.921423  0  0  0.113278  0  0.98517  0  0  0.114097  0  0.986053  0  0  0.118891  0.112484  0  0.984926  0
H  H25  1  0.06778991  0.82686668  0.12390956  1  0  0.102471  0  0.92145  0  0  0.113253  0  0.985191  0  0  0.114071  0  0.986076  0  0  0.118897  0.112458  0  0.984946  0
H  H26  1  0.78288470  0.03591120  0.82048820  1  0  0.106971  0  0.946531  0  0  0.116755  0  1.011694  0  0  0.117469  0  1.012247  0  0  0.120185  0.116002  0  1.011645  0
H  H27  1  0.21711549  0.96408609  0.17951351  1  0  0.106991  0  0.946503  0  0  0.116752  0  1.011656  0  0  0.117468  0  1.012207  0  0  0.120173  0.116  0  1.011609  0
H  H28  1  0.63371932  0.10645973  0.05663417  1  0  0.116734  0  0.961094  0  0  0.12322  0  1.02664  0  0  0.126501  0  1.022553  0  0  0.137263  0.120765  0  1.029536  0
H  H29  1  0.36627912  0.89353570  0.94336634  1  0  0.116702  0  0.961003  0  0  0.123183  0  1.026575  0  0  0.12646  0  1.022484  0  0  0.137251  0.120729  0  1.029472  0
H  H30  1  0.76635648  0.28428389  0.75884540  1  0  0.117076  0  0.934403  0  0  0.1328  0  0.982592  0  0  0.135358  0  0.982051  0  0  0.128595  0.130912  0  0.983165  0
H  H31  1  0.23364341  0.71571523  0.24115729  1  0  0.117037  0  0.934455  0  0  0.132773  0  0.982637  0  0  0.13533  0  0.982098  0  0  0.128596  0.130884  0  0.98321  0
H  H32  1  0.55297464  0.36121694  0.83904398  1  0  0.09732  0  0.953139  0  0  0.110238  0  1.008649  0  0  0.112581  0  1.007382  0  0  0.116991  0.108409  0  1.010034  0
H  H33  1  0.44702423  0.63878216  0.16095947  1  0  0.097374  0  0.953149  0  0  0.110317  0  1.008612  0  0  0.112661  0  1.007343  0  0  0.117024  0.108486  0  1.01  0
C  C34  1  0.54253971  0.88192774  0.70981366  1  0  0.616897  0  3.958256  0  0  0.572561  0  4.244157  0  0  0.606807  0  4.237761  0  0  0.183434  0.549397  0  4.247611  0
C  C35  1  0.45745366  0.11807035  0.29018559  1  0  0.616806  0  3.958217  0  0  0.572499  0  4.244116  0  0  0.606746  0  4.237722  0  0  0.183434  0.549335  0  4.247571  0
C  C36  1  0.57762867  0.91948283  0.49978437  1  0  -0.083673  0  3.761123  0  0  -0.105424  0  4.008994  0  0  -0.106821  0  4.03008  0  0  -0.090364  -0.104704  0  3.994767  0
C  C37  1  0.42236502  0.08051344  0.50021654  1  0  -0.083553  0  3.761007  0  0  -0.105275  0  4.008896  0  0  -0.106672  0  4.029984  0  0  -0.090276  -0.104555  0  3.994668  0
C  C38  1  0.51965414  0.94180800  0.60081543  1  0  -0.053483  0  3.756498  0  0  -0.030292  0  3.984737  0  0  -0.037142  0  4.007651  0  0  -0.020048  -0.025631  0  3.96924  0
C  C39  1  0.48034129  0.05819013  0.39918581  1  0  -0.053428  0  3.756374  0  0  -0.030313  0  3.984709  0  0  -0.037164  0  4.007625  0  0  -0.020056  -0.025649  0  3.969208  0
C  C40  1  0.44175272  0.02282676  0.60033438  1  0  -0.083036  0  3.753983  0  0  -0.105583  0  4.002984  0  0  -0.106764  0  4.02397  0  0  -0.090548  -0.104514  0  3.988564  0
C  C41  1  0.55824133  0.97717044  0.39966664  1  0  -0.083034  0  3.753939  0  0  -0.105558  0  4.002967  0  0  -0.106737  0  4.023955  0  0  -0.090532  -0.104489  0  3.988544  0
C  C42  1  0.77509342  0.60937246  0.97837625  1  0  0.637779  0  3.919384  0  0  0.58189  0  4.221154  0  0  0.615918  0  4.214224  0  0  0.204492  0.559112  0  4.224672  0
C  C43  1  0.22491308  0.39063316  0.02162416  1  0  0.637691  0  3.919447  0  0  0.581796  0  4.22124  0  0  0.615824  0  4.214307  0  0  0.204401  0.559027  0  4.22476  0
C  C44  1  0.98360385  0.56567463  0.90533383  1  0  -0.077318  0  3.741584  0  0  -0.103111  0  3.996627  0  0  -0.103905  0  4.0164  0  0  -0.087082  -0.102587  0  3.983478  0
C  C45  1  0.01640154  0.43432821  0.09466101  1  0  -0.077026  0  3.741342  0  0  -0.102795  0  3.996367  0  0  -0.103579  0  4.016142  0  0  -0.086944  -0.102268  0  3.983221  0
C  C46  1  0.89130813  0.55295753  0.99029767  1  0  -0.069163  0  3.771083  0  0  -0.047186  0  4.010705  0  0  -0.053795  0  4.0338  0  0  -0.019662  -0.043106  0  3.995291  0
C  C47  1  0.10869870  0.44704900  0.00969934  1  0  -0.069268  0  3.771204  0  0  -0.047317  0  4.01085  0  0  -0.053925  0  4.033941  0  0  -0.019768  -0.043251  0  3.995461  0
C  C48  1  0.90867942  0.48660970  0.08535627  1  0  -0.071351  0  3.728603  0  0  -0.094383  0  3.977342  0  0  -0.095347  0  3.997823  0  0  -0.084157  -0.093474  0  3.96383  0
C  C49  1  0.09132771  0.51339500  0.91463889  1  0  -0.071154  0  3.728683  0  0  -0.094177  0  3.977357  0  0  -0.095141  0  3.997841  0  0  -0.083986  -0.093261  0  3.963844  0
C  C50  1  0.83897424  0.93176923  0.14262096  1  0  0.142035  0  3.829813  0  0  0.141225  0  4.075402  0  0  0.144237  0  4.099301  0  0  0.080325  0.138398  0  4.060092  0
C  C51  1  0.16102804  0.06823083  0.85737769  1  0  0.142089  0  3.829641  0  0  0.141227  0  4.075256  0  0  0.144243  0  4.099155  0  0  0.080345  0.1384  0  4.059952  0
C  C52  1  0.80328405  0.83347846  0.21061168  1  0  -0.14778  0  3.75757  0  0  -0.166417  0  4.007725  0  0  -0.169034  0  4.028655  0  0  -0.098974  -0.164741  0  3.995037  0
C  C53  1  0.19671514  0.16652154  0.78938400  1  0  -0.147828  0  3.757395  0  0  -0.166468  0  4.007579  0  0  -0.169086  0  4.028506  0  0  -0.098978  -0.164795  0  3.994903  0
C  C54  1  0.89176416  0.84684807  0.31965110  1  0  -0.090911  0  3.811294  0  0  -0.105003  0  4.063731  0  0  -0.108219  0  4.087087  0  0  -0.103184  -0.103258  0  4.048209  0
C  C55  1  0.10822956  0.15315094  0.68034652  1  0  -0.090834  0  3.811204  0  0  -0.104924  0  4.063641  0  0  -0.108138  0  4.086994  0  0  -0.103154  -0.10318  0  4.048122  0
C  C56  1  0.01290303  0.95484253  0.36097180  1  0  -0.075366  0  3.807855  0  0  -0.091715  0  4.06503  0  0  -0.093788  0  4.088767  0  0  -0.098365  -0.089873  0  4.047081  0
C  C57  1  0.98709577  0.04515382  0.63902882  1  0  -0.075367  0  3.807935  0  0  -0.091705  0  4.065118  0  0  -0.093777  0  4.088848  0  0  -0.098355  -0.089863  0  4.047168  0
C  C58  1  0.04802546  0.05461394  0.29605612  1  0  -0.161613  0  3.749401  0  0  -0.179509  0  3.99833  0  0  -0.182841  0  4.017777  0  0  -0.096671  -0.176119  0  3.983687  0
C  C59  1  0.95197581  0.94538612  0.70394592  1  0  -0.161634  0  3.749437  0  0  -0.179548  0  3.998355  0  0  -0.18287  0  4.017815  0  0  -0.096692  -0.176158  0  3.983709  0
C  C60  1  0.95879571  0.04099341  0.18673913  1  0  0.158257  0  3.793466  0  0  0.153238  0  4.033375  0  0  0.15726  0  4.055883  0  0  0.092576  0.150668  0  4.017582  0
C  C61  1  0.04120790  0.95900485  0.81326217  1  0  0.158089  0  3.79356  0  0  0.153158  0  4.033393  0  0  0.157179  0  4.055898  0  0  0.092497  0.150587  0  4.017597  0
C  C62  1  0.85709555  0.05449171  0.00606578  1  0  0.38008  0  3.709817  0  0  0.346635  0  3.995963  0  0  0.364709  0  4.007615  0  0  0.228473  0.335157  0  3.987118  0
C  C63  1  0.14290710  0.94550928  0.99393473  1  0  0.380045  0  3.709804  0  0  0.346518  0  3.996014  0  0  0.364591  0  4.007671  0  0  0.228436  0.335042  0  3.987165  0
C  C64  1  0.82975595  0.10943321  0.89532614  1  0  -0.09844  0  3.651477  0  0  -0.158335  0  3.8962  0  0  -0.155878  0  3.904668  0  0  -0.036911  -0.160019  0  3.890669  0
C  C65  1  0.17024357  0.89056498  0.10467469  1  0  -0.098528  0  3.651596  0  0  -0.158304  0  3.896217  0  0  -0.155853  0  3.904691  0  0  -0.036905  -0.15999  0  3.89069  0
C  C66  1  0.64038873  0.16563589  0.98694063  1  0  0.171168  0  3.641039  0  0  0.106978  0  3.906601  0  0  0.121496  0  3.918805  0  0  0.143227  0.097686  0  3.897924  0
C  C67  1  0.35961146  0.83436140  0.01306109  1  0  0.171126  0  3.640985  0  0  0.106949  0  3.906569  0  0  0.121473  0  3.918768  0  0  0.14316  0.097656  0  3.897894  0
C  C68  1  0.70631956  0.25929787  0.83111708  1  0  -0.063668  0  3.67677  0  0  -0.104408  0  3.93632  0  0  -0.103399  0  3.956156  0  0  0.003391  -0.105177  0  3.923203  0
C  C69  1  0.29367930  0.74070124  0.16888549  1  0  -0.063651  0  3.676781  0  0  -0.104415  0  3.936369  0  0  -0.103405  0  3.956207  0  0  0.003371  -0.105184  0  3.923253  0
C  C70  1  0.60039512  0.29554687  0.87119014  1  0  0.00831  0  3.7687  0  0  -0.027395  0  4.040043  0  0  -0.025389  0  4.061447  0  0  -0.002376  -0.029025  0  4.02634  0
C  C71  1  0.39960617  0.70445319  0.12881452  1  0  0.008321  0  3.768587  0  0  -0.027385  0  4.039919  0  0  -0.025381  0  4.061325  0  0  -0.002364  -0.029017  0  4.026216  0
N  N72  1  0.77815440  0.94312602  0.02914545  1  0  -0.484571  0  3.098061  0  0  -0.429567  0  3.382373  0  0  -0.451089  0  3.396232  0  0  -0.344922  -0.414676  0  3.372392  0
N  N73  1  0.22184686  0.05687403  0.97085396  1  0  -0.484525  0  3.098024  0  0  -0.429504  0  3.382385  0  0  -0.451024  0  3.396237  0  0  -0.344904  -0.414615  0  3.372402  0
N  N74  1  0.96549082  0.11672373  0.09837113  1  0  -0.385575  0  3.338043  0  0  -0.32911  0  3.572576  0  0  -0.347878  0  3.584349  0  0  -0.375278  -0.316456  0  3.563936  0
N  N75  1  0.03451178  0.88327451  0.90163005  1  0  -0.385362  0  3.337931  0  0  -0.328902  0  3.572435  0  0  -0.347667  0  3.584214  0  0  -0.37519  -0.316244  0  3.563791  0
N  N76  1  0.73069279  0.17764520  0.90611786  1  0  -0.046009  0  3.567735  0  0  0.046489  0  3.787866  0  0  0.031991  0  3.813692  0  0  -0.239163  0.05607  0  3.770321  0
N  N77  1  0.26930673  0.82235299  0.09388297  1  0  -0.045898  0  3.567739  0  0  0.046566  0  3.787845  0  0  0.03207  0  3.81367  0  0  -0.239115  0.056143  0  3.770303  0
N  N78  1  0.56064931  0.23670942  0.96820430  1  0  -0.386279  0  3.261305  0  0  -0.307822  0  3.546057  0  0  -0.330443  0  3.564649  0  0  -0.360164  -0.292238  0  3.533229  0
N  N79  1  0.43935052  0.76328696  0.03179818  1  0  -0.386335  0  3.261186  0  0  -0.307913  0  3.545978  0  0  -0.330532  0  3.564567  0  0  -0.360168  -0.292328  0  3.533147  0
O  O80  1  0.49184488  0.90696446  0.80081164  1  0  -0.639263  0  1.945295  0  0  -0.585028  0  2.178455  0  0  -0.611685  0  2.16957  0  0  -0.335381  -0.566336  0  2.183673  0
O  O81  1  0.50814294  0.09302988  0.19918585  1  0  -0.639222  0  1.945294  0  0  -0.584975  0  2.178419  0  0  -0.611634  0  2.169537  0  0  -0.335394  -0.566281  0  2.183637  0
O  O82  1  0.61646287  0.80988799  0.70892876  1  0  -0.654844  0  1.942632  0  0  -0.592924  0  2.174558  0  0  -0.621298  0  2.163513  0  0  -0.346603  -0.573316  0  2.181565  0
O  O83  1  0.38353436  0.19011474  0.29107214  1  0  -0.654854  0  1.942665  0  0  -0.59294  0  2.174586  0  0  -0.621315  0  2.163536  0  0  -0.346598  -0.573332  0  2.181596  0
O  O84  1  0.78673296  0.69055518  0.90519407  1  0  -0.655516  0  2.047471  0  0  -0.583211  0  2.291591  0  0  -0.612232  0  2.280144  0  0  -0.327786  -0.56273  0  2.298682  0
O  O85  1  0.21326558  0.30944574  0.09480423  1  0  -0.655475  0  2.047381  0  0  -0.583168  0  2.291502  0  0  -0.612188  0  2.280054  0  0  -0.327746  -0.562689  0  2.298589  0
O  O86  1  0.67221381  0.57899891  0.03686707  1  0  -0.62489  0  2.004112  0  0  -0.568162  0  2.237723  0  0  -0.593638  0  2.227798  0  0  -0.307656  -0.550175  0  2.243699  0
O  O87  1  0.32779161  0.42100395  0.96313301  1  0  -0.624903  0  2.004228  0  0  -0.568164  0  2.237842  0  0  -0.593643  0  2.227921  0  0  -0.307602  -0.550149  0  2.243751  0
O  O88  1  0.41692743  0.57733463  0.80793340  1  0  -0.823356  0  1.837258  0  0  -0.770745  0  2.017245  0  0  -0.790697  0  1.987354  0  0  -0.58317  -0.756319  0  2.038176  0
O  O89  1  0.58307316  0.42266632  0.19206513  1  0  -0.823256  0  1.837286  0  0  -0.770632  0  2.017278  0  0  -0.790586  0  1.987391  0  0  -0.583138  -0.756203  0  2.038204  0
