# generated using pymatgen
data_Zn2H27C24NO10
_symmetry_space_group_name_H-M   'P 1'
_cell_length_a   10.35268286
_cell_length_b   11.74808860
_cell_length_c   20.37704617
_cell_angle_alpha   90.00014934
_cell_angle_beta   90.00012401
_cell_angle_gamma   90.00007594
_symmetry_Int_Tables_number   1
_chemical_formula_structural   Zn2H27C24NO10
_chemical_formula_sum   'Zn8 H108 C96 N4 O40'
_cell_volume   2478.34266182
_cell_formula_units_Z   4
loop_
 _symmetry_equiv_pos_site_id
 _symmetry_equiv_pos_as_xyz
  1  'x, y, z'
loop_
 _atom_site_type_symbol
 _atom_site_label
 _atom_site_symmetry_multiplicity
 _atom_site_fract_x
 _atom_site_fract_y
 _atom_site_fract_z
 _atom_site_occupancy
 _atom_site_pbe_bader_charge
 _atom_site_pbe_bader_spin_density
 _atom_site_pbe_cm5_charge
 _atom_site_pbe_ddec_charge
 _atom_site_pbe_ddec_spin_density
 _atom_site_pbe_ddec_sum_bond_order
 _atom_site_pbe_magmom
Zn  Zn0  1  0.97119507  0.42490232  0.50773735  1  1.358539  0  0.684828  0.968218  0  2.251571  0
Zn  Zn1  1  0.52880444  0.57509813  0.00773737  1  1.358497  0  0.684804  0.968139  0  2.251616  0
Zn  Zn2  1  0.47119491  0.07509871  0.49226450  1  1.358474  0  0.684802  0.968193  0  2.251601  0
Zn  Zn3  1  0.02880597  0.92490080  0.99226327  1  1.358484  0  0.684784  0.968126  0  2.251665  0
Zn  Zn4  1  0.65843646  0.32208884  0.51620545  1  1.346433  0  0.67904  0.951175  0  2.307824  0
Zn  Zn5  1  0.84156308  0.67791166  0.01620597  1  1.346406  0  0.679055  0.951167  0  2.307825  0
Zn  Zn6  1  0.15843643  0.17791183  0.48379507  1  1.346482  0  0.679035  0.951169  0  2.307801  0
Zn  Zn7  1  0.34156442  0.82208935  0.98379452  1  1.346431  0  0.679046  0.951152  0  2.30788  0
H  H8  1  0.75926799  0.01974856  0.47659012  1  0.057005  0  0.106899  0.068292  0  0.975742  0
H  H9  1  0.74073159  0.98025061  0.97659166  1  0.056704  0  0.106911  0.068338  0  0.975658  0
H  H10  1  0.25927050  0.48025308  0.52340904  1  0.056658  0  0.106907  0.068274  0  0.975705  0
H  H11  1  0.24073031  0.51975027  0.02340872  1  0.056717  0  0.106918  0.06833  0  0.975658  0
H  H12  1  0.64201607  0.06106988  0.37389316  1  0.057541  0  0.090497  0.139365  0  1.027888  0
H  H13  1  0.85798500  0.93893224  0.87389526  1  0.05752  0  0.090497  0.139364  0  1.027901  0
H  H14  1  0.14201606  0.43893588  0.62610489  1  0.057497  0  0.090484  0.139336  0  1.027909  0
H  H15  1  0.35798519  0.56107049  0.12610476  1  0.057546  0  0.0905  0.139398  0  1.02792  0
H  H16  1  0.81129681  0.08063739  0.36161180  1  0.060156  0  0.091634  0.137526  0  1.003429  0
H  H17  1  0.68870323  0.91936382  0.86161368  1  0.060075  0  0.091632  0.137523  0  1.003481  0
H  H18  1  0.31129683  0.41936431  0.63838742  1  0.060159  0  0.091638  0.137521  0  1.003456  0
H  H19  1  0.18870351  0.58063786  0.13838762  1  0.060064  0  0.09165  0.137587  0  1.00339  0
H  H20  1  0.70794980  0.20125612  0.37117897  1  0.030898  0  0.084884  0.124908  0  1.014207  0
H  H21  1  0.79205125  0.79874513  0.87117882  1  0.030905  0  0.084885  0.124908  0  1.014262  0
H  H22  1  0.20794477  0.29874801  0.62882062  1  0.030978  0  0.084903  0.124921  0  1.014266  0
H  H23  1  0.29205167  0.70125752  0.12882063  1  0.030855  0  0.084919  0.124978  0  1.014132  0
H  H24  1  0.94159660  0.51763951  0.31360033  1  0.137893  0  0.104799  0.108023  0  1.05698  0
H  H25  1  0.55840518  0.48236148  0.81359945  1  0.137931  0  0.104813  0.108052  0  1.057003  0
H  H26  1  0.44159498  0.98235991  0.68640076  1  0.137935  0  0.104803  0.108017  0  1.057023  0
H  H27  1  0.05840556  0.01763907  0.18640096  1  0.137948  0  0.104802  0.107992  0  1.057071  0
H  H28  1  0.91071163  0.55716480  0.19495705  1  0.108875  0  0.111827  0.1183  0  0.997368  0
H  H29  1  0.58929157  0.44283225  0.69495614  1  0.108896  0  0.111816  0.118302  0  0.997277  0
H  H30  1  0.41070949  0.94283288  0.80504401  1  0.108885  0  0.11181  0.118281  0  0.997365  0
H  H31  1  0.08929252  0.05716664  0.30504430  1  0.108894  0  0.111803  0.118284  0  0.997302  0
H  H32  1  0.50519933  0.48562020  0.21290196  1  0.113113  0  0.106575  0.109345  0  1.011632  0
H  H33  1  0.99480298  0.51437948  0.71290259  1  0.113023  0  0.10655  0.109289  0  1.011635  0
H  H34  1  0.00519648  0.01437859  0.78709790  1  0.113018  0  0.106552  0.109259  0  1.011636  0
H  H35  1  0.49480353  0.98561914  0.28709856  1  0.113052  0  0.106559  0.109258  0  1.011667  0
H  H36  1  0.53643301  0.44249347  0.33261655  1  0.088752  0  0.102588  0.103721  0  1.028783  0
H  H37  1  0.96356885  0.55750846  0.83261721  1  0.088715  0  0.102592  0.103745  0  1.028811  0
H  H38  1  0.03643067  0.05750791  0.66738335  1  0.088733  0  0.102588  0.103747  0  1.028794  0
H  H39  1  0.46356883  0.94249099  0.16738440  1  0.088708  0  0.102612  0.103787  0  1.028748  0
H  H40  1  0.94448701  0.65277749  0.42584242  1  0.118332  0  0.127625  0.063223  0  1.00374  0
H  H41  1  0.55551524  0.34722316  0.92584035  1  0.11826  0  0.127572  0.063125  0  1.003816  0
H  H42  1  0.44448664  0.84722534  0.57415868  1  0.118293  0  0.12759  0.063152  0  1.00377  0
H  H43  1  0.05551149  0.15277399  0.07415859  1  0.118327  0  0.127596  0.063202  0  1.003746  0
H  H44  1  0.18867265  0.88953660  0.50831488  1  0.083612  0  0.105107  0.123569  0  1.017687  0
H  H45  1  0.31133293  0.11046753  0.00831647  1  0.083627  0  0.105134  0.123608  0  1.017585  0
H  H46  1  0.68867324  0.61046848  0.49168447  1  0.083691  0  0.105122  0.123628  0  1.017604  0
H  H47  1  0.81132833  0.38953246  0.99168372  1  0.083683  0  0.105118  0.12358  0  1.017631  0
H  H48  1  0.27754898  0.76898336  0.47986567  1  0.024906  0  0.097883  0.108098  0  1.025287  0
H  H49  1  0.22245281  0.23101354  0.97986214  1  0.024918  0  0.097896  0.108143  0  1.025336  0
H  H50  1  0.77754697  0.73102097  0.52013475  1  0.024913  0  0.097915  0.108139  0  1.025365  0
H  H51  1  0.72244969  0.26898380  0.02013600  1  0.024883  0  0.097913  0.108126  0  1.025342  0
H  H52  1  0.17563061  0.75485946  0.54980115  1  0.12566  0  0.112559  0.143006  0  1.014185  0
H  H53  1  0.32436838  0.24514997  0.04979806  1  0.125743  0  0.112562  0.143036  0  1.014078  0
H  H54  1  0.67563025  0.74514646  0.45019965  1  0.125909  0  0.112561  0.143016  0  1.014139  0
H  H55  1  0.82436534  0.25485175  0.95020019  1  0.125897  0  0.112535  0.142969  0  1.014133  0
H  H56  1  0.02130431  0.93382353  0.43158927  1  0.088587  0  0.103128  0.129493  0  1.022398  0
H  H57  1  0.47869245  0.06617741  0.93158578  1  0.088658  0  0.103128  0.129468  0  1.022421  0
H  H58  1  0.52130419  0.56617795  0.56840940  1  0.088588  0  0.103121  0.129477  0  1.022389  0
H  H59  1  0.97869461  0.43382023  0.06840970  1  0.088621  0  0.103111  0.129483  0  1.0224  0
H  H60  1  0.95120415  0.82022507  0.38508050  1  0.106667  0  0.106231  0.125485  0  1.0524  0
H  H61  1  0.54879407  0.17977540  0.88507769  1  0.106667  0  0.106218  0.125505  0  1.052384  0
H  H62  1  0.45120081  0.67977436  0.61491815  1  0.106653  0  0.10622  0.125458  0  1.052385  0
H  H63  1  0.04879557  0.32022429  0.11491830  1  0.106675  0  0.106229  0.125471  0  1.052424  0
H  H64  1  0.11671805  0.86050515  0.37262390  1  0.036088  0  0.097818  0.115396  0  1.005097  0
H  H65  1  0.38327846  0.13949723  0.87262139  1  0.036073  0  0.097843  0.115489  0  1.005007  0
H  H66  1  0.61671442  0.63949559  0.62737634  1  0.036131  0  0.097804  0.11538  0  1.005074  0
H  H67  1  0.88328270  0.36050455  0.12737594  1  0.036102  0  0.097812  0.115378  0  1.005101  0
H  H68  1  0.07444662  0.70354770  0.76006657  1  0.094331  0  0.106204  0.130406  0  1.026351  0
H  H69  1  0.42555037  0.29645247  0.26006612  1  0.094359  0  0.106194  0.130434  0  1.026302  0
H  H70  1  0.57444448  0.79644874  0.23993755  1  0.09427  0  0.106166  0.130385  0  1.026264  0
H  H71  1  0.92555602  0.20354767  0.73993372  1  0.094283  0  0.106172  0.130351  0  1.026368  0
H  H72  1  0.18380981  0.68414912  0.87551416  1  0.081527  0  0.106127  0.103032  0  1.009987  0
H  H73  1  0.31619058  0.31584816  0.37551509  1  0.081518  0  0.106136  0.103123  0  1.009876  0
H  H74  1  0.68379947  0.81584744  0.12448812  1  0.08152  0  0.106149  0.103204  0  1.009924  0
H  H75  1  0.81619666  0.18414929  0.62448413  1  0.081441  0  0.106108  0.103116  0  1.009941  0
H  H76  1  0.41920085  0.60817769  0.84946973  1  0.063179  0  0.097025  0.103481  0  1.020662  0
H  H77  1  0.08079845  0.39181862  0.34947003  1  0.063179  0  0.097025  0.103478  0  1.02066  0
H  H78  1  0.91919268  0.89182170  0.15052986  1  0.063053  0  0.096986  0.103491  0  1.020581  0
H  H79  1  0.58080357  0.10817685  0.65052894  1  0.06299  0  0.09703  0.103537  0  1.020677  0
H  H80  1  0.42042963  0.75762073  0.84975644  1  0.029877  0  0.099914  0.110769  0  0.998614  0
H  H81  1  0.07956967  0.24237644  0.34975651  1  0.029789  0  0.099898  0.110796  0  0.998596  0
H  H82  1  0.92042220  0.74237781  0.15024217  1  0.030016  0  0.099907  0.110825  0  0.998545  0
H  H83  1  0.57957502  0.25761989  0.65024196  1  0.030035  0  0.099913  0.110834  0  0.998541  0
H  H84  1  0.47607486  0.75096155  0.73546169  1  0.105275  0  0.101726  0.125941  0  1.007049  0
H  H85  1  0.02392396  0.24903765  0.23546171  1  0.105237  0  0.101721  0.125935  0  1.00705  0
H  H86  1  0.97607469  0.74903876  0.26453650  1  0.105253  0  0.101717  0.125949  0  1.00708  0
H  H87  1  0.52392785  0.25096031  0.76453572  1  0.105306  0  0.101698  0.12586  0  1.007112  0
H  H88  1  0.44561211  0.60260037  0.73389657  1  0.088756  0  0.104566  0.125765  0  1.002524  0
H  H89  1  0.05438670  0.39739797  0.23389733  1  0.088785  0  0.104571  0.125797  0  1.002506  0
H  H90  1  0.94560830  0.89739905  0.26610257  1  0.088807  0  0.104601  0.125825  0  1.002451  0
H  H91  1  0.55439037  0.10259917  0.76610111  1  0.088754  0  0.104581  0.125805  0  1.002467  0
H  H92  1  0.22562586  0.50306758  0.41018851  1  0.104083  0  0.109245  0.135581  0  1.031099  0
H  H93  1  0.27437371  0.49693242  0.91018544  1  0.104884  0  0.109246  0.135574  0  1.031122  0
H  H94  1  0.72562841  0.99693159  0.58981185  1  0.104207  0  0.109249  0.135571  0  1.031133  0
H  H95  1  0.77436952  0.00307094  0.08981178  1  0.104168  0  0.109258  0.135556  0  1.031065  0
H  H96  1  0.44358401  0.59431838  0.44878507  1  0.092802  0  0.109931  0.105158  0  1.004742  0
H  H97  1  0.05641379  0.40568349  0.94878260  1  0.092743  0  0.109901  0.105086  0  1.004706  0
H  H98  1  0.94359012  0.90568019  0.55121701  1  0.092845  0  0.109891  0.105102  0  1.004667  0
H  H99  1  0.55640957  0.09432472  0.05121585  1  0.092832  0  0.109912  0.105112  0  1.00474  0
H  H100  1  0.53987001  0.69280996  0.34364287  1  0.088306  0  0.097611  0.106052  0  1.022095  0
H  H101  1  0.96013190  0.30718776  0.84363923  1  0.088367  0  0.097657  0.106075  0  1.022088  0
H  H102  1  0.03986993  0.80718558  0.65636073  1  0.08834  0  0.097637  0.106068  0  1.022108  0
H  H103  1  0.46012758  0.19281497  0.15636016  1  0.088311  0  0.097609  0.106022  0  1.022137  0
H  H104  1  0.44008250  0.79120217  0.38268142  1  0.061238  0  0.101149  0.116026  0  0.976425  0
H  H105  1  0.05991984  0.20879770  0.88267866  1  0.061065  0  0.10114  0.116047  0  0.976411  0
H  H106  1  0.94008184  0.70879640  0.61732065  1  0.061236  0  0.10115  0.116056  0  0.976441  0
H  H107  1  0.55991620  0.29120626  0.11732175  1  0.060993  0  0.101145  0.116019  0  0.976455  0
H  H108  1  0.29785637  0.78532858  0.28889297  1  0.048925  0  0.098314  0.115622  0  1.021459  0
H  H109  1  0.20214461  0.21467172  0.78888890  1  0.04885  0  0.098328  0.115593  0  1.021433  0
H  H110  1  0.79785418  0.71466897  0.71110846  1  0.048845  0  0.098309  0.115629  0  1.021464  0
H  H111  1  0.70214040  0.28532986  0.21111020  1  0.04886  0  0.09832  0.115621  0  1.021403  0
H  H112  1  0.38713548  0.67202672  0.25515006  1  0.075334  0  0.105672  0.125255  0  0.984096  0
H  H113  1  0.11286535  0.32797427  0.75514754  1  0.075301  0  0.105684  0.125239  0  0.984125  0
H  H114  1  0.88713264  0.82797093  0.74485244  1  0.075276  0  0.105676  0.125237  0  0.984096  0
H  H115  1  0.61286305  0.17202890  0.24485146  1  0.075251  0  0.105705  0.125248  0  0.984127  0
C  C116  1  0.86912949  0.17310975  0.47925015  1  1.556953  0  0.221784  0.587368  0  4.089211  0
C  C117  1  0.63087010  0.82688943  0.97925134  1  1.556944  0  0.221676  0.587225  0  4.089286  0
C  C118  1  0.36912983  0.32689031  0.52074962  1  1.556918  0  0.221777  0.587366  0  4.089288  0
C  C119  1  0.13086808  0.67311132  0.02074990  1  1.556972  0  0.221672  0.587174  0  4.089391  0
C  C120  1  0.74496835  0.10932990  0.46197913  1  0.499928  0  -0.019499  0.13304  0  3.950433  0
C  C121  1  0.75503116  0.89066750  0.96198153  1  0.500252  0  -0.019537  0.133021  0  3.950311  0
C  C122  1  0.24496983  0.39067002  0.53801953  1  0.500284  0  -0.019508  0.133096  0  3.950351  0
C  C123  1  0.25502912  0.60933255  0.03801936  1  0.500231  0  -0.019559  0.133081  0  3.950323  0
C  C124  1  0.72575095  0.11331846  0.38723031  1  -0.084381  0  -0.252158  -0.422205  0  3.894379  0
C  C125  1  0.77424921  0.88668202  0.88723125  1  -0.084239  0  -0.252166  -0.422228  0  3.894436  0
C  C126  1  0.22574984  0.38668399  0.61276931  1  -0.084378  0  -0.252178  -0.422214  0  3.894449  0
C  C127  1  0.27424942  0.61332061  0.11276867  1  -0.084207  0  -0.252219  -0.42243  0  3.894333  0
C  C128  1  0.76150428  0.44739243  0.40108293  1  1.556764  0  0.223376  0.598109  0  4.172229  0
C  C129  1  0.73849497  0.55260981  0.90108186  1  1.556944  0  0.223327  0.598134  0  4.172134  0
C  C130  1  0.26150261  0.05260836  0.59891771  1  1.556954  0  0.223322  0.598029  0  4.172219  0
C  C131  1  0.23849756  0.94739022  0.09891803  1  1.556948  0  0.223362  0.598097  0  4.172202  0
C  C132  1  0.74096552  0.47570410  0.33024735  1  0.049002  0  -0.014763  -0.032729  0  3.948998  0
C  C133  1  0.75903730  0.52429697  0.83024627  1  0.049068  0  -0.014731  -0.032635  0  3.948895  0
C  C134  1  0.24096217  0.02429582  0.66975375  1  0.049088  0  -0.01473  -0.032592  0  3.948948  0
C  C135  1  0.25903830  0.97570223  0.16975413  1  0.049071  0  -0.014736  -0.032561  0  3.948868  0
C  C136  1  0.84631689  0.50875625  0.29166726  1  -0.003327  0  -0.078041  -0.083283  0  3.945283  0
C  C137  1  0.65368382  0.49124293  0.79166601  1  -0.003343  0  -0.078062  -0.083365  0  3.945245  0
C  C138  1  0.34631442  0.99124305  0.70833373  1  -0.003342  0  -0.078051  -0.083345  0  3.945239  0
C  C139  1  0.15368525  0.00875603  0.20833451  1  -0.003325  0  -0.078003  -0.08326  0  3.945269  0
C  C140  1  0.82921299  0.53154023  0.22535540  1  -0.114213  0  -0.079441  -0.092799  0  3.959092  0
C  C141  1  0.67079034  0.46845781  0.72535512  1  -0.114241  0  -0.079407  -0.09274  0  3.95896  0
C  C142  1  0.32921173  0.96845821  0.77464508  1  -0.114223  0  -0.079411  -0.092728  0  3.958957  0
C  C143  1  0.17078919  0.03154032  0.27464542  1  -0.114218  0  -0.079439  -0.092784  0  3.959023  0
C  C144  1  0.70651912  0.52328513  0.19670643  1  -0.034325  0  -0.016366  -0.044542  0  3.982954  0
C  C145  1  0.79348409  0.47671278  0.69670678  1  -0.034315  0  -0.016382  -0.044607  0  3.983115  0
C  C146  1  0.20651703  0.97671231  0.80329392  1  -0.034322  0  -0.016397  -0.044667  0  3.983041  0
C  C147  1  0.29348401  0.02328550  0.30329438  1  -0.034309  0  -0.016411  -0.044642  0  3.983052  0
C  C148  1  0.60037278  0.49184770  0.23553484  1  -0.044223  0  -0.083204  -0.103808  0  3.973639  0
C  C149  1  0.89962962  0.50815038  0.73553486  1  -0.044218  0  -0.083131  -0.103614  0  3.973589  0
C  C150  1  0.10037079  0.00815035  0.76446562  1  -0.044224  0  -0.083065  -0.103465  0  3.973505  0
C  C151  1  0.39962912  0.99184728  0.26446668  1  -0.044344  0  -0.08309  -0.103486  0  3.973567  0
C  C152  1  0.61767663  0.46777246  0.30190559  1  -0.126137  0  -0.081598  -0.093557  0  3.964543  0
C  C153  1  0.88232606  0.53222933  0.80190465  1  -0.126152  0  -0.081653  -0.093704  0  3.964687  0
C  C154  1  0.11767439  0.03222646  0.69809587  1  -0.126184  0  -0.081685  -0.093796  0  3.96475  0
C  C155  1  0.38232620  0.96777002  0.19809638  1  -0.126123  0  -0.081718  -0.09388  0  3.964721  0
C  C156  1  0.69161271  0.55077284  0.12529128  1  1.577629  0  0.221459  0.589365  0  4.190051  0
C  C157  1  0.80838826  0.44922475  0.62529161  1  1.577622  0  0.221434  0.589353  0  4.190135  0
C  C158  1  0.19161378  0.94922459  0.87470905  1  1.577629  0  0.221481  0.589447  0  4.190016  0
C  C159  1  0.30838853  0.05077439  0.37471006  1  1.577892  0  0.221472  0.589381  0  4.190092  0
C  C160  1  0.02250386  0.66596641  0.46185941  1  1.352915  0  0.174524  0.28884  0  4.091639  0
C  C161  1  0.47749882  0.33403466  0.96185729  1  1.35291  0  0.174611  0.288908  0  4.091742  0
C  C162  1  0.52250305  0.83403592  0.53814221  1  1.352942  0  0.174629  0.289018  0  4.09181  0
C  C163  1  0.97749465  0.16596297  0.03814162  1  1.352959  0  0.174604  0.288917  0  4.09168  0
C  C164  1  0.18600177  0.79693429  0.50211567  1  0.240802  0  -0.137908  -0.27867  0  3.863628  0
C  C165  1  0.31399992  0.20306897  0.00211398  1  0.240714  0  -0.137933  -0.278797  0  3.863552  0
C  C166  1  0.68600155  0.70306994  0.49788465  1  0.240489  0  -0.137971  -0.278823  0  3.863674  0
C  C167  1  0.81399715  0.29693018  0.99788475  1  0.240522  0  -0.137912  -0.278641  0  3.863622  0
C  C168  1  0.03954682  0.85027714  0.40925036  1  0.257809  0  -0.140661  -0.291514  0  3.880226  0
C  C169  1  0.46045081  0.14972370  0.90924746  1  0.257713  0  -0.140689  -0.291611  0  3.880193  0
C  C170  1  0.53954498  0.64972266  0.59074882  1  0.257807  0  -0.140644  -0.291461  0  3.880108  0
C  C171  1  0.96045294  0.35027562  0.09074898  1  0.257809  0  -0.140643  -0.291463  0  3.88023  0
C  C172  1  0.27626958  0.70227007  0.71784810  1  0.94924  0  0.151379  0.457747  0  3.979522  0
C  C173  1  0.22373013  0.29772906  0.21784841  1  0.949235  0  0.151391  0.457731  0  3.979565  0
C  C174  1  0.77626955  0.79772660  0.28215281  1  0.949199  0  0.151372  0.457784  0  3.979532  0
C  C175  1  0.72373403  0.20226999  0.78215022  1  0.949163  0  0.151433  0.457855  0  3.979732  0
C  C176  1  0.17749239  0.69664368  0.76956751  1  -0.089814  0  -0.109252  -0.255188  0  3.898414  0
C  C177  1  0.32250658  0.30335653  0.26956744  1  -0.08983  0  -0.109208  -0.255139  0  3.898316  0
C  C178  1  0.67748925  0.80335458  0.23043526  1  -0.090076  0  -0.109204  -0.255101  0  3.898215  0
C  C179  1  0.82251121  0.19664093  0.73043179  1  -0.090012  0  -0.109173  -0.255035  0  3.898402  0
C  C180  1  0.23480712  0.68643878  0.82872429  1  -0.094311  0  -0.056519  0.019846  0  3.858154  0
C  C181  1  0.26519306  0.31355829  0.32872467  1  -0.094293  0  -0.056592  0.019675  0  3.858025  0
C  C182  1  0.73480085  0.81356125  0.17127707  1  -0.094069  0  -0.056609  0.019572  0  3.858117  0
C  C183  1  0.76519839  0.18643910  0.67127401  1  -0.094152  0  -0.05655  0.019696  0  3.858041  0
C  C184  1  0.37925662  0.68315492  0.82442541  1  0.030169  0  -0.164514  -0.172892  0  3.962446  0
C  C185  1  0.12074258  0.31684298  0.32442613  1  0.030214  0  -0.164504  -0.172948  0  3.962491  0
C  C186  1  0.87924940  0.81684443  0.17557365  1  0.03038  0  -0.164401  -0.17291  0  3.962334  0
C  C187  1  0.62074888  0.18315339  0.67557239  1  0.030399  0  -0.16448  -0.17304  0  3.962349  0
C  C188  1  0.40715648  0.68485887  0.75057223  1  -0.116277  0  -0.169134  -0.292316  0  3.902071  0
C  C189  1  0.09284241  0.31513869  0.25057242  1  -0.116275  0  -0.169137  -0.292323  0  3.902  0
C  C190  1  0.90715344  0.81513880  0.24942784  1  -0.116373  0  -0.16919  -0.292405  0  3.901993  0
C  C191  1  0.59284903  0.18485849  0.74942753  1  -0.116331  0  -0.169145  -0.292248  0  3.901858  0
C  C192  1  0.23902422  0.61806056  0.32150009  1  0.938838  0  0.1497  0.450106  0  3.982842  0
C  C193  1  0.26097594  0.38193903  0.82149732  1  0.939436  0  0.149699  0.449991  0  3.982848  0
C  C194  1  0.73902407  0.88193948  0.67850078  1  0.939065  0  0.149624  0.450032  0  3.982825  0
C  C195  1  0.76097133  0.11806005  0.17850037  1  0.940112  0  0.149642  0.450029  0  3.982882  0
C  C196  1  0.28034790  0.56802620  0.38426138  1  -0.080085  0  -0.10856  -0.260113  0  3.915962  0
C  C197  1  0.21965155  0.43197453  0.88425815  1  -0.081135  0  -0.108563  -0.26014  0  3.915958  0
C  C198  1  0.78035239  0.93197303  0.61573954  1  -0.080175  0  -0.108541  -0.260115  0  3.915972  0
C  C199  1  0.71964854  0.06802877  0.11574048  1  -0.081182  0  -0.108524  -0.260071  0  3.915907  0
C  C200  1  0.39164763  0.61702832  0.40408574  1  -0.080741  0  -0.052252  0.019718  0  3.839955  0
C  C201  1  0.10835191  0.38297164  0.90408330  1  -0.080759  0  -0.052226  0.019834  0  3.839834  0
C  C202  1  0.89165197  0.88297018  0.59591579  1  -0.080852  0  -0.052199  0.019817  0  3.839874  0
C  C203  1  0.60834888  0.11702897  0.09591472  1  -0.080869  0  -0.052201  0.019827  0  3.839828  0
C  C204  1  0.43880446  0.70750084  0.35804334  1  -0.041616  0  -0.164215  -0.176801  0  3.965448  0
C  C205  1  0.06119681  0.29249892  0.85804022  1  -0.041443  0  -0.16424  -0.176853  0  3.96552  0
C  C206  1  0.93880596  0.79249687  0.64195824  1  -0.041636  0  -0.164239  -0.176878  0  3.9656  0
C  C207  1  0.56119219  0.20750504  0.14195872  1  -0.041406  0  -0.164223  -0.176831  0  3.965529  0
C  C208  1  0.34249403  0.70315101  0.30078965  1  -0.07455  0  -0.167773  -0.286543  0  3.909741  0
C  C209  1  0.15750700  0.29684764  0.80078664  1  -0.074784  0  -0.167842  -0.286493  0  3.909697  0
C  C210  1  0.84249385  0.79684574  0.69921133  1  -0.074682  0  -0.167805  -0.286557  0  3.909773  0
C  C211  1  0.65750357  0.20315303  0.19921192  1  -0.07465  0  -0.167862  -0.286525  0  3.909724  0
N  N212  1  0.07800549  0.76832181  0.45928897  1  -1.203618  0  -0.280771  0.033742  0  3.728765  0
N  N213  1  0.42199428  0.23168010  0.95928665  1  -1.203561  0  -0.280741  0.03384  0  3.728561  0
N  N214  1  0.57800550  0.73167973  0.54071123  1  -1.203657  0  -0.280747  0.033775  0  3.728661  0
N  N215  1  0.92199318  0.26831917  0.04071122  1  -1.203656  0  -0.280791  0.033687  0  3.728768  0
O  O216  1  0.85798275  0.26713022  0.51065221  1  -1.19266  0  -0.309135  -0.581554  0  2.465778  0
O  O217  1  0.64201966  0.73287025  0.01065603  1  -1.192708  0  -0.309036  -0.58147  0  2.465844  0
O  O218  1  0.35798185  0.23286984  0.48934902  1  -1.192695  0  -0.309096  -0.581519  0  2.465834  0
O  O219  1  0.14201805  0.76713051  0.98934424  1  -1.192698  0  -0.309028  -0.581427  0  2.465778  0
O  O220  1  0.97445767  0.13017938  0.46020129  1  -1.179452  0  -0.30379  -0.524512  0  2.349025  0
O  O221  1  0.52554377  0.86981887  0.96019997  1  -1.179425  0  -0.30379  -0.524462  0  2.349039  0
O  O222  1  0.47445815  0.36982081  0.53979909  1  -1.179469  0  -0.303804  -0.524532  0  2.34901  0
O  O223  1  0.02554273  0.63018006  0.03980017  1  -1.179473  0  -0.303781  -0.524455  0  2.349151  0
O  O224  1  0.63832750  0.15586089  0.49706957  1  -1.143119  0  -0.399525  -0.630436  0  2.429252  0
O  O225  1  0.86167409  0.84413837  0.99707006  1  -1.143189  0  -0.399489  -0.630386  0  2.42923  0
O  O226  1  0.13832683  0.34413975  0.50292995  1  -1.143127  0  -0.399537  -0.630443  0  2.429138  0
O  O227  1  0.36167390  0.65586095  0.00292997  1  -1.143149  0  -0.399477  -0.630366  0  2.429175  0
O  O228  1  0.87625430  0.45760357  0.42321477  1  -1.189355  0  -0.31134  -0.566259  0  2.387146  0
O  O229  1  0.62374408  0.54240047  0.92321209  1  -1.18927  0  -0.311271  -0.566248  0  2.38708  0
O  O230  1  0.37625252  0.04239736  0.57678698  1  -1.189264  0  -0.311279  -0.566191  0  2.387133  0
O  O231  1  0.12374658  0.95760283  0.07678719  1  -1.189232  0  -0.311292  -0.566221  0  2.387122  0
O  O232  1  0.66275022  0.41533702  0.43358903  1  -1.186029  0  -0.317437  -0.566081  0  2.363022  0
O  O233  1  0.83725014  0.58466367  0.93358862  1  -1.186175  0  -0.317467  -0.566124  0  2.362992  0
O  O234  1  0.16274942  0.08466536  0.56641247  1  -1.186218  0  -0.317479  -0.566101  0  2.363008  0
O  O235  1  0.33725157  0.91533563  0.06641187  1  -1.186226  0  -0.317467  -0.566107  0  2.363042  0
O  O236  1  0.58055931  0.53592264  0.09963440  1  -1.167509  0  -0.308254  -0.545414  0  2.36638  0
O  O237  1  0.91944349  0.46407228  0.59963536  1  -1.167307  0  -0.308267  -0.545471  0  2.366379  0
O  O238  1  0.08055954  0.96407295  0.90036532  1  -1.167477  0  -0.308236  -0.545441  0  2.366373  0
O  O239  1  0.41944288  0.03592870  0.40036594  1  -1.167321  0  -0.308279  -0.545458  0  2.366383  0
O  O240  1  0.79223587  0.58587130  0.09593235  1  -1.191335  0  -0.31258  -0.567073  0  2.439191  0
O  O241  1  0.70776788  0.41412615  0.59593202  1  -1.191553  0  -0.312558  -0.567046  0  2.439248  0
O  O242  1  0.29223604  0.91412539  0.90406760  1  -1.191394  0  -0.312604  -0.567114  0  2.439212  0
O  O243  1  0.20776639  0.08587117  0.40406905  1  -1.191787  0  -0.312554  -0.567066  0  2.439278  0
O  O244  1  0.05544415  0.58956941  0.50181167  1  -1.167527  0  -0.299438  -0.463051  0  2.38806  0
O  O245  1  0.44456044  0.41043043  0.00181092  1  -1.167471  0  -0.299484  -0.463052  0  2.388155  0
O  O246  1  0.55544231  0.91043125  0.49818998  1  -1.167512  0  -0.299499  -0.46314  0  2.388297  0
O  O247  1  0.94455639  0.08956802  0.99818893  1  -1.167565  0  -0.299471  -0.463066  0  2.388175  0
O  O248  1  0.25776508  0.71866578  0.65861086  1  -1.144042  0  -0.28041  -0.450355  0  2.123629  0
O  O249  1  0.24223341  0.28133307  0.15861116  1  -1.144018  0  -0.280379  -0.450308  0  2.123632  0
O  O250  1  0.75776721  0.78133087  0.34139003  1  -1.144064  0  -0.280377  -0.450346  0  2.123591  0
O  O251  1  0.74223661  0.21866514  0.84138749  1  -1.143963  0  -0.280476  -0.450482  0  2.1237  0
O  O252  1  0.13913988  0.59673696  0.29069231  1  -1.138075  0  -0.275092  -0.436429  0  2.120412  0
O  O253  1  0.36086111  0.40326249  0.79069116  1  -1.138072  0  -0.275046  -0.436325  0  2.120405  0
O  O254  1  0.63913797  0.90326210  0.70930698  1  -1.138017  0  -0.275019  -0.436341  0  2.120329  0
O  O255  1  0.86085950  0.09674012  0.20930811  1  -1.137982  0  -0.275053  -0.436398  0  2.120354  0
