# generated using pymatgen
data_KP2H11(C2O)6
_symmetry_space_group_name_H-M   'P 1'
_cell_length_a   5.82032739
_cell_length_b   7.66225706
_cell_length_c   14.92217223
_cell_angle_alpha   79.07623719
_cell_angle_beta   91.03221026
_cell_angle_gamma   86.06271373
_symmetry_Int_Tables_number   1
_chemical_formula_structural   KP2H11(C2O)6
_chemical_formula_sum   'K2 P4 H22 C24 O12'
_cell_volume   651.55411655
_cell_formula_units_Z   2
loop_
 _symmetry_equiv_pos_site_id
 _symmetry_equiv_pos_as_xyz
  1  'x, y, z'
loop_
 _atom_site_type_symbol
 _atom_site_label
 _atom_site_symmetry_multiplicity
 _atom_site_fract_x
 _atom_site_fract_y
 _atom_site_fract_z
 _atom_site_occupancy
 _atom_site_hle17_bader_spin_density
 _atom_site_hle17_ddec_charge
 _atom_site_hle17_ddec_spin_density
 _atom_site_hle17_ddec_sum_bond_order
 _atom_site_hle17_magmom
 _atom_site_hse06_10hf_bader_spin_density
 _atom_site_hse06_10hf_ddec_charge
 _atom_site_hse06_10hf_ddec_spin_density
 _atom_site_hse06_10hf_ddec_sum_bond_order
 _atom_site_hse06_10hf_magmom
 _atom_site_hse06_bader_spin_density
 _atom_site_hse06_ddec_charge
 _atom_site_hse06_ddec_spin_density
 _atom_site_hse06_ddec_sum_bond_order
 _atom_site_hse06_magmom
 _atom_site_pbe_bader_spin_density
 _atom_site_pbe_cm5_charge
 _atom_site_pbe_ddec_charge
 _atom_site_pbe_ddec_spin_density
 _atom_site_pbe_ddec_sum_bond_order
 _atom_site_pbe_magmom
K  K0  1  0.26971425  0.21249773  0.00006932  1  0  0.950225  0  0.44512  0  0  0.917388  0  0.608651  0  0  0.928433  0  0.589375  0  0  0.844751  0.908707  0  0.622825  0
K  K1  1  0.73026686  0.78751827  0.99993542  1  0  0.950229  0  0.445141  0  0  0.917386  0  0.608701  0  0  0.928456  0  0.589395  0  0  0.844759  0.908705  0  0.62288  0
P  P2  1  0.72771575  0.33952371  0.84580821  1  0  1.492468  0  4.739967  0  0  1.336705  0  5.235891  0  0  1.386527  0  5.195011  0  0  0.36977  1.301972  0  5.263563  0
P  P3  1  0.27228630  0.66047625  0.15418720  1  0  1.492493  0  4.739836  0  0  1.336757  0  5.235731  0  0  1.386575  0  5.194861  0  0  0.3698  1.302025  0  5.263403  0
P  P4  1  0.18336233  0.82595564  0.84006619  1  0  1.484296  0  4.790448  0  0  1.328837  0  5.285744  0  0  1.378802  0  5.24494  0  0  0.356736  1.294039  0  5.313255  0
P  P5  1  0.81663605  0.17403897  0.15993984  1  0  1.484288  0  4.790432  0  0  1.328868  0  5.28571  0  0  1.378838  0  5.244907  0  0  0.356752  1.294068  0  5.31322  0
H  H6  1  0.93765363  0.56355948  0.87092167  1  0  0.447455  0  0.866413  0  0  0.410514  0  0.938811  0  0  0.423164  0  0.92106  0  0  0.302992  0.401695  0  0.951149  0
H  H7  1  0.06234288  0.43643381  0.12908181  1  0  0.447548  0  0.866284  0  0  0.410531  0  0.93881  0  0  0.423181  0  0.921059  0  0  0.302986  0.401711  0  0.95115  0
H  H8  1  0.49846457  0.55067532  0.67822202  1  0  0.095452  0  0.963988  0  0  0.104283  0  1.028497  0  0  0.106442  0  1.028893  0  0  0.102592  0.102502  0  1.028705  0
H  H9  1  0.50155271  0.44932724  0.32177301  1  0  0.095464  0  0.963849  0  0  0.104312  0  1.028333  0  0  0.106475  0  1.028727  0  0  0.102602  0.102529  0  1.028554  0
H  H10  1  0.93626577  0.07357519  0.87969174  1  0  0.424148  0  0.899611  0  0  0.387705  0  0.97314  0  0  0.400092  0  0.955684  0  0  0.300328  0.379064  0  0.985259  0
H  H11  1  0.06373684  0.92642076  0.12030607  1  0  0.424051  0  0.899752  0  0  0.387654  0  0.973203  0  0  0.400039  0  0.955752  0  0  0.300329  0.379012  0  0.985323  0
H  H12  1  0.62707696  0.62731988  0.52146736  1  0  0.087425  0  0.986173  0  0  0.09763  0  1.050601  0  0  0.100031  0  1.050552  0  0  0.097792  0.096008  0  1.050574  0
H  H13  1  0.37293588  0.37269867  0.47853016  1  0  0.087267  0  0.986225  0  0  0.097504  0  1.050633  0  0  0.099896  0  1.050604  0  0  0.09773  0.095885  0  1.050605  0
H  H14  1  0.42080728  0.57725891  0.87632993  1  0  0.443092  0  0.864298  0  0  0.409487  0  0.93133  0  0  0.421304  0  0.914524  0  0  0.309286  0.401202  0  0.943082  0
H  H15  1  0.57919723  0.42273570  0.12366866  1  0  0.443116  0  0.86429  0  0  0.409507  0  0.931323  0  0  0.421322  0  0.91452  0  0  0.309279  0.401222  0  0.943075  0
H  H16  1  0.26855602  0.31076298  0.60113645  1  0  0.084612  0  0.997167  0  0  0.09505  0  1.061652  0  0  0.097055  0  1.062518  0  0  0.096826  0.093325  0  1.061716  0
H  H17  1  0.73145436  0.68926091  0.39885789  1  0  0.084659  0  0.997095  0  0  0.0951  0  1.061585  0  0  0.097071  0  1.062507  0  0  0.096824  0.093394  0  1.061627  0
H  H18  1  0.14267769  0.24093118  0.75713570  1  0  0.100086  0  0.969414  0  0  0.108609  0  1.0339  0  0  0.111725  0  1.032286  0  0  0.107539  0.106349  0  1.035094  0
H  H19  1  0.85733429  0.75907140  0.24285803  1  0  0.100189  0  0.969325  0  0  0.108705  0  1.033808  0  0  0.111828  0  1.032171  0  0  0.107563  0.106443  0  1.03501  0
H  H20  1  0.01022713  0.77136955  0.66112262  1  0  0.09713  0  0.963141  0  0  0.106103  0  1.027446  0  0  0.108263  0  1.027923  0  0  0.101421  0.104307  0  1.027685  0
H  H21  1  0.98975911  0.22862644  0.33888337  1  0  0.097138  0  0.963236  0  0  0.106137  0  1.027496  0  0  0.108292  0  1.02799  0  0  0.10143  0.104341  0  1.027734  0
H  H22  1  0.15640030  0.84960371  0.50690929  1  0  0.085812  0  0.985543  0  0  0.09565  0  1.050436  0  0  0.098065  0  1.050591  0  0  0.096429  0.093972  0  1.050399  0
H  H23  1  0.84357866  0.15039232  0.49309273  1  0  0.085914  0  0.985524  0  0  0.095782  0  1.050372  0  0  0.098198  0  1.050527  0  0  0.096493  0.0941  0  1.050333  0
H  H24  1  0.72673699  0.08948470  0.61457698  1  0  0.089498  0  0.979142  0  0  0.099817  0  1.042916  0  0  0.101927  0  1.043665  0  0  0.098077  0.098043  0  1.043082  0
H  H25  1  0.27326783  0.91048991  0.38542625  1  0  0.089453  0  0.979116  0  0  0.099756  0  1.042917  0  0  0.101864  0  1.043667  0  0  0.098048  0.097982  0  1.043085  0
H  H26  1  0.57997131  0.00984994  0.76738165  1  0  0.098613  0  0.968167  0  0  0.107456  0  1.032324  0  0  0.110898  0  1.029952  0  0  0.108014  0.104982  0  1.033981  0
H  H27  1  0.42002571  0.99013669  0.23262181  1  0  0.098682  0  0.968127  0  0  0.107522  0  1.032284  0  0  0.110982  0  1.029864  0  0  0.108053  0.105052  0  1.033935  0
C  C28  1  0.80971022  0.38868752  0.72879132  1  0  -0.272233  0  3.798094  0  0  -0.227504  0  4.03355  0  0  -0.238728  0  4.056206  0  0  -0.025965  -0.220086  0  4.018176  0
C  C29  1  0.19030155  0.61131906  0.27120336  1  0  -0.272204  0  3.798192  0  0  -0.227483  0  4.033652  0  0  -0.238707  0  4.056308  0  0  -0.025963  -0.220067  0  4.018283  0
C  C30  1  0.66719475  0.49779469  0.66107358  1  0  -0.026278  0  3.75599  0  0  -0.048818  0  4.00041  0  0  -0.047438  0  4.021559  0  0  -0.079086  -0.049508  0  3.986388  0
C  C31  1  0.33281207  0.50221190  0.33892315  1  0  -0.026454  0  3.755906  0  0  -0.049019  0  4.000384  0  0  -0.04764  0  4.021531  0  0  -0.079191  -0.049709  0  3.986361  0
C  C32  1  0.74181922  0.54075040  0.57191625  1  0  -0.116765  0  3.711545  0  0  -0.134473  0  3.959702  0  0  -0.138515  0  3.980291  0  0  -0.088954  -0.131605  0  3.945554  0
C  C33  1  0.25818971  0.45927350  0.42808078  1  0  -0.116397  0  3.711427  0  0  -0.134124  0  3.959539  0  0  -0.138172  0  3.980142  0  0  -0.088839  -0.131259  0  3.945387  0
C  C34  1  0.95968307  0.47633795  0.54727120  1  0  0.05182  0  3.767136  0  0  0.066637  0  3.996805  0  0  0.068319  0  4.018698  0  0  -0.005054  0.065589  0  3.981588  0
C  C35  1  0.04033647  0.52368323  0.45272669  1  0  0.051677  0  3.767115  0  0  0.06652  0  3.996781  0  0  0.068207  0  4.018662  0  0  -0.005076  0.065469  0  3.981569  0
C  C36  1  0.09940171  0.36559026  0.61616247  1  0  -0.111607  0  3.720164  0  0  -0.12957  0  3.967409  0  0  -0.133694  0  3.988742  0  0  -0.088726  -0.126799  0  3.953421  0
C  C37  1  0.90060945  0.63442165  0.38383035  1  0  -0.1115  0  3.720178  0  0  -0.129471  0  3.967394  0  0  -0.133581  0  3.988739  0  0  -0.088608  -0.126709  0  3.953391  0
C  C38  1  0.02730379  0.32368673  0.70533747  1  0  -0.027859  0  3.747289  0  0  -0.049628  0  3.988879  0  0  -0.048546  0  4.009596  0  0  -0.077328  -0.050007  0  3.974706  0
C  C39  1  0.97270786  0.67632118  0.29465708  1  0  -0.028122  0  3.747536  0  0  -0.049867  0  3.989122  0  0  -0.048792  0  4.009861  0  0  -0.077433  -0.050243  0  3.97495  0
C  C40  1  0.28355060  0.88549860  0.72537017  1  0  -0.263558  0  3.784687  0  0  -0.220451  0  4.022577  0  0  -0.231222  0  4.044695  0  0  -0.025611  -0.213345  0  4.007648  0
C  C41  1  0.71644426  0.11449469  0.27463400  1  0  -0.263534  0  3.784624  0  0  -0.220516  0  4.022642  0  0  -0.231295  0  4.04477  0  0  -0.025636  -0.213412  0  4.007714  0
C  C42  1  0.16703476  0.84173861  0.65057746  1  0  -0.036458  0  3.761762  0  0  -0.058612  0  4.006139  0  0  -0.057398  0  4.027313  0  0  -0.081213  -0.059271  0  3.992215  0
C  C43  1  0.83294996  0.15825738  0.34943055  1  0  -0.036533  0  3.762051  0  0  -0.058677  0  4.006478  0  0  -0.057463  0  4.027649  0  0  -0.081251  -0.059333  0  3.99255  0
C  C44  1  0.25163831  0.88691015  0.56300061  1  0  -0.114204  0  3.711466  0  0  -0.131491  0  3.959809  0  0  -0.135623  0  3.980512  0  0  -0.090142  -0.128561  0  3.945567  0
C  C45  1  0.74834658  0.11308317  0.43700700  1  0  -0.114227  0  3.711562  0  0  -0.131545  0  3.959902  0  0  -0.135679  0  3.9806  0  0  -0.090138  -0.128607  0  3.945653  0
C  C46  1  0.45466446  0.97675791  0.54663299  1  0  0.046043  0  3.765702  0  0  0.060279  0  3.996913  0  0  0.06189  0  4.018977  0  0  -0.006797  0.059293  0  3.981637  0
C  C47  1  0.54531716  0.02322745  0.45337005  1  0  0.046116  0  3.765629  0  0  0.060368  0  3.996812  0  0  0.061983  0  4.01887  0  0  -0.006683  0.059383  0  3.981538  0
C  C48  1  0.56913621  0.02003653  0.62273693  1  0  -0.112672  0  3.711392  0  0  -0.12893  0  3.958342  0  0  -0.132771  0  3.978961  0  0  -0.087067  -0.126439  0  3.944924  0
C  C49  1  0.43085417  0.97995145  0.37726981  1  0  -0.112519  0  3.711263  0  0  -0.128778  0  3.958243  0  0  -0.132617  0  3.978854  0  0  -0.08708  -0.126288  0  3.944836  0
C  C50  1  0.48593112  0.97511591  0.71022958  1  0  -0.020336  0  3.735142  0  0  -0.04247  0  3.979129  0  0  -0.041256  0  3.998926  0  0  -0.074322  -0.042964  0  3.965582  0
C  C51  1  0.51406744  0.02487205  0.28977307  1  0  -0.020533  0  3.735177  0  0  -0.042645  0  3.979168  0  0  -0.041422  0  3.998969  0  0  -0.07436  -0.043141  0  3.965631  0
O  O52  1  0.90574940  0.42444066  0.90154926  1  0  -0.810626  0  1.998851  0  0  -0.741113  0  2.237111  0  0  -0.763019  0  2.211745  0  0  -0.429395  -0.725586  0  2.254397  0
O  O53  1  0.09425029  0.57554864  0.09844855  1  0  -0.810718  0  1.998764  0  0  -0.741139  0  2.23703  0  0  -0.763048  0  2.211668  0  0  -0.42938  -0.725609  0  2.254312  0
O  O54  1  0.47854597  0.40145127  0.85522258  1  0  -0.845923  0  1.942468  0  0  -0.775387  0  2.18729  0  0  -0.799756  0  2.167441  0  0  -0.424185  -0.758081  0  2.200639  0
O  O55  1  0.52144884  0.59854608  0.14476711  1  0  -0.845937  0  1.942525  0  0  -0.775427  0  2.187417  0  0  -0.7998  0  2.167572  0  0  -0.424163  -0.758119  0  2.200766  0
O  O56  1  0.76293406  0.13287082  0.88191477  1  0  -0.798673  0  2.044215  0  0  -0.734162  0  2.288291  0  0  -0.755417  0  2.261888  0  0  -0.415099  -0.719059  0  2.306132  0
O  O57  1  0.23706548  0.86713050  0.11807382  1  0  -0.798541  0  2.044191  0  0  -0.734108  0  2.288292  0  0  -0.755362  0  2.261891  0  0  -0.415128  -0.719006  0  2.306133  0
O  O58  1  0.15762797  0.99060068  0.88439300  1  0  -0.874709  0  1.970351  0  0  -0.806332  0  2.223559  0  0  -0.830688  0  2.202169  0  0  -0.43763  -0.788931  0  2.237763  0
O  O59  1  0.84237220  0.00939392  0.11561368  1  0  -0.874727  0  1.9705  0  0  -0.806368  0  2.223694  0  0  -0.830728  0  2.202305  0  0  -0.437668  -0.788966  0  2.237897  0
O  O60  1  0.38250228  0.69907571  0.89685467  1  0  -0.798099  0  2.028747  0  0  -0.729538  0  2.263186  0  0  -0.750371  0  2.236643  0  0  -0.444074  -0.714746  0  2.281295  0
O  O61  1  0.61749551  0.30092025  0.10314654  1  0  -0.798016  0  2.028704  0  0  -0.729434  0  2.263125  0  0  -0.750265  0  2.236587  0  0  -0.444032  -0.714644  0  2.281233  0
O  O62  1  0.95956738  0.73387458  0.83744819  1  0  -0.848213  0  1.978629  0  0  -0.77372  0  2.221463  0  0  -0.798547  0  2.201555  0  0  -0.411951  -0.756118  0  2.234806  0
O  O63  1  0.04042925  0.26612269  0.16255960  1  0  -0.848282  0  1.978546  0  0  -0.773756  0  2.221422  0  0  -0.798583  0  2.201514  0  0  -0.411976  -0.756153  0  2.234764  0
