# generated using pymatgen
data_CuH8(C4O3)2
_symmetry_space_group_name_H-M   'P 1'
_cell_length_a   6.44629356
_cell_length_b   6.83090612
_cell_length_c   10.20535863
_cell_angle_alpha   94.45791685
_cell_angle_beta   90.00012229
_cell_angle_gamma   89.99899331
_symmetry_Int_Tables_number   1
_chemical_formula_structural   CuH8(C4O3)2
_chemical_formula_sum   'Cu2 H16 C16 O12'
_cell_volume   448.02350648
_cell_formula_units_Z   2
loop_
 _symmetry_equiv_pos_site_id
 _symmetry_equiv_pos_as_xyz
  1  'x, y, z'
loop_
 _atom_site_type_symbol
 _atom_site_label
 _atom_site_symmetry_multiplicity
 _atom_site_fract_x
 _atom_site_fract_y
 _atom_site_fract_z
 _atom_site_occupancy
 _atom_site_hle17_ddec_charge
 _atom_site_hle17_ddec_spin_density
 _atom_site_hle17_ddec_sum_bond_order
 _atom_site_hle17_magmom
 _atom_site_hse06_10hf_ddec_charge
 _atom_site_hse06_10hf_ddec_spin_density
 _atom_site_hse06_10hf_ddec_sum_bond_order
 _atom_site_hse06_10hf_magmom
 _atom_site_hse06_ddec_charge
 _atom_site_hse06_ddec_spin_density
 _atom_site_hse06_ddec_sum_bond_order
 _atom_site_hse06_magmom
 _atom_site_pbe_cm5_charge
 _atom_site_pbe_ddec_charge
 _atom_site_pbe_ddec_spin_density
 _atom_site_pbe_ddec_sum_bond_order
 _atom_site_pbe_magmom
Cu  Cu0  1  0.24352974  0.19501457  0.48023496  1  1.042408  0.741093  1.620016  0.539  1.056283  0.833893  1.979463  0.667  1.138229  0.90234  1.92165  0.751  0.715633  0.984505  0.780152  2.051592  0.609
Cu  Cu1  1  0.74352474  0.80497555  0.51977553  1  1.056751  -0.741299  1.597817  -0.539  1.056365  -0.833952  1.980487  -0.667  1.138233  -0.90236  1.922637  -0.751  0.715808  0.984508  -0.780215  2.052718  -0.609
H  H2  1  0.78369802  0.91765767  0.13024978  1  0.09751  -4.7e-05  0.953385  0.0  0.106986  -3.1e-05  1.015508  0.0  0.109893  -8e-06  1.014228  0.0  0.103243  0.104768  -0.000109  1.016743  0.0
H  H3  1  0.28370185  0.08232294  0.86976417  1  0.097567  4.9e-05  0.953428  0.0  0.107046  3.1e-05  1.015488  0.0  0.109954  8e-06  1.014207  0.0  0.103248  0.104828  0.000109  1.01672  0.0
H  H4  1  0.74961982  0.02113850  0.90150648  1  0.107084  -7.5e-05  0.956095  0.0  0.117465  -0.000207  1.013229  0.0  0.120633  -0.000121  1.012272  0.0  0.102391  0.114602  -0.000303  1.014856  0.0
H  H5  1  0.24963547  0.97884124  0.09850248  1  0.106922  7e-05  0.956111  0.0  0.117332  0.000207  1.013226  0.0  0.120503  0.000121  1.012266  0.0  0.102338  0.114473  0.000303  1.014844  0.0
H  H6  1  0.63861952  0.36227527  0.86723147  1  0.096956  -0.00031  0.946802  0.0  0.10791  -0.000389  1.004183  0.0  0.111303  -0.000269  1.001908  0.0  0.102935  0.10522  -0.000542  1.006267  0.0
H  H7  1  0.13862447  0.63773727  0.13275364  1  0.096965  0.000313  0.947029  0.0  0.107945  0.000389  1.004332  0.0  0.111342  0.000269  1.00205  0.0  0.102961  0.105255  0.000542  1.006408  0.0
H  H8  1  0.56962894  0.59999740  0.05854209  1  0.098117  2.6e-05  0.956314  0.0  0.109434  -7e-05  1.015796  0.0  0.1116  -4.2e-05  1.01638  0.0  0.104052  0.107816  -0.000165  1.015605  0.0
H  H9  1  0.06963653  0.40004125  0.94144728  1  0.098046  -2.8e-05  0.956291  0.0  0.109395  7e-05  1.015737  0.0  0.111563  4.2e-05  1.016316  0.0  0.104031  0.10777  0.000166  1.015551  0.0
H  H10  1  0.28833057  0.86077430  0.35447027  1  0.438835  -0.00031  0.844219  -0.001  0.410626  0.000353  0.911225  0.0  0.421831  0.000224  0.894955  0.0  0.304605  0.40259  0.000451  0.922806  0.0
H  H11  1  0.78830717  0.13919313  0.64551652  1  0.438977  0.000309  0.844214  0.001  0.410809  -0.000354  0.910935  0.0  0.422009  -0.000225  0.894668  0.0  0.304719  0.402779  -0.000452  0.922509  0.0
H  H12  1  0.06365173  0.95553635  0.33807239  1  0.428407  -0.00055  0.86514  -0.001  0.400393  -2.3e-05  0.932016  0.0  0.412782  -0.000107  0.913979  -0.001  0.299179  0.391673  2.4e-05  0.944649  0.0
H  H13  1  0.56367045  0.04446710  0.66193271  1  0.428338  0.00055  0.865901  0.001  0.400409  2.2e-05  0.932091  0.0  0.412804  0.000106  0.914048  0.001  0.299128  0.391689  -2.5e-05  0.944718  0.0
H  H14  1  0.00527555  0.45316480  0.37481776  1  0.430952  -0.000131  0.861407  0.0  0.404783  0.000344  0.921758  0.001  0.417153  0.000318  0.904164  0.001  0.296966  0.395876  0.000343  0.934328  0.001
H  H15  1  0.50529427  0.54682941  0.62517207  1  0.431127  0.000129  0.861743  0.0  0.40497  -0.000345  0.921589  -0.001  0.41734  -0.00032  0.903994  -0.001  0.29707  0.396069  -0.000344  0.934152  -0.001
H  H16  1  0.24474309  0.47922282  0.34041134  1  0.421729  -0.000362  0.884735  -0.001  0.393992  0.000153  0.94473  0.0  0.405689  1.8e-05  0.928122  0.0  0.291948  0.385636  0.000284  0.956482  0.0
H  H17  1  0.74470346  0.52079378  0.65958196  1  0.421594  0.000362  0.885013  0.001  0.393928  -0.000152  0.944779  0.0  0.405623  -1.8e-05  0.928176  0.0  0.291948  0.385579  -0.000285  0.956522  0.0
C  C18  1  0.63818676  0.39342282  0.20178581  1  -0.057571  -0.009007  3.718301  -0.01  -0.042088  -0.004815  3.945697  -0.006  -0.046756  -0.002886  3.967353  -0.004  -0.007205  -0.039222  -0.006454  3.931812  -0.007
C  C19  1  0.13818230  0.60658523  0.79822257  1  -0.057409  0.008963  3.718815  0.01  -0.041984  0.004813  3.946106  0.006  -0.046664  0.002882  3.967774  0.004  -0.00732  -0.039129  0.00645  3.932244  0.007
C  C20  1  0.69761962  0.19951564  0.22180725  1  -0.06937  -0.014144  3.724823  -0.015  -0.057045  -0.00624  3.951342  -0.007  -0.066516  -0.004003  3.975194  -0.005  -0.014672  -0.050823  -0.008168  3.93592  -0.009
C  C21  1  0.19762706  0.80045317  0.77821673  1  -0.069064  0.014197  3.724908  0.015  -0.056758  0.006241  3.951402  0.007  -0.066219  0.004008  3.97525  0.005  -0.014572  -0.050542  0.008172  3.935994  0.009
C  C22  1  0.73845495  0.06720145  0.11336697  1  -0.058337  0.001711  3.720332  0.002  -0.080565  -6.7e-05  3.968558  0.0  -0.079751  0.00021  3.98917  0.0  -0.079954  -0.081139  -0.000241  3.955006  0.0
C  C23  1  0.23843244  0.93278586  0.88663161  1  -0.058678  -0.001761  3.7213  -0.002  -0.080878  6.8e-05  3.969477  0.0  -0.080069  -0.000213  3.990092  0.0  -0.080094  -0.081449  0.000241  3.955926  0.0
C  C24  1  0.71816839  0.12466800  0.98585200  1  -0.069282  -0.006903  3.747854  -0.006  -0.087159  -0.001918  4.004913  -0.002  -0.090755  -0.001213  4.026299  -0.001  -0.086761  -0.08441  -0.002719  3.990608  -0.002
C  C25  1  0.21813754  0.87534905  0.01414031  1  -0.069073  0.006963  3.748171  0.006  -0.08697  0.001918  4.005169  0.002  -0.090568  0.001216  4.026562  0.001  -0.086701  -0.084227  0.00272  3.990859  0.002
C  C26  1  0.65495820  0.31579551  0.96646510  1  -0.049415  0.000226  3.741648  0.0  -0.064957  -0.000634  3.998928  -0.001  -0.06482  -0.000169  4.017951  0.0  -0.08243  -0.064751  -0.001002  3.98587  -0.001
C  C27  1  0.15494487  0.68422256  0.03353699  1  -0.049317  -0.000276  3.74206  0.0  -0.064839  0.000635  3.999299  0.001  -0.064707  0.000166  4.018328  0.0  -0.082429  -0.064623  0.001002  3.986228  0.001
C  C28  1  0.61612992  0.45016981  0.07393578  1  -0.083343  -0.00479  3.733774  -0.004  -0.106795  -0.001882  3.982028  -0.002  -0.109764  -0.001231  4.004327  -0.001  -0.083922  -0.104869  -0.002617  3.967166  -0.003
C  C29  1  0.11615179  0.54987536  0.92606575  1  -0.083517  0.004834  3.734385  0.005  -0.107009  0.001881  3.982645  0.002  -0.10998  0.001232  4.004954  0.001  -0.083922  -0.105069  0.002616  3.967781  0.003
C  C30  1  0.61070311  0.54675123  0.31391475  1  0.68007  0.0044  3.856653  0.007  0.626231  0.00043  4.164886  0.003  0.664379  0.0009  4.154088  0.003  0.224893  0.600347  -1.1e-05  4.169758  0.003
C  C31  1  0.11070104  0.45326461  0.68609892  1  0.679906  -0.004403  3.854469  -0.007  0.62614  -0.000435  4.163913  -0.003  0.664294  -0.000902  4.153119  -0.003  0.225042  0.600257  7e-06  4.168798  -0.003
C  C32  1  0.69506553  0.13232745  0.35746733  1  0.661765  0.000671  3.876031  0.004  0.618978  -0.002091  4.17692  0.0  0.658477  -0.001265  4.165244  0.0  0.212429  0.591891  -0.002772  4.181373  0.0
C  C33  1  0.19505883  0.86763417  0.64252785  1  0.662029  -0.000679  3.875178  -0.004  0.619249  0.002088  4.176288  0.0  0.658757  0.00126  4.164603  0.0  0.212649  0.592147  0.002769  4.180754  0.0
O  O34  1  0.77501897  0.58956008  0.38207589  1  -0.601104  -0.093551  2.126123  -0.125  -0.563424  -0.056768  2.39598  -0.083  -0.607214  -0.043279  2.387835  -0.067  -0.306062  -0.531176  -0.06462  2.401977  -0.091
O  O35  1  0.27507483  0.41049560  0.61793326  1  -0.598353  0.09361  2.125908  0.125  -0.563476  0.056798  2.394777  0.083  -0.607285  0.043295  2.386648  0.067  -0.306136  -0.531245  0.064649  2.400778  0.091
O  O36  1  0.43965831  0.63480904  0.33215309  1  -0.635124  0.001105  2.01339  0.0  -0.587802  0.000749  2.25201  0.0  -0.613177  0.001081  2.23733  0.001  -0.303164  -0.568425  0.000748  2.260108  0.0
O  O37  1  0.93964327  0.36519691  0.66784479  1  -0.634318  -0.001099  2.011905  0.0  -0.587786  -0.000749  2.251369  0.0  -0.613159  -0.001083  2.236681  -0.001  -0.303176  -0.568412  -0.000749  2.25947  0.0
O  O38  1  0.58605028  0.22276951  0.44391593  1  -0.63345  -0.002558  2.076365  -0.003  -0.604507  -0.00126  2.344167  -0.001  -0.631319  -0.000477  2.329912  0.0  -0.320091  -0.582155  -0.001908  2.353157  -0.002
O  O39  1  0.08602785  0.77721011  0.55607616  1  -0.635645  0.002577  2.074925  0.003  -0.604563  0.001259  2.344364  0.001  -0.63137  0.000473  2.330095  0.0  -0.320075  -0.582196  0.001907  2.353362  0.002
O  O40  1  0.80471621  0.97698665  0.37654816  1  -0.660299  -0.082638  2.140837  -0.11  -0.62941  -0.050975  2.43127  -0.074  -0.668887  -0.037995  2.416598  -0.058  -0.326203  -0.59832  -0.059738  2.440234  -0.083
O  O41  1  0.30475590  0.02299501  0.62348449  1  -0.658008  0.082703  2.142106  0.11  -0.62971  0.050997  2.430845  0.074  -0.669222  0.03801  2.4162  0.058  -0.326299  -0.59863  0.059762  2.439808  0.083
O  O42  1  0.21589865  0.98293054  0.33493613  1  -0.79128  0.060176  1.954029  0.078  -0.757391  0.044732  2.167292  0.062  -0.789347  0.035129  2.133517  0.052  -0.568338  -0.732651  0.050409  2.193407  0.067
O  O43  1  0.71590082  0.01702493  0.66503719  1  -0.794175  -0.060151  1.953187  -0.078  -0.757613  -0.044722  2.167665  -0.062  -0.789554  -0.035126  2.133858  -0.052  -0.568418  -0.73286  -0.050397  2.193798  -0.067
O  O44  1  0.13427900  0.37804018  0.35130297  1  -0.801493  0.059497  1.918754  0.077  -0.771926  0.043697  2.125967  0.062  -0.803616  0.034341  2.089554  0.051  -0.579571  -0.746955  0.049318  2.15355  0.066
O  O45  1  0.63425610  0.62196810  0.64866427  1  -0.804431  -0.05946  1.917621  -0.077  -0.772015  -0.043689  2.126455  -0.062  -0.803671  -0.03434  2.089982  -0.051  -0.5797  -0.746998  -0.049307  2.153967  -0.066
