# generated using pymatgen
data_AlC12S3(BrO2)3
_symmetry_space_group_name_H-M   'P 1'
_cell_length_a   3.99190989
_cell_length_b   20.14034901
_cell_length_c   20.14025658
_cell_angle_alpha   120.00011666
_cell_angle_beta   89.99978187
_cell_angle_gamma   90.00009538
_symmetry_Int_Tables_number   1
_chemical_formula_structural   AlC12S3(BrO2)3
_chemical_formula_sum   'Al2 C24 S6 Br6 O12'
_cell_volume   1402.30615923
_cell_formula_units_Z   2
loop_
 _symmetry_equiv_pos_site_id
 _symmetry_equiv_pos_as_xyz
  1  'x, y, z'
loop_
 _atom_site_type_symbol
 _atom_site_label
 _atom_site_symmetry_multiplicity
 _atom_site_fract_x
 _atom_site_fract_y
 _atom_site_fract_z
 _atom_site_occupancy
 _atom_site_pbe_bader_charge
 _atom_site_pbe_bader_spin_density
 _atom_site_pbe_cm5_charge
 _atom_site_pbe_ddec_charge
 _atom_site_pbe_ddec_spin_density
 _atom_site_pbe_ddec_sum_bond_order
 _atom_site_pbe_magmom
Al  Al0  1  0.99997242  0.50000017  0.49999903  1  2.505744  0  0.425166  1.606176  0  2.555887  0
Al  Al1  1  0.99997302  0.16666684  0.83333144  1  2.505776  0  0.425059  1.606083  0  2.556037  0
C  C2  1  0.50028261  0.44075251  0.38272763  1  1.554837  0  0.273207  0.685306  0  4.076913  0
C  C3  1  0.50028851  0.44197619  0.55924718  1  1.575025  0  0.273173  0.685316  0  4.076814  0
C  C4  1  0.50029174  0.61727326  0.55802544  1  1.672612  0  0.273131  0.685288  0  4.076993  0
C  C5  1  0.50029067  0.22468376  0.77407489  1  1.575983  0  0.273218  0.685264  0  4.077117  0
C  C6  1  0.50029496  0.04939379  0.77531635  1  1.67343  0  0.273108  0.685032  0  4.077186  0
C  C7  1  0.50029407  0.22592463  0.95060705  1  1.55537  0  0.273079  0.68512  0  4.077059  0
C  C8  1  0.49017941  0.42888453  0.67994578  1  -0.007287  0  -0.029555  0.051285  0  4.007512  0
C  C9  1  0.49016134  0.23777218  0.65336962  1  -0.007712  0  -0.029708  0.051134  0  4.007401  0
C  C10  1  0.49874734  0.39938861  0.60152532  1  -0.116887  0  -0.022193  -0.163151  0  3.916497  0
C  C11  1  0.49875062  0.26726867  0.73178949  1  -0.116862  0  -0.02207  -0.162788  0  3.915715  0
C  C12  1  0.50323570  0.29654525  0.63421830  1  -0.087037  0  -0.031583  -0.061792  0  4.096844  0
C  C13  1  0.50324793  0.37011287  0.69909964  1  -0.137168  0  -0.031626  -0.061722  0  4.096683  0
C  C14  1  0.49017670  0.75106445  0.57111756  1  -0.005403  0  -0.029639  0.051167  0  4.007608  0
C  C15  1  0.49017311  0.91560106  0.76223076  1  -0.005815  0  -0.029645  0.051194  0  4.007394  0
C  C16  1  0.49874356  0.70213831  0.60061233  1  -0.204691  0  -0.022227  -0.163113  0  3.91645  0
C  C17  1  0.49876095  0.96452443  0.73273379  1  -0.204817  0  -0.022111  -0.162867  0  3.915912  0
C  C18  1  0.50323976  0.83767684  0.70345777  1  -0.06762  0  -0.031577  -0.061724  0  4.096649  0
C  C19  1  0.50324792  0.82898981  0.62988939  1  -0.15184  0  -0.031576  -0.061638  0  4.096724  0
C  C20  1  0.49017541  0.32005286  0.24893508  1  -0.076825  0  -0.029572  0.051228  0  4.007463  0
C  C21  1  0.49017452  0.34663073  0.08439788  1  -0.078024  0  -0.029645  0.051203  0  4.007419  0
C  C22  1  0.49874261  0.39847548  0.29786017  1  -0.020934  0  -0.022331  -0.163196  0  3.916432  0
C  C23  1  0.49876202  0.26821030  0.03547554  1  -0.020812  0  -0.022142  -0.162966  0  3.916079  0
C  C24  1  0.50323781  0.36578345  0.16232259  1  -0.073168  0  -0.031643  -0.061822  0  4.096733  0
C  C25  1  0.50324748  0.30090079  0.17100871  1  -0.151723  0  -0.031572  -0.061577  0  4.096718  0
S  S26  1  0.51738259  0.29967476  0.55050455  1  0.318562  0  0.096204  0.15178  0  2.80267  0
S  S27  1  0.51740077  0.36698422  0.78281252  1  0.318903  0  0.096219  0.151696  0  2.802314  0
S  S28  1  0.51738305  0.75083373  0.70032728  1  0.323739  0  0.096226  0.151754  0  2.802508  0
S  S29  1  0.51739936  0.91583073  0.63301710  1  0.324927  0  0.096268  0.151754  0  2.802329  0
S  S30  1  0.51738847  0.44949569  0.24916718  1  0.317367  0  0.096305  0.15183  0  2.802587  0
S  S31  1  0.51739906  0.21718852  0.08416810  1  0.317995  0  0.096322  0.151804  0  2.802441  0
Br  Br32  1  0.48896921  0.53371829  0.75404198  1  -0.003923  0  0.040924  -0.019739  0  1.472152  0
Br  Br33  1  0.48892660  0.13294184  0.57927397  1  -0.004024  0  0.040878  -0.019833  0  1.472216  0
Br  Br34  1  0.48896258  0.72032546  0.46628204  1  -0.015481  0  0.040879  -0.019797  0  1.472092  0
Br  Br35  1  0.48894980  0.94634028  0.86706308  1  -0.015501  0  0.040862  -0.019845  0  1.472221  0
Br  Br36  1  0.48896237  0.24595866  0.27967383  1  -0.012667  0  0.040908  -0.019773  0  1.472142  0
Br  Br37  1  0.48894512  0.42072485  0.05366020  1  -0.012484  0  0.040851  -0.019851  0  1.472161  0
O  O38  1  0.73510889  0.58420042  0.57349387  1  -1.248442  0  -0.235504  -0.589486  0  2.347003  0
O  O39  1  0.73510995  0.48929505  0.41579952  1  -1.242625  0  -0.235582  -0.589568  0  2.346896  0
O  O40  1  0.73511133  0.42650641  0.51070365  1  -1.251773  0  -0.235556  -0.589529  0  2.346873  0
O  O41  1  0.26614097  0.58364359  0.50970191  1  -1.248092  0  -0.23306  -0.589584  0  2.370441  0
O  O42  1  0.26614000  0.49029866  0.57394071  1  -1.236864  0  -0.233074  -0.589554  0  2.37033  0
O  O43  1  0.26614119  0.42605903  0.41635664  1  -1.242059  0  -0.233076  -0.589548  0  2.37051  0
O  O44  1  0.73510910  0.17738002  0.91753404  1  -1.242729  0  -0.235546  -0.589525  0  2.346829  0
O  O45  1  0.73510521  0.24015673  0.82261800  1  -1.252266  0  -0.235651  -0.589619  0  2.347008  0
O  O46  1  0.73511016  0.08246408  0.75984232  1  -1.248828  0  -0.235517  -0.589454  0  2.34699  0
O  O47  1  0.26614086  0.24061309  0.91697433  1  -1.242354  0  -0.232999  -0.589441  0  2.370547  0
O  O48  1  0.26613857  0.08302585  0.82363670  1  -1.248538  0  -0.233042  -0.589447  0  2.370539  0
O  O49  1  0.26613703  0.17636257  0.75938626  1  -1.236997  0  -0.232967  -0.589465  0  2.37068  0
