# generated using pymatgen
data_Ni2H72W(C5N2)8
_symmetry_space_group_name_H-M   'P 1'
_cell_length_a   15.65068447
_cell_length_b   15.65015402
_cell_length_c   15.90651595
_cell_angle_alpha   106.53045576
_cell_angle_beta   111.83294208
_cell_angle_gamma   109.44054255
_symmetry_Int_Tables_number   1
_chemical_formula_structural   Ni2H72W(C5N2)8
_chemical_formula_sum   'Ni4 H144 W2 C80 N32'
_cell_volume   3016.68550135
_cell_formula_units_Z   2
loop_
 _symmetry_equiv_pos_site_id
 _symmetry_equiv_pos_as_xyz
  1  'x, y, z'
loop_
 _atom_site_type_symbol
 _atom_site_label
 _atom_site_symmetry_multiplicity
 _atom_site_fract_x
 _atom_site_fract_y
 _atom_site_fract_z
 _atom_site_occupancy
 _atom_site_pbe_bader_charge
 _atom_site_pbe_bader_spin_density
 _atom_site_pbe_cm5_charge
 _atom_site_pbe_ddec_charge
 _atom_site_pbe_ddec_spin_density
 _atom_site_pbe_ddec_sum_bond_order
 _atom_site_pbe_magmom
Ni  Ni0  1  0.49999824  0.99999907  0.99999828  1  1.047231  1.448551  0.687472  0.587864  1.68658  2.710221  1.435
Ni  Ni1  1  0.50000123  0.50000251  0.50000062  1  1.042507  1.448455  0.687519  0.587849  1.686517  2.710769  1.435
Ni  Ni2  1  0.49999978  0.99999890  0.49999745  1  1.048735  1.454739  0.690622  0.594243  1.694515  2.720838  1.441
Ni  Ni3  1  0.00000126  0.00000126  0.00000126  1  1.049203  1.454862  0.690585  0.594042  1.694518  2.721093  1.441
H  H4  1  0.55367523  0.98811196  0.22796534  1  0.024263  -0.000107  0.100061  0.109369  -0.000136  0.980912  0.0
H  H5  1  0.26016051  0.32568351  0.27202484  1  0.02872  -0.000107  0.099906  0.109169  -0.000136  0.981165  0.0
H  H6  1  0.44632168  0.01188523  0.77203417  1  0.024156  -0.000107  0.100057  0.109383  -0.000136  0.980946  0.0
H  H7  1  0.73984442  0.67431703  0.72797731  1  0.028793  -0.000107  0.099922  0.109241  -0.000136  0.980996  0.0
H  H8  1  0.63498634  0.93235988  0.25214036  1  0.012127  -0.000178  0.094183  0.095166  -0.000159  1.005389  0.0
H  H9  1  0.18023082  0.38280979  0.24784886  1  0.01212  -0.000179  0.094144  0.095174  -0.000159  1.005387  0.0
H  H10  1  0.36501205  0.06763698  0.74785833  1  0.012129  -0.000178  0.094163  0.095131  -0.000159  1.005394  0.0
H  H11  1  0.81976849  0.61718406  0.75214690  1  0.012106  -0.000179  0.094106  0.095166  -0.000159  1.005369  0.0
H  H12  1  0.69748662  0.99766733  0.13972521  1  0.052033  0.000961  0.103729  0.047439  0.000321  1.022399  0.0
H  H13  1  0.35792155  0.55774388  0.36025967  1  0.06753  0.000958  0.103765  0.047451  0.000322  1.022414  0.0
H  H14  1  0.30251038  0.00233021  0.86027210  1  0.052024  0.000961  0.103721  0.047432  0.000321  1.02246  0.0
H  H15  1  0.64207613  0.44225567  0.63973679  1  0.06745  0.000958  0.103761  0.047471  0.000322  1.022417  0.0
H  H16  1  0.25626057  0.85711160  0.89396940  1  0.036411  0.000357  0.106661  0.085646  6.3e-05  0.985227  0.0
H  H17  1  0.46317227  0.36227429  0.60602412  1  0.050895  0.000351  0.10659  0.085599  6.3e-05  0.985418  0.0
H  H18  1  0.74373820  0.14288633  0.10602966  1  0.036371  0.000357  0.106666  0.085674  6.3e-05  0.985182  0.0
H  H19  1  0.53682653  0.63772845  0.39397347  1  0.05072  0.000351  0.106585  0.085543  6.3e-05  0.985451  0.0
H  H20  1  0.23102969  0.76040713  0.78083004  1  0.075752  0.004201  0.102258  0.079912  0.002006  0.983271  0.002
H  H21  1  0.47958237  0.45016306  0.71915638  1  0.059227  0.004206  0.102247  0.07972  0.002006  0.983323  0.002
H  H22  1  0.76896800  0.23959117  0.21916949  1  0.07579  0.004201  0.102269  0.079941  0.002006  0.983298  0.002
H  H23  1  0.52041775  0.54983889  0.28084101  1  0.059154  0.004207  0.102274  0.079746  0.002006  0.983339  0.002
H  H24  1  0.39442669  0.75835190  0.88483427  1  0.071303  0.000357  0.117695  0.107322  1.7e-05  0.967222  0.0
H  H25  1  0.37349237  0.50952927  0.61514991  1  0.062326  0.000358  0.117691  0.107394  1.7e-05  0.967226  0.0
H  H26  1  0.60557290  0.24164851  0.11516334  1  0.071265  0.000357  0.117682  0.107349  1.7e-05  0.96722  0.0
H  H27  1  0.62650687  0.49047248  0.38484659  1  0.062407  0.000358  0.117709  0.107431  1.7e-05  0.967205  0.0
H  H28  1  0.29929847  0.72185262  0.92209384  1  0.023314  0.004594  0.099444  0.07264  0.002142  0.974512  0.002
H  H29  1  0.29976195  0.37713010  0.57787518  1  0.023459  0.00459  0.099459  0.072561  0.002145  0.974093  0.002
H  H30  1  0.70069995  0.27814321  0.07790411  1  0.023322  0.004594  0.099451  0.072656  0.002142  0.974524  0.002
H  H31  1  0.70023736  0.62287178  0.42212292  1  0.023383  0.004591  0.099493  0.072625  0.002145  0.974098  0.002
H  H32  1  0.61690270  0.79401430  0.11057280  1  0.019069  -1.2e-05  0.088087  0.124031  -3.3e-05  0.99898  0.0
H  H33  1  0.18343219  0.50628134  0.38940979  1  0.032424  -1.2e-05  0.088062  0.123877  -3.3e-05  0.999176  0.0
H  H34  1  0.38309418  0.20598174  0.88942438  1  0.019135  -1.2e-05  0.088056  0.124004  -3.3e-05  0.999069  0.0
H  H35  1  0.81656327  0.49371423  0.61058368  1  0.032448  -1.2e-05  0.088078  0.123888  -3.3e-05  0.999213  0.0
H  H36  1  0.59300685  0.83856508  0.01744777  1  0.081189  7.6e-05  0.094934  0.144304  3.4e-05  1.0367  0.0
H  H37  1  0.32110037  0.57551831  0.48254150  1  0.064499  7.9e-05  0.094851  0.144179  3.5e-05  1.036956  0.0
H  H38  1  0.40699093  0.16143356  0.98254956  1  0.081096  7.6e-05  0.094929  0.14428  3.4e-05  1.036718  0.0
H  H39  1  0.67889648  0.42447876  0.51745642  1  0.064403  7.9e-05  0.09489  0.144256  3.5e-05  1.037031  0.0
H  H40  1  0.49762892  0.71901601  0.99043952  1  0.037567  2.8e-05  0.091342  0.130867  6e-06  0.999603  0.0
H  H41  1  0.22856590  0.50713137  0.50954110  1  0.034645  2.8e-05  0.091305  0.130877  6e-06  0.999558  0.0
H  H42  1  0.50236741  0.28098194  0.00955790  1  0.037601  2.8e-05  0.091347  0.130862  6e-06  0.999533  0.0
H  H43  1  0.77142867  0.49286400  0.49045149  1  0.034618  2.8e-05  0.091301  0.130881  6e-06  0.999469  0.0
H  H44  1  0.40612232  0.81697939  0.16260197  1  0.035791  5.4e-05  0.088056  0.124586  -3.7e-05  1.026504  0.0
H  H45  1  0.15440613  0.24348058  0.33738680  1  0.029979  5.5e-05  0.088089  0.124705  -3.8e-05  1.026896  0.0
H  H46  1  0.59387553  0.18301938  0.83739695  1  0.035852  5.4e-05  0.088051  0.124584  -3.7e-05  1.026506  0.0
H  H47  1  0.84559480  0.75651559  0.66261060  1  0.030038  5.5e-05  0.088088  0.12475  -3.8e-05  1.026803  0.0
H  H48  1  0.49369076  0.76513295  0.18348009  1  -0.012754  0.002177  0.087613  0.123704  0.00092  1.011613  0.001
H  H49  1  0.08166201  0.31014648  0.31650400  1  -0.009021  0.002176  0.087624  0.123681  0.00092  1.011888  0.001
H  H50  1  0.50630687  0.23486523  0.81651784  1  -0.012677  0.002177  0.087606  0.123687  0.00092  1.011629  0.001
H  H51  1  0.91833493  0.68984751  0.68349171  1  -0.009186  0.002175  0.087612  0.123653  0.00092  1.011928  0.001
H  H52  1  0.37888730  0.70687051  0.06150243  1  0.021748  -2.2e-05  0.08986  0.12691  -9.6e-05  1.00358  0.0
H  H53  1  0.14537653  0.31731922  0.43848031  1  0.023286  -2.1e-05  0.089882  0.126851  -9.5e-05  1.00359  0.0
H  H54  1  0.62111155  0.29312995  0.93849750  1  0.021798  -2.2e-05  0.089857  0.126917  -9.6e-05  1.003591  0.0
H  H55  1  0.85462186  0.68267546  0.56151531  1  0.023267  -2.1e-05  0.089854  0.12683  -9.5e-05  1.00355  0.0
H  H56  1  0.83889940  0.16279729  0.29982713  1  0.002595  0.000114  0.08523  0.115114  -1.3e-05  1.023312  0.0
H  H57  1  0.36295701  0.53905268  0.20016122  1  0.000544  0.000113  0.085322  0.115348  -1.3e-05  1.023282  0.0
H  H58  1  0.16109775  0.83720073  0.70016957  1  0.002525  0.000114  0.085252  0.11516  -1.3e-05  1.023219  0.0
H  H59  1  0.63704218  0.46094550  0.79983369  1  0.0005  0.000113  0.08532  0.115339  -1.3e-05  1.023297  0.0
H  H60  1  0.80672020  0.05947389  0.32881556  1  0.007613  0.001583  0.085488  0.116649  0.00065  1.020603  0.001
H  H61  1  0.23065201  0.47786765  0.17116811  1  0.010532  0.001581  0.085561  0.116786  0.00065  1.020664  0.001
H  H62  1  0.19327880  0.94052486  0.67118069  1  0.007544  0.001583  0.085473  0.11662  0.00065  1.020612  0.001
H  H63  1  0.76934565  0.52212731  0.82882602  1  0.010507  0.001581  0.085556  0.116745  0.00065  1.020745  0.001
H  H64  1  0.75699619  0.14563201  0.35323559  1  0.063951  -9e-06  0.092397  0.138549  -6.3e-05  1.000698  0.0
H  H65  1  0.29240047  0.40374013  0.14675794  1  0.070419  -1.1e-05  0.092391  0.138575  -6.3e-05  1.000748  0.0
H  H66  1  0.24300288  0.85436686  0.64676226  1  0.063894  -9e-06  0.092409  0.138553  -6.3e-05  1.000667  0.0
H  H67  1  0.70759892  0.59625625  0.85323869  1  0.070172  -1.1e-05  0.092419  0.138601  -6.3e-05  1.000727  0.0
H  H68  1  0.75938179  0.12387196  0.70562403  1  0.06218  -5.6e-05  0.099439  0.110818  -9.5e-05  0.995295  0.0
H  H69  1  0.91823939  0.05378898  0.79439759  1  0.066229  -5.7e-05  0.09939  0.110753  -9.5e-05  0.995518  0.0
H  H70  1  0.24061872  0.87612396  0.29437753  1  0.062142  -5.6e-05  0.099408  0.110766  -9.5e-05  0.995359  0.0
H  H71  1  0.08176177  0.94621215  0.20560693  1  0.065762  -5.7e-05  0.099388  0.110747  -9.5e-05  0.995539  0.0
H  H72  1  0.84237664  0.22263160  0.69501186  1  0.026276  -0.000219  0.095801  0.100627  -0.000208  0.98491  0.0
H  H73  1  0.02759031  0.14739779  0.80500178  1  0.023551  -0.000219  0.09581  0.100665  -0.000208  0.984799  0.0
H  H74  1  0.15762339  0.77736415  0.30498846  1  0.026404  -0.000219  0.095788  0.100603  -0.000208  0.984908  0.0
H  H75  1  0.97241080  0.85260562  0.19500041  1  0.023482  -0.000219  0.095835  0.100722  -0.000208  0.984902  0.0
H  H76  1  0.69757599  0.11465214  0.49552517  1  0.053574  0.00128  0.108824  0.060642  0.000466  0.979778  0.001
H  H77  1  0.11911632  0.20204364  0.00449101  1  0.062928  0.001281  0.108867  0.060607  0.000468  0.979797  0.001
H  H78  1  0.30242627  0.88534541  0.50447508  1  0.05392  0.00128  0.108826  0.060707  0.000466  0.97969  0.001
H  H79  1  0.88088398  0.79795971  0.99551189  1  0.062638  0.001281  0.108874  0.060696  0.000468  0.979632  0.001
H  H80  1  0.41120012  0.06493851  0.63739843  1  0.04226  0.000296  0.106086  0.079645  3.6e-05  1.020226  0.0
H  H81  1  0.92757453  0.77381507  0.86259887  1  0.063763  0.000295  0.106063  0.079586  3.5e-05  1.020493  0.0
H  H82  1  0.58879846  0.93505780  0.36259891  1  0.042131  0.000296  0.106091  0.079601  3.6e-05  1.020148  0.0
H  H83  1  0.07242555  0.22618643  0.13740612  1  0.063754  0.000295  0.106081  0.079587  3.5e-05  1.020453  0.0
H  H84  1  0.34723570  0.12443386  0.57764377  1  0.048707  0.00416  0.100397  0.078745  0.001949  0.978182  0.002
H  H85  1  0.04682142  0.76961603  0.92235202  1  0.04646  0.004133  0.100457  0.078892  0.001944  0.978284  0.002
H  H86  1  0.65276421  0.87556164  0.42235336  1  0.048612  0.004159  0.100393  0.078701  0.001949  0.978233  0.002
H  H87  1  0.95317823  0.23038428  0.07765100  1  0.046423  0.004132  0.100471  0.078913  0.001944  0.978286  0.002
H  H88  1  0.50201389  0.20809176  0.55883342  1  0.058969  0.00053  0.112876  0.100137  8.5e-05  0.982088  0.0
H  H89  1  0.14926676  0.94321952  0.94116308  1  0.061667  0.000529  0.112938  0.100154  8.6e-05  0.982162  0.0
H  H90  1  0.49798601  0.79190375  0.44116371  1  0.058871  0.00053  0.112871  0.100119  8.5e-05  0.982115  0.0
H  H91  1  0.85073481  0.05677946  0.05883802  1  0.061617  0.000529  0.112951  0.100228  8.6e-05  0.982214  0.0
H  H92  1  0.53537663  0.24839333  0.68854683  1  0.03762  0.004248  0.09489  0.063022  0.002014  1.012185  0.002
H  H93  1  0.05985864  0.84685863  0.81144881  1  0.011156  0.004321  0.09492  0.062964  0.002017  1.011875  0.002
H  H94  1  0.46462273  0.75160407  0.31145053  1  0.037536  0.004249  0.094912  0.063053  0.002014  1.012224  0.002
H  H95  1  0.94013720  0.15313894  0.18855117  1  0.011199  0.004321  0.094935  0.063004  0.002017  1.011798  0.002
H  H96  1  0.83318918  0.35612316  0.80821115  1  0.02548  0.002389  0.08681  0.12513  0.001005  1.000008  0.001
H  H97  1  0.04783790  0.02499781  0.69175902  1  0.03576  0.002357  0.086826  0.125137  0.001004  0.999941  0.001
H  H98  1  0.16681171  0.64387382  0.19179078  1  0.025431  0.002389  0.086829  0.125114  0.001005  0.999972  0.001
H  H99  1  0.95216618  0.97500587  0.30824766  1  0.035656  0.002358  0.086813  0.125147  0.001004  0.999858  0.001
H  H100  1  0.75940394  0.25778643  0.82825170  1  0.057571  -1.6e-05  0.086665  0.130623  -8.3e-05  1.042378  0.0
H  H101  1  0.92949764  0.93117274  0.67174837  1  0.059104  -1.8e-05  0.086645  0.130598  -8.3e-05  1.042686  0.0
H  H102  1  0.24059672  0.74220995  0.17174925  1  0.057646  -1.6e-05  0.086608  0.130496  -8.3e-05  1.042489  0.0
H  H103  1  0.07050744  0.06883045  0.32825624  1  0.059035  -1.8e-05  0.086693  0.130636  -8.3e-05  1.042566  0.0
H  H104  1  0.70958776  0.33770940  0.79351680  1  0.017773  6e-05  0.08459  0.120739  -2.3e-05  1.031917  0.0
H  H105  1  0.04414045  0.91608845  0.70644814  1  0.018594  5.9e-05  0.084639  0.120938  -2.3e-05  1.032132  0.0
H  H106  1  0.29041379  0.66228718  0.20648502  1  0.017726  6e-05  0.084573  0.120688  -2.3e-05  1.031853  0.0
H  H107  1  0.95586756  0.08391730  0.29355863  1  0.018805  5.9e-05  0.084642  0.120961  -2.3e-05  1.032107  0.0
H  H108  1  0.65495322  0.22966111  0.52247389  1  0.07685  8.5e-05  0.09472  0.143893  1.8e-05  1.031342  0.0
H  H109  1  0.20716947  0.13248559  0.97749722  1  0.062695  8.7e-05  0.094739  0.143892  1.8e-05  1.031338  0.0
H  H110  1  0.34504756  0.77033677  0.47752719  1  0.077151  8.5e-05  0.094706  0.143864  1.8e-05  1.031383  0.0
H  H111  1  0.79283303  0.86751933  0.02250942  1  0.062813  8.7e-05  0.094779  0.143985  1.8e-05  1.031268  0.0
H  H112  1  0.78055340  0.33018070  0.62901330  1  -0.004978  -3e-06  0.090884  0.128028  -3e-05  0.994947  0.0
H  H113  1  0.20112065  0.15156799  0.87096600  1  -0.001154  -3e-06  0.090834  0.12808  -3e-05  0.995018  0.0
H  H114  1  0.21944918  0.66981654  0.37098879  1  -0.004969  -3e-06  0.090894  0.12806  -3e-05  0.994969  0.0
H  H115  1  0.79888175  0.84843784  0.12903977  1  -0.001486  -3e-06  0.09081  0.128077  -3e-05  0.99504  0.0
H  H116  1  0.66381465  0.32894442  0.61875420  1  0.009596  3.8e-05  0.08716  0.120072  1.9e-05  1.048311  0.0
H  H117  1  0.21015153  0.04508006  0.88118884  1  0.020875  3.8e-05  0.087181  0.120198  1.9e-05  1.048169  0.0
H  H118  1  0.33618827  0.67105492  0.38124901  1  0.00957  3.8e-05  0.087139  0.120034  1.9e-05  1.048345  0.0
H  H119  1  0.78985359  0.95492429  0.11881810  1  0.020876  3.8e-05  0.087173  0.12022  1.9e-05  1.048255  0.0
H  H120  1  0.84986899  0.04747249  0.60601877  1  0.047177  -1.8e-05  0.08917  0.131322  -6.2e-05  1.022547  0.0
H  H121  1  0.94146881  0.24389656  0.89402782  1  0.046405  -1.6e-05  0.089227  0.131225  -6.2e-05  1.022312  0.0
H  H122  1  0.15013422  0.95252538  0.39398396  1  0.04721  -1.8e-05  0.089185  0.131379  -6.2e-05  1.022678  0.0
H  H123  1  0.05852877  0.75610243  0.10597465  1  0.046429  -1.6e-05  0.089218  0.131249  -6.2e-05  1.022351  0.0
H  H124  1  0.88470568  0.15148639  0.57658973  1  0.033064  0.001677  0.08711  0.12012  0.000702  1.002705  0.001
H  H125  1  0.07492536  0.30816461  0.92347434  1  0.028736  0.001683  0.087026  0.119968  0.000704  1.002263  0.001
H  H126  1  0.11529570  0.84851315  0.42341271  1  0.033026  0.001676  0.087129  0.120153  0.000702  1.002723  0.001
H  H127  1  0.92507367  0.69183748  0.07652730  1  0.028669  0.001683  0.087032  0.120001  0.000704  1.00236  0.001
H  H128  1  0.79959633  0.02409183  0.47662485  1  0.012462  0.000101  0.084493  0.114852  -2.6e-05  1.026105  0.0
H  H129  1  0.04748534  0.32299447  0.02343501  1  0.015421  0.000107  0.084403  0.114588  -2.6e-05  1.026223  0.0
H  H130  1  0.20040486  0.97590609  0.52337586  1  0.01208  0.000101  0.084487  0.11483  -2.6e-05  1.026093  0.0
H  H131  1  0.95251239  0.67700498  0.97656685  1  0.015409  0.000107  0.084428  0.11464  -2.6e-05  1.026145  0.0
H  H132  1  0.39710114  0.89678283  0.05665824  1  0.411047  -0.000934  0.299322  0.248843  -0.000898  0.951896  -0.001
H  H133  1  0.34014802  0.34041971  0.44332706  1  0.40755  -0.000917  0.299432  0.249151  -0.000898  0.951953  -0.001
H  H134  1  0.60289678  0.10321387  0.94333921  1  0.411041  -0.000934  0.299343  0.248915  -0.000899  0.951778  -0.001
H  H135  1  0.65985456  0.65958337  0.55667431  1  0.407439  -0.000918  0.299442  0.249154  -0.000899  0.951967  -0.001
H  H136  1  0.61018834  0.12776080  0.19581188  1  0.440588  -0.000326  0.293662  0.24865  -0.000276  0.981247  0.0
H  H137  1  0.43197766  0.41439217  0.30419207  1  0.440254  -0.000322  0.293739  0.248757  -0.000277  0.981168  0.0
H  H138  1  0.38980854  0.87223525  0.80418530  1  0.440534  -0.000325  0.29367  0.248663  -0.000276  0.98117  0.0
H  H139  1  0.56802418  0.58560660  0.69580547  1  0.440254  -0.000321  0.293719  0.248726  -0.000276  0.98131  0.0
H  H140  1  0.59230567  0.11966527  0.68421830  1  0.404535  -0.000961  0.299257  0.247386  -0.000954  0.954669  -0.001
H  H141  1  0.93543264  0.90808564  0.81577465  1  0.438358  -0.000911  0.299041  0.24712  -0.000958  0.954758  -0.001
H  H142  1  0.40769184  0.88032922  0.31577644  1  0.404453  -0.000962  0.299245  0.247355  -0.000955  0.954667  -0.001
H  H143  1  0.06456932  0.09191899  0.18422915  1  0.438263  -0.000911  0.299061  0.247138  -0.000958  0.954691  -0.001
H  H144  1  0.65723645  0.96441673  0.57110688  1  0.426237  -0.000251  0.293922  0.247573  -0.000235  0.971865  0.0
H  H145  1  0.89329630  0.08611885  0.92888988  1  0.433748  -0.000315  0.293908  0.247605  -0.000235  0.971781  0.0
H  H146  1  0.34276021  0.03557871  0.42888931  1  0.425014  -0.000254  0.293926  0.247584  -0.000235  0.971825  0.0
H  H147  1  0.10670429  0.91387959  0.07111254  1  0.4337  -0.000314  0.293912  0.247576  -0.000235  0.971911  0.0
W  W148  1  0.60534584  0.85534148  0.74999876  1  1.921894  0.026319  0.926802  0.532037  0.022055  6.078632  0.027
W  W149  1  0.39465956  0.14466506  0.25000390  1  1.921966  0.02632  0.926835  0.532177  0.022056  6.078469  0.027
C  C150  1  0.59696259  0.92097529  0.88086797  1  0.705988  0.008396  0.003955  -0.012063  0.003673  3.821814  0.011
C  C151  1  0.54008030  0.71607301  0.61913282  1  0.690756  0.008103  0.003918  -0.012202  0.003675  3.821756  0.011
C  C152  1  0.40304168  0.07903586  0.11913970  1  0.705546  0.008403  0.0038  -0.012284  0.003676  3.821575  0.011
C  C153  1  0.45992662  0.28393070  0.38087514  1  0.690755  0.008098  0.003945  -0.012196  0.003671  3.821772  0.011
C  C154  1  0.53044645  0.90728219  0.65113125  1  0.703948  0.005699  0.002885  -0.016601  0.001558  3.833836  0.009
C  C155  1  0.75616195  0.87932492  0.84887526  1  0.717243  0.005783  0.002927  -0.016514  0.00155  3.834068  0.009
C  C156  1  0.46955813  0.09271969  0.34886979  1  0.703983  0.005696  0.002874  -0.016636  0.001556  3.834038  0.009
C  C157  1  0.24383865  0.12067937  0.15112643  1  0.717871  0.005778  0.002925  -0.016572  0.00155  3.834173  0.009
C  C158  1  0.70094809  0.02017662  0.82431934  1  0.670683  0.000174  -0.006311  -0.022917  -0.0006  3.863704  0.0
C  C159  1  0.69582327  0.87657133  0.67564253  1  0.660699  0.000177  -0.006325  -0.022921  -0.0006  3.863979  0.0
C  C160  1  0.29906093  0.97983105  0.17568463  1  0.669957  0.000175  -0.006263  -0.022843  -0.0006  3.863605  0.0
C  C161  1  0.30418281  0.12343137  0.32436002  1  0.661103  0.000178  -0.006362  -0.022923  -0.000599  3.863985  0.0
C  C162  1  0.43884782  0.78138698  0.69918534  1  0.675636  0.00142  -0.004748  -0.018138  0.000624  3.846112  0.001
C  C163  1  0.58222122  0.73966867  0.80083930  1  0.676619  0.001415  -0.004758  -0.018083  0.000623  3.846016  0.001
C  C164  1  0.56115760  0.21861612  0.30081732  1  0.675968  0.001419  -0.004738  -0.018116  0.000623  3.845987  0.001
C  C165  1  0.41778929  0.26033740  0.19916691  1  0.676365  0.001414  -0.004792  -0.018339  0.000622  3.846057  0.001
C  C166  1  0.50681391  0.85055024  0.09785692  1  0.32839  0.00088  0.072205  0.339302  0.000357  3.764891  -0.001
C  C167  1  0.25269636  0.40892106  0.40212926  1  0.316725  0.000901  0.072094  0.339217  0.000355  3.764402  -0.001
C  C168  1  0.49318460  0.14944813  0.90214190  1  0.328419  0.000879  0.072189  0.339462  0.000357  3.764522  -0.001
C  C169  1  0.74730393  0.59107792  0.59786751  1  0.316774  0.000901  0.07198  0.339185  0.000355  3.764404  -0.001
C  C170  1  0.59240330  0.95295427  0.19602487  1  -0.012062  0.002353  -0.155283  -0.276862  0.000912  3.807362  0.002
C  C171  1  0.25693392  0.39634398  0.30396315  1  -0.027809  0.002355  -0.155194  -0.276661  0.000911  3.806928  0.002
C  C172  1  0.40759517  0.04704294  0.80397161  1  -0.011969  0.002353  -0.155251  -0.276887  0.000911  3.807255  0.002
C  C173  1  0.74306432  0.60365023  0.69603308  1  -0.027893  0.002355  -0.155158  -0.276763  0.000911  3.806919  0.002
C  C174  1  0.67661329  0.03517874  0.19250340  1  0.310919  -2.9e-05  0.000805  0.186763  -0.000626  3.822239  -0.002
C  C175  1  0.34267400  0.48408327  0.30748343  1  0.29784  -2.2e-05  0.000886  0.18714  -0.000625  3.822102  -0.002
C  C176  1  0.32338217  0.96481901  0.80749313  1  0.3111  -3e-05  0.000899  0.186942  -0.000626  3.822198  -0.002
C  C177  1  0.65732742  0.51591671  0.69251141  1  0.297768  -2.3e-05  0.000876  0.187141  -0.000627  3.822101  -0.002
C  C178  1  0.29344263  0.82503352  0.85723376  1  0.24986  0.000343  -0.0693  -0.054972  -0.000394  3.917019  -0.001
C  C179  1  0.46780259  0.43617805  0.64275293  1  0.252244  0.000333  -0.069275  -0.054678  -0.000394  3.917165  -0.001
C  C180  1  0.70655528  0.17496537  0.14276676  1  0.249793  0.000343  -0.069349  -0.055098  -0.000394  3.916972  -0.001
C  C181  1  0.53219607  0.56382078  0.35724527  1  0.252446  0.000333  -0.06932  -0.054688  -0.000393  3.917309  -0.001
C  C182  1  0.35478718  0.78640517  0.92074200  1  0.289387  0.000739  -0.067527  -0.044854  -7.5e-05  3.893888  -0.001
C  C183  1  0.36565978  0.43399624  0.57923406  1  0.304409  0.000714  -0.067493  -0.04472  -7.5e-05  3.89377  -0.001
C  C184  1  0.64521191  0.21359611  0.07925511  1  0.289404  0.00074  -0.067468  -0.044797  -7.4e-05  3.893874  -0.001
C  C185  1  0.63434063  0.56600642  0.42076590  1  0.304462  0.000715  -0.06753  -0.044838  -7.5e-05  3.893997  -0.001
C  C186  1  0.55624029  0.79788348  0.05091137  1  -0.085228  0.000362  -0.244791  -0.445845  7.5e-05  3.878754  0.0
C  C187  1  0.24695768  0.50528115  0.44907109  1  -0.071397  0.000361  -0.244639  -0.445607  7.5e-05  3.878891  0.0
C  C188  1  0.44375397  0.20211314  0.94908550  1  -0.085242  0.000362  -0.244804  -0.445863  7.5e-05  3.878749  0.0
C  C189  1  0.75303687  0.49471400  0.55092530  1  -0.071361  0.000361  -0.244682  -0.445697  7.5e-05  3.878948  0.0
C  C190  1  0.44242793  0.78089917  0.12822753  1  -0.054102  0.00592  -0.243977  -0.450974  0.003787  3.896319  0.004
C  C191  1  0.15267621  0.31414088  0.37175793  1  -0.048703  0.005906  -0.244083  -0.450915  0.003788  3.896489  0.004
C  C192  1  0.55757394  0.21910294  0.87177541  1  -0.054265  0.00592  -0.243951  -0.450982  0.003787  3.896289  0.004
C  C193  1  0.84732262  0.68585499  0.62823967  1  -0.048532  0.005905  -0.244046  -0.450932  0.003787  3.896427  0.004
C  C194  1  0.77558107  0.10497141  0.29989572  1  -0.065233  0.005446  -0.246515  -0.425145  0.003493  3.918542  0.004
C  C195  1  0.30506996  0.47566695  0.20009188  1  -0.067073  0.005444  -0.246705  -0.425711  0.003495  3.918776  0.004
C  C196  1  0.22441800  0.89502746  0.70010212  1  -0.065121  0.005445  -0.246549  -0.425216  0.003493  3.918413  0.004
C  C197  1  0.69493076  0.52433081  0.79990759  1  -0.066689  0.005444  -0.246708  -0.425648  0.003495  3.91869  0.004
C  C198  1  0.69799971  0.22160496  0.66720613  1  0.334601  0.001179  0.07248  0.343354  0.00061  3.752706  -0.001
C  C199  1  0.05437354  0.03080073  0.83277718  1  0.35568  0.001108  0.072292  0.342944  0.000611  3.751748  -0.001
C  C200  1  0.30200126  0.77839237  0.33279360  1  0.334498  0.00118  0.072419  0.343278  0.000611  3.752839  -0.001
C  C201  1  0.94563054  0.96920296  0.16722949  1  0.355306  0.001109  0.072258  0.34294  0.000611  3.751585  -0.001
C  C202  1  0.75948490  0.16345483  0.65824718  1  -0.053635  0.002316  -0.155761  -0.279238  0.000918  3.810189  0.002
C  C203  1  0.00518252  0.10127675  0.84177207  1  -0.056029  0.00232  -0.155582  -0.279045  0.000921  3.80974  0.002
C  C204  1  0.24051363  0.83654010  0.34175163  1  -0.053399  0.002316  -0.155708  -0.279078  0.000919  3.810105  0.002
C  C205  1  0.99481802  0.89872251  0.15823489  1  -0.055416  0.00232  -0.155617  -0.279137  0.000921  3.809803  0.002
C  C206  1  0.72612299  0.08735613  0.55106146  1  0.299902  -1.8e-05  0.001109  0.189027  -0.000633  3.807657  -0.002
C  C207  1  0.03628887  0.17506895  0.94895696  1  0.295292  -1.1e-05  0.000995  0.189061  -0.000631  3.808914  -0.002
C  C208  1  0.27387848  0.91264376  0.44893877  1  0.299273  -1.7e-05  0.001017  0.188848  -0.000633  3.807757  -0.002
C  C209  1  0.96371454  0.82493513  0.05104983  1  0.295747  -1.2e-05  0.001053  0.189144  -0.000632  3.808707  -0.002
C  C210  1  0.40322152  0.09538324  0.58230812  1  0.26457  -5.2e-05  -0.07226  -0.060372  -0.00073  3.923886  -0.001
C  C211  1  0.01310401  0.82092684  0.91767743  1  0.256494  -4e-06  -0.072379  -0.060786  -0.000732  3.923563  -0.001
C  C212  1  0.59677879  0.90461230  0.41768865  1  0.264674  -5.2e-05  -0.072176  -0.060154  -0.00073  3.923701  -0.001
C  C213  1  0.98689542  0.17907506  0.08232766  1  0.256363  -5e-06  -0.072434  -0.060773  -0.000732  3.923555  -0.001
C  C214  1  0.51013389  0.18285665  0.61777551  1  0.260351  0.000753  -0.071629  -0.052742  -0.000154  3.908525  -0.001
C  C215  1  0.06510212  0.89239867  0.88222769  1  0.286818  0.000675  -0.071736  -0.052556  -0.000154  3.908607  -0.001
C  C216  1  0.48986554  0.81713870  0.38222038  1  0.26056  0.000754  -0.071644  -0.052763  -0.000154  3.908573  -0.001
C  C217  1  0.93489406  0.10759880  0.11777033  1  0.286909  0.000674  -0.071773  -0.052747  -0.000155  3.908661  -0.001
C  C218  1  0.75298983  0.29761466  0.78122589  1  -0.087836  0.005884  -0.248933  -0.460287  0.003802  3.895787  0.004
C  C219  1  0.01634520  0.97177282  0.71874044  1  -0.111716  0.005933  -0.248846  -0.460249  0.003803  3.895774  0.004
C  C220  1  0.24701209  0.70238517  0.21877938  1  -0.087788  0.005882  -0.248832  -0.460048  0.003802  3.895802  0.004
C  C221  1  0.98366026  0.02823144  0.28126455  1  -0.111876  0.005933  -0.248864  -0.460325  0.003803  3.895667  0.004
C  C222  1  0.69849714  0.27997344  0.60498040  1  -0.056822  0.00036  -0.245563  -0.444749  8.2e-05  3.87817  0.0
C  C223  1  0.17497725  0.09353882  0.89499417  1  -0.053537  0.00036  -0.24555  -0.444875  8.2e-05  3.878058  0.0
C  C224  1  0.30150526  0.72002436  0.39502304  1  -0.057153  0.00036  -0.24553  -0.44472  8.2e-05  3.878222  0.0
C  C225  1  0.82502390  0.90646574  0.10501035  1  -0.053283  0.00036  -0.245567  -0.445005  8.2e-05  3.878043  0.0
C  C226  1  0.82049082  0.07652080  0.55262847  1  -0.081729  0.005492  -0.246866  -0.424682  0.003556  3.924639  0.004
C  C227  1  0.02390751  0.26787334  0.94742724  1  -0.078224  0.005476  -0.246748  -0.424205  0.003557  3.924372  0.004
C  C228  1  0.17950599  0.92347512  0.44736711  1  -0.081315  0.005493  -0.246868  -0.424708  0.003557  3.924849  0.004
C  C229  1  0.97609202  0.73212765  0.05257871  1  -0.078169  0.005475  -0.246772  -0.424373  0.003556  3.924557  0.004
N  N230  1  0.58542253  0.95231373  0.95014014  1  -1.367487  0.054844  -0.391139  -0.367856  0.031967  3.440483  0.044
N  N231  1  0.50212098  0.63524992  0.54985953  1  -1.354673  0.055174  -0.391089  -0.367638  0.031966  3.440422  0.044
N  N232  1  0.41457581  0.04768542  0.04985622  1  -1.367111  0.054844  -0.391041  -0.36773  0.031966  3.439949  0.044
N  N233  1  0.49788188  0.36475514  0.45014135  1  -1.354742  0.055175  -0.391133  -0.367685  0.031967  3.440492  0.044
N  N234  1  0.49722973  0.94031835  0.59668301  1  -1.369974  0.058245  -0.393332  -0.372695  0.03422  3.458319  0.048
N  N235  1  0.84363863  0.90055931  0.90332473  1  -1.384728  0.058121  -0.393347  -0.372728  0.034223  3.458852  0.048
N  N236  1  0.50277034  0.05968003  0.40331277  1  -1.369986  0.058243  -0.393291  -0.372633  0.034217  3.4585  0.048
N  N237  1  0.15636768  0.09944617  0.09668188  1  -1.385247  0.058123  -0.393347  -0.372627  0.034222  3.458943  0.048
N  N238  1  0.75122739  0.11023562  0.86678943  1  -1.320164  0.001235  -0.378297  -0.390498  0.000381  2.971209  0.001
N  N239  1  0.74339659  0.88436523  0.63316116  1  -1.309309  0.001234  -0.378316  -0.390529  0.00038  2.971362  0.001
N  N240  1  0.24877808  0.88976668  0.13320869  1  -1.319696  0.001234  -0.378336  -0.39055  0.00038  2.971099  0.001
N  N241  1  0.25660282  0.11562771  0.36683546  1  -1.309643  0.001234  -0.378248  -0.390495  0.00038  2.971384  0.001
N  N242  1  0.34837133  0.74230623  0.67182649  1  -1.292418  0.000181  -0.378135  -0.375289  -0.000207  2.92371  0.0
N  N243  1  0.57048411  0.67653469  0.82818037  1  -1.292521  0.000179  -0.378113  -0.375397  -0.000207  2.923841  0.0
N  N244  1  0.65163534  0.25769813  0.32817742  1  -1.292602  0.000181  -0.378142  -0.375298  -0.000207  2.923613  0.0
N  N245  1  0.42952911  0.32347553  0.17183008  1  -1.292244  0.000179  -0.378096  -0.375203  -0.000206  2.923662  0.0
N  N246  1  0.43572706  0.87225687  0.02421411  1  -1.022359  0.086843  -0.470468  -0.351381  0.050862  3.406655  0.076
N  N247  1  0.34805219  0.41147666  0.47577714  1  -1.026155  0.086859  -0.470543  -0.351949  0.050866  3.407364  0.076
N  N248  1  0.56427086  0.12774202  0.97578640  1  -1.022402  0.08684  -0.470472  -0.351563  0.05086  3.406726  0.076
N  N249  1  0.65194619  0.58852146  0.52421849  1  -1.026163  0.086859  -0.470464  -0.351875  0.050867  3.40755  0.076
N  N250  1  0.63243539  0.09287769  0.14902239  1  -1.045475  0.085483  -0.484689  -0.341342  0.049914  3.475143  0.075
N  N251  1  0.44386098  0.48342446  0.35097926  1  -1.0404  0.085486  -0.484729  -0.34159  0.049916  3.47552  0.075
N  N252  1  0.36756142  0.90712041  0.85097626  1  -1.04559  0.085484  -0.484728  -0.341444  0.049914  3.475075  0.075
N  N253  1  0.55613948  0.51658176  0.64902230  1  -1.040313  0.085489  -0.484722  -0.341623  0.049919  3.475658  0.075
N  N254  1  0.58708700  0.14582282  0.63123778  1  -1.005265  0.087625  -0.471001  -0.351592  0.051326  3.398648  0.077
N  N255  1  0.01460036  0.95586845  0.86876967  1  -1.050587  0.087607  -0.470707  -0.351217  0.051323  3.398838  0.077
N  N256  1  0.41291481  0.85417332  0.36876429  1  -1.005229  0.087621  -0.470978  -0.351585  0.051325  3.398717  0.077
N  N257  1  0.98540325  0.04413508  0.13123577  1  -1.050305  0.087607  -0.470729  -0.351183  0.051324  3.398603  0.077
N  N258  1  0.63485010  0.98844582  0.51684849  1  -1.021806  0.086876  -0.482527  -0.337594  0.050713  3.471836  0.076
N  N259  1  0.97159103  0.11799777  0.98314425  1  -1.048542  0.086919  -0.482401  -0.337378  0.05072  3.471328  0.076
N  N260  1  0.36514951  0.01155115  0.48314913  1  -1.020672  0.086873  -0.482434  -0.337499  0.05071  3.472002  0.076
N  N261  1  0.02841399  0.88200530  0.01685877  1  -1.048733  0.086916  -0.482425  -0.337362  0.050719  3.471353  0.076
