# generated using pymatgen
data_ZnH9C14NCl2O5
_symmetry_space_group_name_H-M   'P 1'
_cell_length_a   7.98622679
_cell_length_b   13.08435336
_cell_length_c   14.41530000
_cell_angle_alpha   90.00000000
_cell_angle_beta   90.00000000
_cell_angle_gamma   92.92296659
_symmetry_Int_Tables_number   1
_chemical_formula_structural   ZnH9C14NCl2O5
_chemical_formula_sum   'Zn4 H36 C56 N4 Cl8 O20'
_cell_volume   1504.36147141
_cell_formula_units_Z   4
loop_
 _symmetry_equiv_pos_site_id
 _symmetry_equiv_pos_as_xyz
  1  'x, y, z'
loop_
 _atom_site_type_symbol
 _atom_site_label
 _atom_site_symmetry_multiplicity
 _atom_site_fract_x
 _atom_site_fract_y
 _atom_site_fract_z
 _atom_site_occupancy
 _atom_site_hle17_bader_spin_density
 _atom_site_hle17_ddec_charge
 _atom_site_hle17_ddec_spin_density
 _atom_site_hle17_ddec_sum_bond_order
 _atom_site_hle17_magmom
 _atom_site_hse06_10hf_bader_spin_density
 _atom_site_hse06_10hf_ddec_charge
 _atom_site_hse06_10hf_ddec_spin_density
 _atom_site_hse06_10hf_ddec_sum_bond_order
 _atom_site_hse06_10hf_magmom
 _atom_site_hse06_bader_spin_density
 _atom_site_hse06_ddec_charge
 _atom_site_hse06_ddec_spin_density
 _atom_site_hse06_ddec_sum_bond_order
 _atom_site_hse06_magmom
 _atom_site_pbe_bader_charge
 _atom_site_pbe_bader_spin_density
 _atom_site_pbe_cm5_charge
 _atom_site_pbe_ddec_charge
 _atom_site_pbe_ddec_spin_density
 _atom_site_pbe_ddec_sum_bond_order
 _atom_site_pbe_magmom
Zn  Zn0  1  0.93567555  0.93047696  0.07268042  1  0  1.037883  0  1.867342  0  0  0.866199  0  2.337653  0  0  0.919263  0  2.271303  0  1.294316  0  0.67502  0.829252  0  2.383091  0
Zn  Zn1  1  0.56432443  0.56952183  0.57268111  1  0  1.037875  0  1.867372  0  0  0.866189  0  2.337682  0  0  0.919254  0  2.27133  0  1.294315  0  0.67501  0.829243  0  2.383117  0
Zn  Zn2  1  0.06431875  0.06951917  0.92731958  1  0  1.037717  0  1.867751  0  0  0.86605  0  2.33812  0  0  0.919113  0  2.271765  0  1.294158  0  0.674878  0.829103  0  2.383558  0
Zn  Zn3  1  0.43568034  0.43047966  0.42731958  1  0  1.037734  0  1.867703  0  0  0.866075  0  2.338071  0  0  0.919138  0  2.271713  0  1.294175  0  0.674875  0.829129  0  2.38351  0
H  H4  1  0.10893346  0.45653624  0.91330600  1  0  0.122844  0  0.944753  0  0  0.132811  0  1.004596  0  0  0.135912  0  1.003055  0  0.074787  0  0.104373  0.130595  0  1.005774  0
H  H5  1  0.39106952  0.04346412  0.41330600  1  0  0.122852  0  0.944767  0  0  0.132829  0  1.004601  0  0  0.135931  0  1.003057  0  0.074766  0  0.104389  0.130595  0  1.005799  0
H  H6  1  0.89106868  0.54346371  0.08669331  1  0  0.122822  0  0.944786  0  0  0.132822  0  1.004581  0  0  0.135924  0  1.003037  0  0.07478  0  0.104381  0.130579  0  1.005791  0
H  H7  1  0.60893262  0.95653584  0.58669261  1  0  0.122845  0  0.944791  0  0  0.132838  0  1.004605  0  0  0.135939  0  1.003062  0  0.074819  0  0.104369  0.130607  0  1.005794  0
H  H8  1  0.16821327  0.70654905  0.71893127  1  0  0.124127  0  0.930458  0  0  0.133732  0  0.988759  0  0  0.137523  0  0.98615  0  0.111454  0  0.107751  0.130967  0  0.990752  0
H  H9  1  0.33178894  0.79345127  0.21893127  1  0  0.124095  0  0.930415  0  0  0.133698  0  0.988713  0  0  0.137489  0  0.986104  0  0.111457  0  0.107733  0.130926  0  0.990715  0
H  H10  1  0.83178649  0.29345244  0.28106803  1  0  0.124108  0  0.930472  0  0  0.133717  0  0.988764  0  0  0.137509  0  0.986154  0  0.111466  0  0.107741  0.130968  0  0.990739  0
H  H11  1  0.66821445  0.20654869  0.78106664  1  0  0.12411  0  0.930454  0  0  0.133706  0  0.988758  0  0  0.137497  0  0.986148  0  0.111438  0  0.107732  0.130941  0  0.990752  0
H  H12  1  0.32804862  0.80836250  0.83535827  1  0  0.113663  0  0.962346  0  0  0.123289  0  1.023292  0  0  0.12654  0  1.021771  0  0.110438  0  0.104462  0.120978  0  1.024494  0
H  H13  1  0.17194990  0.69163858  0.33535827  1  0  0.113656  0  0.962384  0  0  0.123301  0  1.023312  0  0  0.126553  0  1.021789  0  0.11047  0  0.104451  0.12099  0  1.024515  0
H  H14  1  0.67195364  0.19163899  0.16464035  1  0  0.113616  0  0.962427  0  0  0.123252  0  1.023361  0  0  0.126502  0  1.021842  0  0.110439  0  0.104435  0.120943  0  1.024559  0
H  H15  1  0.82805231  0.30836214  0.66463965  1  0  0.113668  0  0.962417  0  0  0.123303  0  1.023335  0  0  0.126554  0  1.021815  0  0.110421  0  0.104463  0.120994  0  1.024533  0
H  H16  1  0.50784657  0.86582106  0.93138193  1  0  0.085618  0  0.943713  0  0  0.090504  0  1.015643  0  0  0.092199  0  1.014453  0  0.095236  0  0.099796  0.089296  0  1.016673  0
H  H17  1  0.99215486  0.63418002  0.43138193  1  0  0.085625  0  0.943725  0  0  0.090514  0  1.015653  0  0  0.092209  0  1.014464  0  0.094775  0  0.099796  0.089306  0  1.016681  0
H  H18  1  0.49214700  0.13418119  0.06861598  1  0  0.085625  0  0.943646  0  0  0.090516  0  1.015589  0  0  0.092202  0  1.014397  0  0.095207  0  0.099833  0.08931  0  1.016618  0
H  H19  1  0.00785097  0.36581917  0.56861529  1  0  0.085598  0  0.943744  0  0  0.090468  0  1.015668  0  0  0.092153  0  1.014473  0  0.095219  0  0.099785  0.089263  0  1.016695  0
H  H20  1  0.51983937  0.87364056  0.05393644  1  0  0.107549  0  0.940898  0  0  0.112372  0  1.012665  0  0  0.11448  0  1.011306  0  0.12481  0  0.111464  0.11088  0  1.013771  0
H  H21  1  0.98016074  0.62635976  0.55393644  1  0  0.107559  0  0.940892  0  0  0.112378  0  1.012675  0  0  0.114486  0  1.011315  0  0.124824  0  0.111454  0.110885  0  1.013778  0
H  H22  1  0.48015044  0.12636169  0.94606425  1  0  0.10752  0  0.940909  0  0  0.112354  0  1.012694  0  0  0.114453  0  1.011331  0  0.124754  0  0.111447  0.110862  0  1.013802  0
H  H23  1  0.01984885  0.37363943  0.44606356  1  0  0.107552  0  0.940938  0  0  0.112364  0  1.01271  0  0  0.114461  0  1.011345  0  0.124757  0  0.111441  0.110872  0  1.013817  0
H  H24  1  0.73105042  0.73515321  0.06626709  1  0  0.092174  0  0.94528  0  0  0.099948  0  1.009024  0  0  0.103371  0  1.005485  0  0.139994  0  0.120711  0.097404  0  1.011695  0
H  H25  1  0.76894719  0.76484711  0.56626640  1  0  0.092211  0  0.945196  0  0  0.099957  0  1.008972  0  0  0.103381  0  1.005432  0  0.139983  0  0.120722  0.097414  0  1.011642  0
H  H26  1  0.26893531  0.26484522  0.93373568  1  0  0.092242  0  0.945211  0  0  0.09992  0  1.009052  0  0  0.10334  0  1.005514  0  0.139963  0  0.12072  0.097372  0  1.01172  0
H  H27  1  0.23106128  0.23515361  0.43373499  1  0  0.09223  0  0.945177  0  0  0.09994  0  1.008996  0  0  0.103361  0  1.005455  0  0.13999  0  0.120733  0.097394  0  1.011663  0
H  H28  1  0.59105707  0.61273570  0.18019535  1  0  0.114109  0  0.956165  0  0  0.118509  0  1.02639  0  0  0.122392  0  1.024205  0  0.13701  0  0.10585  0.115719  0  1.028098  0
H  H29  1  0.90894054  0.88726461  0.68019465  1  0  0.114185  0  0.956132  0  0  0.118574  0  1.026355  0  0  0.122457  0  1.02417  0  0.137017  0  0.105882  0.115784  0  1.028063  0
H  H30  1  0.40894080  0.38725813  0.81980743  1  0  0.114226  0  0.956166  0  0  0.118604  0  1.026394  0  0  0.122488  0  1.024207  0  0.137022  0  0.10585  0.115813  0  1.028101  0
H  H31  1  0.09105816  0.11273917  0.31980604  1  0  0.114146  0  0.956197  0  0  0.118577  0  1.026378  0  0  0.122462  0  1.024191  0  0.137052  0  0.105871  0.115787  0  1.028084  0
H  H32  1  0.80286908  0.80192354  0.39961222  1  0  0.11491  0  0.952802  0  0  0.12024  0  1.020377  0  0  0.124407  0  1.017565  0  0.09444  0  0.107827  0.117243  0  1.022528  0
H  H33  1  0.69713222  0.69807601  0.89961083  1  0  0.114935  0  0.952765  0  0  0.120248  0  1.020367  0  0  0.124412  0  1.017559  0  0.094465  0  0.107847  0.117251  0  1.022515  0
H  H34  1  0.19711996  0.19806953  0.60039056  1  0  0.11496  0  0.952708  0  0  0.120298  0  1.020237  0  0  0.124468  0  1.017423  0  0.094449  0  0.107835  0.117294  0  1.022392  0
H  H35  1  0.30287675  0.30193083  0.10038917  1  0  0.115015  0  0.952672  0  0  0.120318  0  1.020255  0  0  0.124487  0  1.017442  0  0.094426  0  0.107844  0.117314  0  1.022406  0
H  H36  1  0.93394806  0.91724855  0.27675040  1  0  0.090841  0  0.937505  0  0  0.099478  0  1.000409  0  0  0.102028  0  0.998431  0  0.133167  0  0.116977  0.097574  0  1.001968  0
H  H37  1  0.56605456  0.58275177  0.77674970  1  0  0.090845  0  0.937508  0  0  0.09948  0  1.000414  0  0  0.10203  0  0.998437  0  0.133184  0  0.11698  0.097577  0  1.001976  0
H  H38  1  0.06604143  0.08274988  0.72325307  1  0  0.090743  0  0.93747  0  0  0.099513  0  1.000254  0  0  0.102064  0  0.998274  0  0.133204  0  0.116982  0.09761  0  1.001819  0
H  H39  1  0.43395535  0.41725125  0.22325238  1  0  0.090735  0  0.93755  0  0  0.099461  0  1.000348  0  0  0.102011  0  0.998369  0  0.133184  0  0.116958  0.09756  0  1.001907  0
C  C40  1  0.31731321  0.68978664  0.94038487  1  0  0.207768  0  3.805229  0  0  0.191759  0  4.066885  0  0  0.201773  0  4.083598  0  0.530555  0  0.074318  0.184818  0  4.055645  0
C  C41  1  0.18268657  0.81021445  0.44038487  1  0  0.207845  0  3.805151  0  0  0.191834  0  4.066819  0  0  0.201847  0  4.08353  0  0.53055  0  0.074328  0.184896  0  4.055575  0
C  C42  1  0.68268893  0.31021332  0.05961444  1  0  0.207805  0  3.805073  0  0  0.191758  0  4.066808  0  0  0.201771  0  4.083523  0  0.530517  0  0.074322  0.184811  0  4.055562  0
C  C43  1  0.81731307  0.18978551  0.55961374  1  0  0.207867  0  3.805243  0  0  0.19183  0  4.066944  0  0  0.201844  0  4.083659  0  0.530502  0  0.074334  0.18489  0  4.055702  0
C  C44  1  0.25455602  0.58964912  0.96046839  1  0  0.046717  0  3.782097  0  0  0.055025  0  4.05223  0  0  0.055153  0  4.072152  0  0.053309  0  -1.9e-05  0.054639  0  4.039033  0
C  C45  1  0.24544494  0.91035119  0.46046839  1  0  0.046649  0  3.782155  0  0  0.054948  0  4.0523  0  0  0.055077  0  4.072219  0  0.053304  0  -2.5e-05  0.054556  0  4.039105  0
C  C46  1  0.74544981  0.41035007  0.03953161  1  0  0.0468  0  3.782009  0  0  0.055081  0  4.052215  0  0  0.05521  0  4.072137  0  0.053633  0  3.7e-05  0.054715  0  4.038982  0
C  C47  1  0.75455594  0.08964876  0.53953092  1  0  0.046654  0  3.782137  0  0  0.054966  0  4.052281  0  0  0.055094  0  4.072204  0  0.053303  0  -2.8e-05  0.054578  0  4.039082  0
C  C48  1  0.15968361  0.53281196  0.89563311  1  0  -0.192507  0  3.7902  0  0  -0.226109  0  4.045965  0  0  -0.227731  0  4.066348  0  0.082394  0  -0.107048  -0.224778  0  4.032159  0
C  C49  1  0.34031854  0.96718759  0.39563311  1  0  -0.192473  0  3.790302  0  0  -0.226077  0  4.046041  0  0  -0.227699  0  4.066424  0  0.082388  0  -0.10705  -0.224737  0  4.032267  0
C  C50  1  0.84032347  0.46718723  0.10436481  1  0  -0.192535  0  3.790343  0  0  -0.226153  0  4.046102  0  0  -0.227781  0  4.06648  0  0.082019  0  -0.107135  -0.224801  0  4.032296  0
C  C51  1  0.65967734  0.03281236  0.60436550  1  0  -0.192499  0  3.790275  0  0  -0.22612  0  4.046  0  0  -0.227746  0  4.066381  0  0.082321  0  -0.107052  -0.224771  0  4.032214  0
C  C52  1  0.12876398  0.57558504  0.80892940  1  0  0.129668  0  3.81617  0  0  0.138834  0  4.091203  0  0  0.14049  0  4.113268  0  -0.005648  0  0.000123  0.137443  0  4.076366  0
C  C53  1  0.37123830  0.92441604  0.30893010  1  0  0.12962  0  3.816313  0  0  0.138791  0  4.091342  0  0  0.140445  0  4.113409  0  -0.005681  0  0.000101  0.137399  0  4.076496  0
C  C54  1  0.87123941  0.42441492  0.19107060  1  0  0.129572  0  3.816425  0  0  0.138757  0  4.091443  0  0  0.140425  0  4.113488  0  -0.00567  0  0.000115  0.137365  0  4.076602  0
C  C55  1  0.62876147  0.07558545  0.69106990  1  0  0.129613  0  3.816349  0  0  0.138795  0  4.09136  0  0  0.140457  0  4.113413  0  -0.005408  0  0.000126  0.137404  0  4.076516  0
C  C56  1  0.19046346  0.67419814  0.78712895  1  0  -0.100569  0  3.745098  0  0  -0.127787  0  4.001875  0  0  -0.127333  0  4.020049  0  0.022576  0  -0.096688  -0.127908  0  3.989601  0
C  C57  1  0.30953631  0.82580294  0.28712895  1  0  -0.100504  0  3.745129  0  0  -0.127715  0  4.001905  0  0  -0.127259  0  4.020079  0  0.022589  0  -0.096643  -0.127828  0  3.989631  0
C  C58  1  0.80953881  0.32580334  0.21287035  1  0  -0.100516  0  3.745242  0  0  -0.12774  0  4.002004  0  0  -0.127287  0  4.020171  0  0.022594  0  -0.096631  -0.127874  0  3.989724  0
C  C59  1  0.69046595  0.17419855  0.71286966  1  0  -0.100506  0  3.745132  0  0  -0.127716  0  4.001888  0  0  -0.12726  0  4.020056  0  0.022655  0  -0.096651  -0.127837  0  3.989613  0
C  C60  1  0.28262880  0.73102153  0.85312134  1  0  -0.167667  0  3.749561  0  0  -0.185456  0  4.003301  0  0  -0.190871  0  4.023817  0  -0.028407  0  -0.104972  -0.181865  0  3.989492  0
C  C61  1  0.21737222  0.76897955  0.35312134  1  0  -0.167657  0  3.749674  0  0  -0.185479  0  4.003423  0  0  -0.190894  0  4.023937  0  -0.028396  0  -0.104958  -0.181886  0  3.98961  0
C  C62  1  0.71737590  0.26897919  0.14687728  1  0  -0.167628  0  3.749678  0  0  -0.185419  0  4.003454  0  0  -0.190834  0  4.023973  0  -0.028347  0  -0.10499  -0.181828  0  3.98965  0
C  C63  1  0.78262873  0.23102117  0.64687589  1  0  -0.167693  0  3.749697  0  0  -0.185503  0  4.003459  0  0  -0.190918  0  4.023975  0  -0.028333  0  -0.104987  -0.181916  0  3.989661  0
C  C64  1  0.43976341  0.84765974  0.99591753  1  0  -0.069075  0  3.600937  0  0  -0.122505  0  3.861569  0  0  -0.119623  0  3.862058  0  0.369598  0  -0.07086  -0.12471  0  3.861395  0
C  C65  1  0.06023755  0.65234058  0.49591684  1  0  -0.06914  0  3.601005  0  0  -0.122573  0  3.861616  0  0  -0.119698  0  3.862122  0  0.370066  0  -0.070889  -0.124798  0  3.861495  0
C  C66  1  0.56023503  0.15234098  0.00408108  1  0  -0.068955  0  3.600813  0  0  -0.122469  0  3.861475  0  0  -0.119541  0  3.861906  0  0.369614  0  -0.070876  -0.124685  0  3.861303  0
C  C67  1  0.93976459  0.34765938  0.50408039  1  0  -0.069182  0  3.600988  0  0  -0.122503  0  3.86151  0  0  -0.119577  0  3.86196  0  0.369604  0  -0.070854  -0.124716  0  3.861333  0
C  C68  1  0.27771965  0.90494535  0.00044467  1  0  0.672251  0  3.861438  0  0  0.621885  0  4.159789  0  0  0.655649  0  4.15378  0  1.584633  0  0.208356  0.598988  0  4.163149  0
C  C69  1  0.22227999  0.59505420  0.50044397  1  0  0.672255  0  3.861453  0  0  0.621887  0  4.159816  0  0  0.65565  0  4.153808  0  1.584627  0  0.208349  0.598989  0  4.16317  0
C  C70  1  0.72226519  0.09504236  0.99956158  1  0  0.672219  0  3.86098  0  0  0.622001  0  4.159192  0  0  0.655745  0  4.153194  0  1.584698  0  0.208615  0.599122  0  4.162525  0
C  C71  1  0.77773312  0.40495723  0.49956088  1  0  0.672585  0  3.860561  0  0  0.622104  0  4.159109  0  0  0.655836  0  4.153126  0  1.584508  0  0.208631  0.599225  0  4.162441  0
C  C72  1  0.74305847  0.74652738  0.14082676  1  0  0.131108  0  3.664258  0  0  0.099985  0  3.914552  0  0  0.106391  0  3.931488  0  0.467716  0  0.051327  0.095777  0  3.903162  0
C  C73  1  0.75693907  0.75347218  0.64082607  1  0  0.131116  0  3.664271  0  0  0.100011  0  3.91458  0  0  0.106417  0  3.931516  0  0.467874  0  0.051304  0.095803  0  3.903187  0
C  C74  1  0.25692852  0.25347105  0.85917463  1  0  0.131173  0  3.664287  0  0  0.100117  0  3.914585  0  0  0.10653  0  3.931518  0  0.467523  0  0.051328  0.095916  0  3.903183  0
C  C75  1  0.24307058  0.24652778  0.35917255  1  0  0.131171  0  3.664331  0  0  0.100084  0  3.914662  0  0  0.106496  0  3.931596  0  0.467549  0  0.051298  0.095882  0  3.90326  0
C  C76  1  0.66662688  0.67911269  0.20399090  1  0  -0.110333  0  3.705036  0  0  -0.135784  0  3.958987  0  0  -0.14095  0  3.979349  0  -0.058356  0  -0.073449  -0.132498  0  3.94547  0
C  C77  1  0.83337198  0.82088763  0.70399090  1  0  -0.110451  0  3.705101  0  0  -0.135896  0  3.95905  0  0  -0.141062  0  3.979408  0  -0.058601  0  -0.073481  -0.132608  0  3.945533  0
C  C78  1  0.33336393  0.32088650  0.79601188  1  0  -0.11061  0  3.7051  0  0  -0.136023  0  3.958984  0  0  -0.141196  0  3.979342  0  -0.058609  0  -0.073469  -0.132727  0  3.945459  0
C  C79  1  0.16663279  0.17911386  0.29600980  1  0  -0.110522  0  3.705255  0  0  -0.136006  0  3.959148  0  0  -0.141185  0  3.979513  0  -0.058652  0  -0.0735  -0.132709  0  3.945621  0
C  C80  1  0.68851742  0.69798647  0.29869860  1  0  -0.006997  0  3.722754  0  0  0.012111  0  3.954848  0  0  0.009551  0  3.975283  0  0.01739  0  0.006559  0.013795  0  3.941199  0
C  C81  1  0.81148137  0.80201308  0.79869860  1  0  -0.007032  0  3.722738  0  0  0.012086  0  3.954792  0  0  0.009538  0  3.975228  0  0.017393  0  0.006538  0.013762  0  3.941138  0
C  C82  1  0.31147788  0.30200659  0.70130209  1  0  -0.00694  0  3.722846  0  0  0.01223  0  3.954856  0  0  0.00969  0  3.975285  0  0.017425  0  0.006586  0.013906  0  3.9412  0
C  C83  1  0.18852009  0.19799377  0.20130070  1  0  -0.006881  0  3.722859  0  0  0.012307  0  3.954804  0  0  0.009774  0  3.975235  0  0.017407  0  0.006617  0.01398  0  3.941146  0
C  C84  1  0.78463600  0.78484737  0.32637198  1  0  -0.116762  0  3.707488  0  0  -0.141706  0  3.962098  0  0  -0.1473  0  3.98326  0  0.01819  0  -0.076626  -0.138087  0  3.947984  0
C  C85  1  0.71536642  0.71515065  0.82637059  1  0  -0.116748  0  3.707449  0  0  -0.14166  0  3.962006  0  0  -0.147256  0  3.983167  0  0.018171  0  -0.076607  -0.138042  0  3.9479  0
C  C86  1  0.21535962  0.21514953  0.67363080  1  0  -0.116917  0  3.707615  0  0  -0.141861  0  3.962265  0  0  -0.147465  0  3.983427  0  0.018065  0  -0.076731  -0.138248  0  3.948184  0
C  C87  1  0.28463835  0.28485083  0.17363010  1  0  -0.116937  0  3.707606  0  0  -0.141893  0  3.962234  0  0  -0.1475  0  3.983398  0  0.01806  0  -0.076717  -0.138287  0  3.948175  0
C  C88  1  0.85681112  0.84893008  0.25905947  1  0  0.128182  0  3.688789  0  0  0.094886  0  3.944163  0  0  0.101159  0  3.962712  0  0.428804  0  0.048937  0.090792  0  3.931623  0
C  C89  1  0.64319143  0.65106947  0.75905878  1  0  0.128214  0  3.688858  0  0  0.094911  0  3.944223  0  0  0.101185  0  3.96277  0  0.428772  0  0.048937  0.090812  0  3.931686  0
C  C90  1  0.14318443  0.15106605  0.74094053  1  0  0.128398  0  3.688545  0  0  0.094978  0  3.943931  0  0  0.101251  0  3.962481  0  0.428737  0  0.048992  0.09088  0  3.931388  0
C  C91  1  0.35681604  0.34893431  0.24093983  1  0  0.128345  0  3.68858  0  0  0.095002  0  3.943923  0  0  0.101274  0  3.962472  0  0.428762  0  0.04896  0.090901  0  3.931381  0
C  C92  1  0.61323572  0.62528609  0.37011578  1  0  0.65787  0  3.890561  0  0  0.605428  0  4.181582  0  0  0.640642  0  4.173433  0  1.597821  0  0.217109  0.581606  0  4.186238  0
C  C93  1  0.88676175  0.87471270  0.87011717  1  0  0.657844  0  3.89046  0  0  0.605405  0  4.181482  0  0  0.640593  0  4.17338  0  1.597428  0  0.217152  0.5816  0  4.186108  0
C  C94  1  0.38676436  0.37471923  0.62989463  1  0  0.657826  0  3.890314  0  0  0.60532  0  4.181417  0  0  0.640504  0  4.173321  0  1.597478  0  0.217123  0.581497  0  4.186064  0
C  C95  1  0.11323355  0.12528037  0.12989324  1  0  0.657629  0  3.890292  0  0  0.605181  0  4.181302  0  0  0.640359  0  4.173214  0  1.597495  0  0.217076  0.581363  0  4.185944  0
N  N96  1  0.83642185  0.82998053  0.16788135  1  0  -0.307254  0  3.279417  0  0  -0.223326  0  3.548785  0  0  -0.241741  0  3.562609  0  -1.245054  0  -0.327445  -0.21089  0  3.539334  0
N  N97  1  0.66357945  0.67001902  0.66788135  1  0  -0.30727  0  3.279514  0  0  -0.223343  0  3.548885  0  0  -0.241758  0  3.562709  0  -1.244969  0  -0.327441  -0.210906  0  3.539434  0
N  N98  1  0.16356877  0.17001636  0.83212143  1  0  -0.307261  0  3.279204  0  0  -0.223324  0  3.548571  0  0  -0.241736  0  3.562389  0  -1.244608  0  -0.327453  -0.210889  0  3.53912  0
N  N99  1  0.33643033  0.32998247  0.33212073  1  0  -0.307233  0  3.279166  0  0  -0.223311  0  3.548533  0  0  -0.241722  0  3.56235  0  -1.244575  0  -0.327402  -0.210875  0  3.539084  0
Cl  Cl100  1  0.29230281  0.53746861  0.06821363  1  0  -0.074959  0  1.37892  0  0  -0.05994  0  1.610504  0  0  -0.062515  0  1.604674  0  -0.209506  0  0.010211  -0.057947  0  1.614607  0
Cl  Cl101  1  0.20769953  0.96253324  0.56821363  1  0  -0.074948  0  1.37893  0  0  -0.059932  0  1.610518  0  0  -0.062506  0  1.604686  0  -0.209511  0  0.01021  -0.057934  0  1.614622  0
Cl  Cl102  1  0.70770071  0.46253288  0.93178637  1  0  -0.074982  0  1.378912  0  0  -0.059942  0  1.610499  0  0  -0.062515  0  1.604667  0  -0.209511  0  0.010212  -0.057956  0  1.614592  0
Cl  Cl103  1  0.79230017  0.03746748  0.43178567  1  0  -0.074962  0  1.378977  0  0  -0.059941  0  1.610561  0  0  -0.062515  0  1.604731  0  -0.209539  0  0.010204  -0.057946  0  1.614663  0
Cl  Cl104  1  0.00818581  0.50693445  0.72813192  1  0  -0.084674  0  1.384847  0  0  -0.06825  0  1.625421  0  0  -0.071649  0  1.621791  0  -0.2217  0  0.00726  -0.065783  0  1.628095  0
Cl  Cl105  1  0.49181515  0.99306587  0.22813192  1  0  -0.084684  0  1.384883  0  0  -0.068257  0  1.625445  0  0  -0.071657  0  1.621815  0  -0.221706  0  0.007247  -0.06579  0  1.628119  0
Cl  Cl106  1  0.99181633  0.49306551  0.27186670  1  0  -0.084661  0  1.384939  0  0  -0.068243  0  1.625523  0  0  -0.071646  0  1.621886  0  -0.221705  0  0.007246  -0.065776  0  1.628195  0
Cl  Cl107  1  0.50818461  0.00693562  0.77186670  1  0  -0.084647  0  1.384933  0  0  -0.068231  0  1.625522  0  0  -0.071633  0  1.621889  0  -0.221902  0  0.007257  -0.065765  0  1.628196  0
O  O108  1  0.16773343  0.87212992  0.05777403  1  0  -0.612021  0  2.067692  0  0  -0.550588  0  2.329621  0  0  -0.579336  0  2.317353  0  -1.161351  0  -0.312358  -0.530635  0  2.337327  0
O  O109  1  0.33226753  0.62787039  0.55777403  1  0  -0.612024  0  2.067655  0  0  -0.550595  0  2.329584  0  0  -0.579343  0  2.317317  0  -1.16135  0  -0.312372  -0.530639  0  2.337289  0
O  O110  1  0.83226688  0.12786315  0.94221556  1  0  -0.612168  0  2.066874  0  0  -0.550817  0  2.328757  0  0  -0.579573  0  2.316504  0  -1.161163  0  -0.31256  -0.530862  0  2.336451  0
O  O111  1  0.66773274  0.37213721  0.44221556  1  0  -0.612217  0  2.066798  0  0  -0.55081  0  2.328825  0  0  -0.57956  0  2.316577  0  -1.161178  0  -0.312522  -0.530856  0  2.336521  0
O  O112  1  0.27043462  0.98178736  0.94696815  1  0  -0.637174  0  2.091134  0  0  -0.571477  0  2.360355  0  0  -0.601519  0  2.349122  0  -1.164039  0  -0.315606  -0.550573  0  2.367381  0
O  O113  1  0.22956384  0.51821296  0.44696885  1  0  -0.637167  0  2.09114  0  0  -0.571468  0  2.360351  0  0  -0.601508  0  2.349117  0  -1.164047  0  -0.315593  -0.550563  0  2.367377  0
O  O114  1  0.72956059  0.01821948  0.05303185  1  0  -0.637119  0  2.091536  0  0  -0.57138  0  2.360537  0  0  -0.601411  0  2.349311  0  -1.164214  0  -0.315668  -0.55049  0  2.367558  0
O  O115  1  0.77043766  0.48177935  0.55303393  1  0  -0.637294  0  2.091353  0  0  -0.57146  0  2.360472  0  0  -0.601487  0  2.34925  0  -1.164014  0  -0.315715  -0.550567  0  2.36749  0
O  O116  1  0.41064812  0.73949151  0.00757251  1  0  -0.260079  0  2.372891  0  0  -0.197489  0  2.613875  0  0  -0.214238  0  2.616422  0  -1.070101  0  -0.181557  -0.185443  0  2.611697  0
O  O117  1  0.08935416  0.76050957  0.50757251  1  0  -0.26009  0  2.372818  0  0  -0.197476  0  2.613786  0  0  -0.214224  0  2.616333  0  -1.070095  0  -0.18153  -0.185428  0  2.611603  0
O  O118  1  0.58935408  0.26050921  0.99242680  1  0  -0.260114  0  2.372872  0  0  -0.197484  0  2.613867  0  0  -0.214247  0  2.616399  0  -1.070058  0  -0.181544  -0.185435  0  2.611691  0
O  O119  1  0.91064423  0.23949038  0.49242472  1  0  -0.260072  0  2.372943  0  0  -0.197476  0  2.613894  0  0  -0.214239  0  2.61642  0  -1.070091  0  -0.181542  -0.185429  0  2.611716  0
O  O120  1  0.63779960  0.65039450  0.45424375  1  0  -0.623566  0  2.092989  0  0  -0.556995  0  2.355491  0  0  -0.585991  0  2.342987  0  -1.16119  0  -0.305776  -0.536872  0  2.363355  0
O  O121  1  0.86219907  0.84960352  0.95424514  1  0  -0.623559  0  2.093003  0  0  -0.556986  0  2.355502  0  0  -0.585974  0  2.343015  0  -1.160858  0  -0.305793  -0.536871  0  2.363358  0
O  O122  1  0.36219927  0.34959627  0.54575416  1  0  -0.623748  0  2.092231  0  0  -0.557142  0  2.354759  0  0  -0.586132  0  2.342263  0  -1.160641  0  -0.305819  -0.537011  0  2.36262  0
O  O123  1  0.13780002  0.15040486  0.04575278  1  0  -0.623672  0  2.09217  0  0  -0.557062  0  2.354628  0  0  -0.586053  0  2.342143  0  -1.160683  0  -0.305777  -0.536931  0  2.362486  0
O  O124  1  0.53427519  0.54518174  0.34030509  1  0  -0.613545  0  2.05635  0  0  -0.549542  0  2.315688  0  0  -0.578084  0  2.302883  0  -1.163214  0  -0.305938  -0.529729  0  2.323779  0
O  O125  1  0.96572242  0.95481858  0.84030509  1  0  -0.613523  0  2.056266  0  0  -0.549542  0  2.315631  0  0  -0.578076  0  2.30284  0  -1.163164  0  -0.305976  -0.529733  0  2.32371  0
O  O126  1  0.46570797  0.45481592  0.65969629  1  0  -0.613348  0  2.056797  0  0  -0.549356  0  2.316195  0  0  -0.577884  0  2.303409  0  -1.163299  0  -0.305896  -0.529545  0  2.324282  0
O  O127  1  0.03428874  0.04518444  0.15969491  1  0  -0.613262  0  2.05678  0  0  -0.549299  0  2.316147  0  0  -0.577825  0  2.303364  0  -1.163296  0  -0.305897  -0.52949  0  2.32423  0
