# generated using pymatgen
data_H12PbC14S2(NO2)2
_symmetry_space_group_name_H-M   'P 1'
_cell_length_a   7.70180665
_cell_length_b   9.24336829
_cell_length_c   12.23723292
_cell_angle_alpha   110.31791507
_cell_angle_beta   106.15303512
_cell_angle_gamma   95.50818110
_symmetry_Int_Tables_number   1
_chemical_formula_structural   H12PbC14S2(NO2)2
_chemical_formula_sum   'H24 Pb2 C28 S4 N4 O8'
_cell_volume   766.57388529
_cell_formula_units_Z   2
loop_
 _symmetry_equiv_pos_site_id
 _symmetry_equiv_pos_as_xyz
  1  'x, y, z'
loop_
 _atom_site_type_symbol
 _atom_site_label
 _atom_site_symmetry_multiplicity
 _atom_site_fract_x
 _atom_site_fract_y
 _atom_site_fract_z
 _atom_site_occupancy
 _atom_site_hle17_bader_spin_density
 _atom_site_hle17_ddec_charge
 _atom_site_hle17_ddec_spin_density
 _atom_site_hle17_ddec_sum_bond_order
 _atom_site_hle17_magmom
 _atom_site_hse06_10hf_bader_spin_density
 _atom_site_hse06_10hf_ddec_charge
 _atom_site_hse06_10hf_ddec_spin_density
 _atom_site_hse06_10hf_ddec_sum_bond_order
 _atom_site_hse06_10hf_magmom
 _atom_site_hse06_bader_spin_density
 _atom_site_hse06_ddec_charge
 _atom_site_hse06_ddec_spin_density
 _atom_site_hse06_ddec_sum_bond_order
 _atom_site_hse06_magmom
 _atom_site_pbe_bader_spin_density
 _atom_site_pbe_cm5_charge
 _atom_site_pbe_ddec_charge
 _atom_site_pbe_ddec_spin_density
 _atom_site_pbe_ddec_sum_bond_order
 _atom_site_pbe_magmom
H  H0  1  0.95173085  0.37283792  0.04073284  1  0  0.074643  0  0.973353  0  0  0.083677  0  1.038307  0  0  0.086516  0  1.034979  0  0  0.110069  0.08162  0  1.040719  0
H  H1  1  0.41005479  0.33231174  0.95912662  1  0  0.074875  0  0.972975  0  0  0.084192  0  1.037504  0  0  0.087016  0  1.03421  0  0  0.110995  0.082107  0  1.039947  0
H  H2  1  0.04825276  0.62717019  0.95926001  1  0  0.074587  0  0.973353  0  0  0.083659  0  1.038266  0  0  0.086499  0  1.034941  0  0  0.110002  0.081596  0  1.040686  0
H  H3  1  0.58993825  0.66767990  0.04087422  1  0  0.074832  0  0.973028  0  0  0.084146  0  1.03756  0  0  0.08697  0  1.034266  0  0  0.110959  0.082056  0  1.040009  0
H  H4  1  0.12616344  0.65331298  0.13251001  1  0  0.106274  0  0.995094  0  0  0.115905  0  1.058251  0  0  0.119186  0  1.057104  0  0  0.102434  0.113748  0  1.059218  0
H  H5  1  0.49327102  0.52085070  0.86730699  1  0  0.106588  0  0.99326  0  0  0.116444  0  1.056266  0  0  0.119749  0  1.055107  0  0  0.102161  0.114319  0  1.057151  0
H  H6  1  0.87387970  0.34668451  0.86747495  1  0  0.106253  0  0.994863  0  0  0.11585  0  1.058092  0  0  0.119133  0  1.056931  0  0  0.102324  0.113688  0  1.059057  0
H  H7  1  0.50676581  0.47912682  0.13269701  1  0  0.106621  0  0.993268  0  0  0.116513  0  1.056224  0  0  0.119814  0  1.055068  0  0  0.102194  0.114387  0  1.057111  0
H  H8  1  0.17857735  0.64794734  0.49256778  1  0  0.113294  0  0.975442  0  0  0.117666  0  1.047136  0  0  0.122301  0  1.043803  0  0  0.098677  0.114013  0  1.050577  0
H  H9  1  0.18630647  0.15553178  0.50721074  1  0  0.113733  0  0.974059  0  0  0.118086  0  1.045935  0  0  0.122736  0  1.042609  0  0  0.099381  0.114351  0  1.049552  0
H  H10  1  0.82144526  0.35206546  0.50741513  1  0  0.113201  0  0.975305  0  0  0.11755  0  1.047057  0  0  0.122179  0  1.043746  0  0  0.09861  0.113885  0  1.050543  0
H  H11  1  0.81371319  0.84445279  0.49278801  1  0  0.113752  0  0.974178  0  0  0.118112  0  1.046009  0  0  0.122759  0  1.042688  0  0  0.099346  0.114377  0  1.049626  0
H  H12  1  0.99768725  0.37032047  0.38416664  1  0  0.079824  0  0.944691  0  0  0.088701  0  1.011035  0  0  0.09131  0  1.008141  0  0  0.113344  0.086858  0  1.013158  0
H  H13  1  0.11300752  0.98652804  0.61568131  1  0  0.080266  0  0.943046  0  0  0.08917  0  1.009227  0  0  0.091665  0  1.006488  0  0  0.113359  0.087355  0  1.011301  0
H  H14  1  0.00227249  0.62971124  0.61583063  1  0  0.079737  0  0.944691  0  0  0.088659  0  1.010943  0  0  0.091263  0  1.008059  0  0  0.113297  0.086816  0  1.01306  0
H  H15  1  0.88699516  0.01345889  0.38431753  1  0  0.080102  0  0.94316  0  0  0.089101  0  1.009283  0  0  0.091578  0  1.006562  0  0  0.113316  0.087295  0  1.011349  0
H  H16  1  0.45201628  0.03091059  0.33557155  1  0  0.135861  0  0.940168  0  0  0.145091  0  1.007238  0  0  0.148071  0  1.005755  0  0  0.106022  0.142954  0  1.008269  0
H  H17  1  0.61549412  0.69587118  0.66411282  1  0  0.136221  0  0.94083  0  0  0.145731  0  1.007346  0  0  0.148655  0  1.005912  0  0  0.106321  0.143676  0  1.008229  0
H  H18  1  0.54796768  0.96910447  0.66439293  1  0  0.135847  0  0.940207  0  0  0.145098  0  1.007153  0  0  0.148091  0  1.005654  0  0  0.106055  0.14296  0  1.008182  0
H  H19  1  0.38446027  0.30416064  0.33591133  1  0  0.136113  0  0.940726  0  0  0.145638  0  1.007373  0  0  0.148557  0  1.005944  0  0  0.106285  0.143578  0  1.008269  0
H  H20  1  0.38311429  0.83582943  0.22059869  1  0  0.119165  0  0.960572  0  0  0.131003  0  1.022304  0  0  0.132295  0  1.023161  0  0  0.101567  0.130068  0  1.021636  0
H  H21  1  0.66218387  0.61578715  0.77916409  1  0  0.119525  0  0.959714  0  0  0.131115  0  1.021568  0  0  0.13235  0  1.02256  0  0  0.101969  0.1301  0  1.020996  0
H  H22  1  0.61688008  0.16417857  0.77936987  1  0  0.119198  0  0.960476  0  0  0.130986  0  1.02223  0  0  0.13228  0  1.023086  0  0  0.10151  0.130051  0  1.021566  0
H  H23  1  0.33783574  0.38423521  0.22084775  1  0  0.119285  0  0.959826  0  0  0.130948  0  1.02171  0  0  0.132181  0  1.022697  0  0  0.101863  0.129932  0  1.021134  0
Pb  Pb24  1  0.80325059  0.05292254  0.10626542  1  0  1.269237  0  1.398982  0  0  1.071405  0  1.783294  0  0  1.134221  0  1.742596  0  0  0.630784  1.027582  0  1.811378  0
Pb  Pb25  1  0.19667700  0.94706678  0.89374789  1  0  1.269138  0  1.398983  0  0  1.071352  0  1.783323  0  0  1.134173  0  1.742609  0  0  0.630745  1.027524  0  1.811412  0
C  C26  1  0.00220617  0.43985565  0.14045911  1  0  0.123722  0  3.750649  0  0  0.097716  0  3.999556  0  0  0.105996  0  4.016845  0  0  0.040256  0.092217  0  3.988186  0
C  C27  1  0.36094929  0.29961622  0.85937838  1  0  0.123803  0  3.749969  0  0  0.097523  0  3.999113  0  0  0.105788  0  4.016479  0  0  0.039821  0.092056  0  3.987696  0
C  C28  1  0.99781088  0.56013477  0.85953090  1  0  0.123727  0  3.750684  0  0  0.097671  0  3.999572  0  0  0.105949  0  4.016869  0  0  0.040345  0.092176  0  3.988204  0
C  C29  1  0.63904574  0.70036716  0.14061983  1  0  0.123855  0  3.750114  0  0  0.097597  0  3.999231  0  0  0.105861  0  4.016598  0  0  0.03985  0.09213  0  3.987818  0
C  C30  1  0.10174005  0.59515401  0.19192335  1  0  -0.178604  0  3.725329  0  0  -0.196815  0  3.973995  0  0  -0.205737  0  3.995589  0  0  -0.100049  -0.191488  0  3.960162  0
C  C31  1  0.40946386  0.40332878  0.80793294  1  0  -0.179421  0  3.723375  0  0  -0.198164  0  3.971883  0  0  -0.20712  0  3.993481  0  0  -0.099552  -0.192775  0  3.957882  0
C  C32  1  0.89829132  0.40485055  0.80806385  1  0  -0.178447  0  3.725047  0  0  -0.196646  0  3.973669  0  0  -0.205579  0  3.99526  0  0  -0.099904  -0.191311  0  3.959827  0
C  C33  1  0.59054951  0.59665225  0.19206542  1  0  -0.179365  0  3.723192  0  0  -0.19815  0  3.971746  0  0  -0.207114  0  3.99333  0  0  -0.099562  -0.192762  0  3.957744  0
C  C34  1  0.16836213  0.67425244  0.32106395  1  0  0.086087  0  3.800282  0  0  0.100212  0  4.0568  0  0  0.107666  0  4.077948  0  0  0.005499  0.095453  0  4.042061  0
C  C35  1  0.34731005  0.35333185  0.67876218  1  0  0.084794  0  3.802872  0  0  0.100079  0  4.057691  0  0  0.107533  0  4.078859  0  0  0.005149  0.095346  0  4.042917  0
C  C36  1  0.83165271  0.32575090  0.67891432  1  0  0.085775  0  3.800012  0  0  0.099959  0  4.056427  0  0  0.107445  0  4.077528  0  0  0.005412  0.095198  0  4.041688  0
C  C37  1  0.65269892  0.64665862  0.32124032  1  0  0.084909  0  3.802575  0  0  0.100105  0  4.057525  0  0  0.107599  0  4.078642  0  0  0.005183  0.095376  0  4.042751  0
C  C38  1  0.12792538  0.59223136  0.39179793  1  0  -0.188437  0  3.740109  0  0  -0.205822  0  3.997146  0  0  -0.214466  0  4.016879  0  0  -0.09834  -0.200107  0  3.983995  0
C  C39  1  0.23620426  0.20064102  0.60803914  1  0  -0.188177  0  3.741927  0  0  -0.206208  0  3.999305  0  0  -0.214814  0  4.018873  0  0  -0.099292  -0.20039  0  3.986121  0
C  C40  1  0.87210924  0.40778621  0.60819649  1  0  -0.188193  0  3.74014  0  0  -0.205578  0  3.997119  0  0  -0.214237  0  4.016845  0  0  -0.098303  -0.199868  0  3.983957  0
C  C41  1  0.76381071  0.79935183  0.39196420  1  0  -0.18835  0  3.742082  0  0  -0.206319  0  3.99944  0  0  -0.214941  0  4.019007  0  0  -0.099276  -0.200495  0  3.986242  0
C  C42  1  0.02788498  0.43764141  0.33177553  1  0  0.137714  0  3.741271  0  0  0.101856  0  4.006116  0  0  0.111063  0  4.022943  0  0  0.040381  0.0959  0  3.994596  0
C  C43  1  0.19567311  0.10618032  0.66804937  1  0  0.137092  0  3.738793  0  0  0.101298  0  4.003813  0  0  0.110574  0  4.020657  0  0  0.040485  0.095346  0  3.992271  0
C  C44  1  0.97210403  0.56236669  0.66821417  1  0  0.137745  0  3.74134  0  0  0.101907  0  4.006134  0  0  0.111115  0  4.022962  0  0  0.040438  0.095952  0  3.994617  0
C  C45  1  0.80432820  0.89380657  0.33194350  1  0  0.13731  0  3.738931  0  0  0.101391  0  4.004  0  0  0.110682  0  4.020848  0  0  0.040556  0.095428  0  3.992459  0
C  C46  1  0.33701148  0.92702128  0.28421872  1  0  -0.307624  0  3.624237  0  0  -0.336938  0  3.869231  0  0  -0.341195  0  3.874051  0  0  -0.15316  -0.333814  0  3.865789  0
C  C47  1  0.55223343  0.64326245  0.71560535  1  0  -0.307804  0  3.620586  0  0  -0.337771  0  3.867669  0  0  -0.342029  0  3.872552  0  0  -0.154095  -0.334727  0  3.864322  0
C  C48  1  0.66298568  0.07297615  0.71575819  1  0  -0.307716  0  3.624128  0  0  -0.336858  0  3.868983  0  0  -0.341122  0  3.873785  0  0  -0.153189  -0.333734  0  3.86554  0
C  C49  1  0.44776635  0.35676708  0.28442777  1  0  -0.307246  0  3.620645  0  0  -0.337388  0  3.867595  0  0  -0.341631  0  3.872464  0  0  -0.153964  -0.33433  0  3.864219  0
C  C50  1  0.16995438  0.97389245  0.21368678  1  0  0.698894  0  3.881399  0  0  0.651722  0  4.176421  0  0  0.685804  0  4.170853  0  0  0.201082  0.628334  0  4.179885  0
C  C51  1  0.45546312  0.76034383  0.78612096  1  0  0.696424  0  3.883334  0  0  0.649694  0  4.177822  0  0  0.683803  0  4.172295  0  0  0.200587  0.626309  0  4.181275  0
C  C52  1  0.83002314  0.02610743  0.78631349  1  0  0.699166  0  3.881317  0  0  0.6519  0  4.17641  0  0  0.685985  0  4.170845  0  0  0.201235  0.628506  0  4.179875  0
C  C53  1  0.54452021  0.23964674  0.21390323  1  0  0.695992  0  3.883123  0  0  0.649446  0  4.177418  0  0  0.68355  0  4.171894  0  0  0.200608  0.626057  0  4.180873  0
S  S54  1  0.30188916  0.86516630  0.40232649  1  0  0.0615  0  2.50648  0  0  0.062384  0  2.856505  0  0  0.056837  0  2.859033  0  0  0.048551  0.066761  0  2.855647  0
S  S55  1  0.39932688  0.46315762  0.59752905  1  0  0.063079  0  2.506194  0  0  0.06377  0  2.856219  0  0  0.058227  0  2.858757  0  0  0.049692  0.068013  0  2.855355  0
S  S56  1  0.69817120  0.13481351  0.59765852  1  0  0.061727  0  2.506395  0  0  0.062539  0  2.856375  0  0  0.056982  0  2.85888  0  0  0.0487  0.06691  0  2.855531  0
S  S57  1  0.60069034  0.53683881  0.40248625  1  0  0.062972  0  2.506419  0  0  0.063738  0  2.856551  0  0  0.058176  0  2.859077  0  0  0.049668  0.067975  0  2.855683  0
N  N58  1  0.96516511  0.36082458  0.20781711  1  0  -0.355206  0  3.201397  0  0  -0.283919  0  3.457195  0  0  -0.303933  0  3.477534  0  0  -0.311889  -0.270416  0  3.443482  0
N  N59  1  0.25654021  0.15332664  0.79204511  1  0  -0.354878  0  3.197646  0  0  -0.283491  0  3.453641  0  0  -0.303531  0  3.474002  0  0  -0.31229  -0.269935  0  3.439882  0
N  N60  1  0.03483050  0.63918827  0.79217989  1  0  -0.355174  0  3.200952  0  0  -0.283877  0  3.456707  0  0  -0.303892  0  3.477048  0  0  -0.311869  -0.270371  0  3.442993  0
N  N61  1  0.74344054  0.84665909  0.20795286  1  0  -0.354841  0  3.197992  0  0  -0.283477  0  3.454096  0  0  -0.303512  0  3.474444  0  0  -0.312299  -0.269924  0  3.440358  0
O  O62  1  0.10616923  0.90200533  0.09658789  1  0  -0.703697  0  1.948825  0  0  -0.634453  0  2.181344  0  0  -0.665731  0  2.174877  0  0  -0.313997  -0.612377  0  2.184992  0
O  O63  1  0.50803651  0.80482873  0.90314623  1  0  -0.702684  0  1.94827  0  0  -0.633774  0  2.180518  0  0  -0.664968  0  2.173999  0  0  -0.315153  -0.611743  0  2.183878  0
O  O64  1  0.89377815  0.09798750  0.90341917  1  0  -0.703837  0  1.948686  0  0  -0.634573  0  2.181269  0  0  -0.665851  0  2.174791  0  0  -0.314078  -0.612504  0  2.184929  0
O  O65  1  0.49191932  0.19513822  0.09687519  1  0  -0.702487  0  1.948049  0  0  -0.633685  0  2.180272  0  0  -0.664878  0  2.173756  0  0  -0.315119  -0.611655  0  2.183637  0
O  O66  1  0.10497585  0.08268820  0.27625591  1  0  -0.63857  0  1.940391  0  0  -0.574234  0  2.173494  0  0  -0.603583  0  2.167294  0  0  -0.305729  -0.553989  0  2.178208  0
O  O67  1  0.32849751  0.80718206  0.72363227  1  0  -0.637495  0  1.941108  0  0  -0.572967  0  2.173277  0  0  -0.602382  0  2.167217  0  0  -0.305094  -0.552823  0  2.178002  0
O  O68  1  0.89502196  0.91731172  0.72375036  1  0  -0.638634  0  1.940383  0  0  -0.574308  0  2.173582  0  0  -0.603642  0  2.167339  0  0  -0.305769  -0.554061  0  2.178295  0
O  O69  1  0.67151275  0.19282980  0.27640380  1  0  -0.637572  0  1.941245  0  0  -0.572886  0  2.17312  0  0  -0.602293  0  2.167043  0  0  -0.305115  -0.552739  0  2.177851  0
