# generated using pymatgen
data_Al6H80(C15O4)7
_symmetry_space_group_name_H-M   'P 1'
_cell_length_a   12.84822211
_cell_length_b   13.13955884
_cell_length_c   27.59220184
_cell_angle_alpha   89.75383702
_cell_angle_beta   90.49027084
_cell_angle_gamma   121.01282412
_symmetry_Int_Tables_number   1
_chemical_formula_structural   Al6H80(C15O4)7
_chemical_formula_sum   'Al6 H80 C105 O28'
_cell_volume   3992.10033730
_cell_formula_units_Z   1
loop_
 _symmetry_equiv_pos_site_id
 _symmetry_equiv_pos_as_xyz
  1  'x, y, z'
loop_
 _atom_site_type_symbol
 _atom_site_label
 _atom_site_symmetry_multiplicity
 _atom_site_fract_x
 _atom_site_fract_y
 _atom_site_fract_z
 _atom_site_occupancy
 _atom_site_pbe_bader_charge
 _atom_site_pbe_bader_spin_density
 _atom_site_pbe_cm5_charge
 _atom_site_pbe_ddec_charge
 _atom_site_pbe_ddec_spin_density
 _atom_site_pbe_ddec_sum_bond_order
 _atom_site_pbe_magmom
Al  Al0  1  0.15173279  0.56641055  0.50263899  1  2.496604  0  0.395411  1.686367  0  2.556206  0
Al  Al1  1  0.41102978  0.58714680  0.50458642  1  2.483741  0  0.503518  1.660415  0  2.511436  0
Al  Al2  1  0.40575497  0.81279991  0.50232731  1  2.47804  0  0.503421  1.659321  0  2.515258  0
Al  Al3  1  0.17924274  0.09127834  0.01315792  1  2.491963  0  0.395974  1.688707  0  2.554107  0
Al  Al4  1  0.91973228  0.07124428  0.01934825  1  2.482419  0  0.504001  1.661407  0  2.510379  0
Al  Al5  1  0.92326973  0.84490155  0.01695158  1  2.482823  0  0.50513  1.662692  0  2.507102  0
H  H6  1  0.58000201  0.93261120  0.81507060  1  0.046584  0  0.098447  0.102966  0  0.984604  0
H  H7  1  0.72932937  0.70848323  0.79585655  1  0.016721  0  0.093936  0.0938  0  0.988509  0
H  H8  1  0.24735120  0.02607310  0.78626443  1  0.025241  0  0.092556  0.091415  0  0.992866  0
H  H9  1  0.95569181  0.25688625  0.78550186  1  -0.004395  0  0.091693  0.09052  0  0.986147  0
H  H10  1  0.66439497  0.97213718  0.13406101  1  0.061927  0  0.110591  0.117509  0  0.991764  0
H  H11  1  0.98696177  0.67725333  0.13118790  1  0.086028  0  0.11108  0.117919  0  0.993453  0
H  H12  1  0.29980288  0.27376647  0.13969080  1  0.12986  0  0.113049  0.12113  0  0.995137  0
H  H13  1  0.51848074  0.90988421  0.37227544  1  0.090772  0  0.108114  0.114254  0  1.017899  0
H  H14  1  0.06441526  0.60016898  0.36933940  1  0.119058  0  0.115337  0.126663  0  0.994367  0
H  H15  1  0.39828275  0.42720126  0.37747787  1  0.092226  0  0.108612  0.116034  0  1.002237  0
H  H16  1  0.56205464  0.00683215  0.20333755  1  0.026392  0  0.103245  0.105284  0  0.99649  0
H  H17  1  0.04235612  0.64648215  0.80325480  1  0.051012  0  0.096144  0.098781  0  0.988695  0
H  H18  1  0.93207233  0.54369560  0.20323080  1  0.076505  0  0.105798  0.108114  0  0.987406  0
H  H19  1  0.43834671  0.34436154  0.21171143  1  0.042343  0  0.104137  0.103775  0  0.991358  0
H  H20  1  0.51126288  0.98586090  0.29017874  1  0.054224  0  0.096773  0.097287  0  1.043982  0
H  H21  1  0.95809980  0.51639676  0.29045978  1  0.071987  0  0.103435  0.104764  0  1.003012  0
H  H22  1  0.47347783  0.39691079  0.29887495  1  0.044227  0  0.102944  0.104251  0  0.995128  0
H  H23  1  0.83587723  0.76738297  0.15515896  1  0.084189  0  0.10721  0.114295  0  1.017414  0
H  H24  1  0.27042062  0.04326032  0.14166387  1  0.10259  0  0.111774  0.119704  0  1.003878  0
H  H25  1  0.93311568  0.19565984  0.15194698  1  0.081781  0  0.10731  0.114018  0  1.008039  0
H  H26  1  0.85062138  0.69853248  0.23807030  1  0.06544  0  0.096163  0.096442  0  1.047968  0
H  H27  1  0.37324833  0.12775871  0.22108087  1  0.059449  0  0.100685  0.100599  0  1.017983  0
H  H28  1  0.33112040  0.38717003  0.81905355  1  0.021162  0  0.099923  0.104936  0  0.980813  0
H  H29  1  0.85319278  0.21212537  0.23228132  1  0.079813  0  0.100447  0.103086  0  1.003519  0
H  H30  1  0.79791749  0.67568806  0.32472661  1  0.070698  0  0.105235  0.108491  0  0.992382  0
H  H31  1  0.39714407  0.10165662  0.30840920  1  0.054095  0  0.104402  0.105075  0  0.991962  0
H  H32  1  0.88934195  0.26775682  0.31909624  1  0.056728  0  0.105229  0.107104  0  0.989404  0
H  H33  1  0.68640238  0.70194056  0.39324760  1  0.0895  0  0.111761  0.119099  0  0.988454  0
H  H34  1  0.34542201  0.96708932  0.38028610  1  0.083421  0  0.109197  0.115603  0  0.996331  0
H  H35  1  0.03224203  0.35165718  0.38968991  1  0.114576  0  0.11719  0.128944  0  0.986046  0
H  H36  1  0.82966316  0.87411684  0.71584151  1  0.037957  0  0.095418  0.099031  0  0.985164  0
H  H37  1  0.08980185  0.94348909  0.70071239  1  0.026641  0  0.094326  0.094839  0  0.985025  0
H  H38  1  0.03692739  0.15551958  0.70884646  1  0.031636  0  0.093312  0.093846  0  0.984748  0
H  H39  1  0.46551955  0.80231977  0.72899945  1  0.036539  0  0.091981  0.058724  0  0.983144  0
H  H40  1  0.80814494  0.99533520  0.70852252  1  0.042097  0  0.09569  0.094909  0  0.992317  0
H  H41  1  0.97715859  0.79317531  0.69207816  1  0.061964  0  0.096347  0.096337  0  0.989017  0
H  H42  1  0.18382263  0.17628098  0.70939268  1  0.026303  0  0.094013  0.092164  0  0.994182  0
H  H43  1  0.80294873  0.02117444  0.79284750  1  0.023069  0  0.094382  0.091099  0  0.995251  0
H  H44  1  0.93858013  0.76065317  0.77583346  1  0.020592  0  0.092147  0.088612  0  0.996535  0
H  H45  1  0.19116635  0.17313689  0.79481754  1  0.019133  0  0.094461  0.091368  0  0.996168  0
H  H46  1  0.86958187  0.93278530  0.79768320  1  0.034034  0  0.092367  0.086805  0  1.024649  0
H  H47  1  0.01908360  0.91721574  0.78064945  1  0.035282  0  0.091633  0.088914  0  1.017054  0
H  H48  1  0.03270693  0.11281024  0.79198498  1  0.041891  0  0.09154  0.087819  0  1.022509  0
H  H49  1  0.50787682  0.64247264  0.73492421  1  0.02142  0  0.091932  0.087571  0  1.026874  0
H  H50  1  0.19528564  0.68551565  0.72229629  1  0.022918  0  0.091067  0.057017  0  0.98518  0
H  H51  1  0.34345572  0.89543982  0.73056596  1  0.020185  0  0.093435  0.091107  0  1.021238  0
H  H52  1  0.13159517  0.47184735  0.72797046  1  0.017359  0  0.093436  0.091328  0  1.005787  0
H  H53  1  0.64768705  0.66139925  0.71650036  1  0.020382  0  0.09652  0.097975  0  0.996548  0
H  H54  1  0.31411116  0.00482895  0.70938866  1  0.01569  0  0.095532  0.097259  0  0.992325  0
H  H55  1  0.00941691  0.33640354  0.70648821  1  0.028957  0  0.095686  0.09686  0  0.999761  0
H  H56  1  0.57677407  0.64350726  0.81411499  1  0.038728  0  0.097628  0.100872  0  0.977912  0
H  H57  1  0.32162737  0.95371934  0.80845779  1  0.032304  0  0.097322  0.099852  0  0.974  0
H  H58  1  0.04816476  0.40499301  0.80528682  1  0.013214  0  0.095172  0.096486  0  0.981088  0
H  H59  1  0.51104590  0.13894976  0.69375627  1  -0.001857  0  0.077427  0.093945  0  1.041522  0
H  H60  1  0.66498358  0.20432354  0.67641684  1  0.010009  0  0.082438  0.107427  0  1.030723  0
H  H61  1  0.33349819  0.50931505  0.73214530  1  -0.01958  0  0.08998  0.053542  0  1.002308  0
H  H62  1  0.54826064  0.14145085  0.63175319  1  0.019733  0  0.092133  0.125367  0  0.987428  0
H  H63  1  0.62596710  0.00463393  0.65018059  1  0.024273  0  0.086832  0.082958  0  0.997641  0
H  H64  1  0.47198451  0.93862525  0.66440079  1  0.042331  0  0.08473  0.074279  0  1.003521  0
H  H65  1  0.53563417  0.01229905  0.75191364  1  0.02066  0  0.088009  0.080082  0  1.000885  0
H  H66  1  0.68479037  0.05583924  0.73703606  1  0.029723  0  0.086599  0.078299  0  1.001976  0
H  H67  1  0.86751300  0.36605229  0.67857466  1  0.002003  0  0.075858  0.091783  0  1.044081  0
H  H68  1  0.79753554  0.44349559  0.65680158  1  0.023234  0  0.083092  0.108453  0  1.036236  0
H  H69  1  0.87617246  0.40231506  0.61617578  1  0.031449  0  0.091998  0.123822  0  0.996721  0
H  H70  1  0.00163739  0.61920469  0.63641270  1  0.037492  0  0.088138  0.086116  0  1.000101  0
H  H71  1  0.07372751  0.54363441  0.65549421  1  0.025999  0  0.086315  0.078762  0  0.994074  0
H  H72  1  0.48347836  0.77697535  0.81112702  1  0.043236  0  0.093982  0.097417  0  0.978526  0
H  H73  1  0.98229457  0.52266729  0.73950210  1  0.001887  0  0.086555  0.078381  0  1.004573  0
H  H74  1  0.92717925  0.61349693  0.72070220  1  -0.008544  0  0.085989  0.077521  0  1.003199  0
H  H75  1  0.64256671  0.48501128  0.70568027  1  0.006232  0  0.076072  0.094225  0  1.030477  0
H  H76  1  0.56217852  0.33165454  0.69152682  1  0.013729  0  0.082901  0.109196  0  1.036356  0
H  H77  1  0.61221802  0.43800928  0.64418123  1  0.023315  0  0.090514  0.121179  0  0.995546  0
H  H78  1  0.38967011  0.34965095  0.65711904  1  0.029307  0  0.087146  0.082084  0  0.993469  0
H  H79  1  0.46867086  0.50160697  0.66999601  1  0.023992  0  0.08582  0.075092  0  1.000446  0
H  H80  1  0.47554917  0.44552206  0.75988874  1  0.028139  0  0.088721  0.08238  0  0.995584  0
H  H81  1  0.37092773  0.29825205  0.74420827  1  -0.009662  0  0.087317  0.079827  0  0.995797  0
H  H82  1  0.20268879  0.72496822  0.80441792  1  0.024627  0  0.093027  0.096155  0  0.978036  0
H  H83  1  0.27912558  0.48747874  0.81281424  1  0.012583  0  0.09308  0.096059  0  0.977634  0
H  H84  1  0.95283199  0.47089186  0.53211800  1  0.567884  0  0.286657  0.376233  0  0.939056  0
H  H85  1  0.38133977  0.14854965  0.02993657  1  0.57951  0  0.286797  0.374036  0  0.937168  0
C  C86  1  0.23626417  0.78911965  0.56683342  1  1.652748  0  0.2785  0.716272  0  4.158352  0
C  C87  1  0.69784536  0.84780216  0.86226763  1  -0.413141  0  -0.003287  0.004442  0  3.97712  0
C  C88  1  0.00144520  0.59616532  0.71457672  1  -0.002157  0  -0.165284  -0.180985  0  3.93238  0
C  C89  1  0.99475262  0.55293945  0.66260176  1  -0.015887  0  -0.17223  -0.103631  0  3.9616  0
C  C90  1  0.87777025  0.43499168  0.65291846  1  -0.059543  0  -0.24477  -0.351987  0  3.971131  0
C  C91  1  0.40169172  0.39080547  0.73397244  1  -0.010616  0  -0.164814  -0.180567  0  3.929052  0
C  C92  1  0.45471039  0.41596859  0.68284332  1  -0.004518  0  -0.172223  -0.101683  0  3.968051  0
C  C93  1  0.57431431  0.41778241  0.68089501  1  -0.064608  0  -0.246268  -0.355116  0  3.981281  0
C  C94  1  0.10750184  0.84563766  0.85014281  1  -0.297811  0  -0.018185  -0.026077  0  4.015638  0
C  C95  1  0.11616933  0.27937702  0.85856256  1  -0.430466  0  -0.012875  -0.014299  0  4.006098  0
C  C96  1  0.61928011  0.80882178  0.66426397  1  -0.436447  0  0.001372  0.0115  0  3.983065  0
C  C97  1  0.18334488  0.82201636  0.65516895  1  -0.065415  0  -0.005125  -0.000472  0  4.004491  0
C  C98  1  0.19757239  0.36484415  0.66281396  1  -0.237821  0  -0.008538  -0.007856  0  4.014846  0
C  C99  1  0.59701054  0.79132134  0.62110992  1  0.149778  0  -0.048813  -0.234824  0  3.947016  0
C  C100  1  0.20915292  0.81959877  0.61307071  1  -0.228493  0  -0.050077  -0.232187  0  3.958179  0
C  C101  1  0.20981027  0.39441717  0.62049698  1  -0.03748  0  -0.049736  -0.228174  0  3.963887  0
C  C102  1  0.09408362  0.19659334  0.08959921  1  1.542593  0  0.270633  0.64128  0  4.087383  0
C  C103  1  0.23268550  0.45079119  0.57387122  1  1.629468  0  0.278227  0.722748  0  4.153684  0
C  C104  1  0.79051213  0.88752398  0.08841502  1  1.533148  0  0.277533  0.651857  0  4.068955  0
C  C105  1  0.10551352  0.88422786  0.08127800  1  1.583242  0  0.271641  0.642986  0  4.089594  0
C  C106  1  0.08612371  0.21275143  0.95016619  1  1.628222  0  0.282347  0.718805  0  4.160006  0
C  C107  1  0.77240034  0.88608748  0.95332163  1  1.677215  0  0.284227  0.731744  0  4.142909  0
C  C108  1  0.08166335  0.88482548  0.94210799  1  1.664207  0  0.274846  0.715835  0  4.162227  0
C  C109  1  0.56960837  0.87228673  0.35728949  1  -0.017879  0  -0.076064  -0.136979  0  3.911662  0
C  C110  1  0.11785009  0.68633215  0.35177688  1  -0.018234  0  -0.072904  -0.134914  0  3.912229  0
C  C111  1  0.30958218  0.39446876  0.36062197  1  -0.026461  0  -0.077383  -0.138802  0  3.929118  0
C  C112  1  0.59930385  0.88646963  0.30798329  1  -0.005251  0  -0.004968  0.079109  0  4.033034  0
C  C113  1  0.10022993  0.70031811  0.30263929  1  -0.019777  0  -0.006208  0.073706  0  4.041352  0
C  C114  1  0.54748553  0.76517718  0.57278311  1  1.635739  0  0.283514  0.730176  0  4.142575  0
C  C115  1  0.29027346  0.35999425  0.31183766  1  -0.03248  0  -0.0068  0.074125  0  4.042541  0
C  C116  1  0.65849823  0.91081214  0.20754886  1  0.008755  0  -0.003949  0.076  0  4.039799  0
C  C117  1  0.07109739  0.73146973  0.20221689  1  0.024091  0  -0.006529  0.070099  0  4.045547  0
C  C118  1  0.24989194  0.29865424  0.21170203  1  -0.025446  0  -0.006845  0.074165  0  4.044266  0
C  C119  1  0.22946797  0.75801239  0.42968582  1  1.571157  0  0.271476  0.636514  0  4.092203  0
C  C120  1  0.24325170  0.44363306  0.43736797  1  1.531376  0  0.273454  0.637278  0  4.086564  0
C  C121  1  0.55289700  0.78044622  0.43767779  1  1.524989  0  0.279153  0.652476  0  4.06754  0
C  C122  1  0.59164168  0.96052343  0.22756765  1  0.012723  0  -0.088986  -0.131642  0  4.009992  0
C  C123  1  0.99875876  0.61812863  0.22523715  1  -0.130999  0  -0.088505  -0.134223  0  4.017828  0
C  C124  1  0.36548854  0.33743532  0.23424052  1  -0.045298  0  -0.088304  -0.130681  0  4.024437  0
C  C125  1  0.64740879  0.71431681  0.79168533  1  -0.006404  0  -0.154628  -0.192855  0  3.86113  0
C  C126  1  0.56357915  0.94904063  0.27564853  1  -0.034948  0  -0.088954  -0.125037  0  3.9977  0
C  C127  1  0.01267025  0.60317470  0.27337262  1  0.021081  0  -0.08485  -0.123396  0  3.99844  0
C  C128  1  0.38481590  0.36644027  0.28223510  1  -0.005074  0  -0.088496  -0.129671  0  4.014573  0
C  C129  1  0.68929384  0.92230837  0.15836781  1  -0.01062  0  -0.076534  -0.140798  0  3.92842  0
C  C130  1  0.05624340  0.74968883  0.15316707  1  -0.017568  0  -0.077128  -0.140808  0  3.93416  0
C  C131  1  0.22856265  0.26921557  0.16245832  1  -0.035732  0  -0.075551  -0.138895  0  3.92593  0
C  C132  1  0.75133650  0.86937580  0.13984075  1  -0.027387  0  -0.015846  -0.043142  0  4.016327  0
C  C133  1  0.12866142  0.86136000  0.13192162  1  -0.071892  0  -0.016822  -0.044716  0  4.022446  0
C  C134  1  0.11534449  0.23358148  0.14139042  1  -0.050743  0  -0.017299  -0.041819  0  4.019243  0
C  C135  1  0.66438393  0.75434091  0.36914935  1  -0.05021  0  -0.074982  -0.138298  0  3.919731  0
C  C136  1  0.25051753  0.94429452  0.78327017  1  -0.016408  0  -0.154512  -0.187664  0  3.859842  0
C  C137  1  0.27710301  0.89419685  0.35817805  1  -0.055833  0  -0.078043  -0.143914  0  3.93671  0
C  C138  1  0.10196128  0.35163287  0.36741589  1  -0.032624  0  -0.0728  -0.136402  0  3.91472  0
C  C139  1  0.69994817  0.77025539  0.32042078  1  0.018596  0  -0.003739  0.079255  0  4.032106  0
C  C140  1  0.26127798  0.91270259  0.30922428  1  -0.02232  0  -0.006265  0.072027  0  4.039748  0
C  C141  1  0.07824563  0.31491960  0.31893201  1  -0.04648  0  -0.006314  0.074185  0  4.042351  0
C  C142  1  0.66526285  0.83517051  0.28906503  1  0.028102  0  0.008774  0.005871  0  3.899815  0
C  C143  1  0.17345773  0.81442342  0.28073189  1  0.033622  0  0.008149  0.008088  0  3.903529  0
C  C144  1  0.17374546  0.32080998  0.29039628  1  0.011158  0  0.008194  0.008828  0  3.900745  0
C  C145  1  0.76859490  0.72226333  0.30053890  1  -0.031994  0  -0.087736  -0.131471  0  4.001435  0
C  C146  1  0.33220995  0.02638017  0.28630989  1  -0.026842  0  -0.088229  -0.131403  0  4.017083  0
C  C147  1  0.04827770  0.33468866  0.78392362  1  0.030764  0  -0.155816  -0.191591  0  3.873163  0
C  C148  1  0.96197005  0.27404467  0.29662124  1  -0.074355  0  -0.08835  -0.132272  0  4.016634  0
C  C149  1  0.79771652  0.73478513  0.25254026  1  -0.063131  0  -0.089185  -0.123732  0  3.992726  0
C  C150  1  0.31920147  0.04088215  0.23805699  1  -0.037883  0  -0.087027  -0.125459  0  4.003303  0
C  C151  1  0.94229925  0.24374320  0.24872609  1  -0.001837  0  -0.089067  -0.129766  0  4.009696  0
C  C152  1  0.76037883  0.79576601  0.22003372  1  -0.034742  0  -0.004186  0.080452  0  4.026893  0
C  C153  1  0.23315915  0.94351315  0.20856608  1  0.009057  0  -0.006006  0.076393  0  4.039665  0
C  C154  1  0.03746354  0.25233919  0.21886372  1  -0.014288  0  -0.005964  0.075776  0  4.035609  0
C  C155  1  0.55949489  0.86504377  0.74099717  1  0.00667  0  -0.077227  -0.01389  0  3.766847  0
C  C156  1  0.12283454  0.70361262  0.73127351  1  0.016185  0  -0.077753  -0.014552  0  3.767763  0
C  C157  1  0.30019715  0.41702804  0.74344668  1  0.046671  0  -0.078859  -0.016481  0  3.77972  0
C  C158  1  0.60659348  0.70110884  0.73829022  1  -0.005278  0  -0.156277  -0.196124  0  3.857843  0
C  C159  1  0.69483986  0.84745109  0.23901238  1  -0.014188  0  0.0084  0.007546  0  3.899576  0
C  C160  1  0.15942818  0.82966988  0.23059347  1  -0.022947  0  0.007829  0.005817  0  3.906481  0
C  C161  1  0.15355929  0.29019089  0.24046886  1  0.027811  0  0.007763  0.006631  0  3.901666  0
C  C162  1  0.78599837  0.80617238  0.17033219  1  0.011064  0  -0.074778  -0.134601  0  3.904206  0
C  C163  1  0.21712067  0.95701315  0.15919126  1  -0.02619  0  -0.074929  -0.13544  0  3.91767  0
C  C164  1  0.02072754  0.22522288  0.16925688  1  -0.00822  0  -0.078034  -0.138903  0  3.925636  0
C  C165  1  0.60016279  0.80524196  0.38740444  1  -0.013802  0  -0.016201  -0.043769  0  4.020606  0
C  C166  1  0.20671528  0.78180038  0.37906432  1  -0.05831  0  -0.016167  -0.040714  0  4.018318  0
C  C167  1  0.21688259  0.39205419  0.38783828  1  0.003621  0  -0.017637  -0.045228  0  4.026924  0
C  C168  1  0.77585157  0.91202433  0.72850868  1  -0.028128  0  -0.152098  -0.185202  0  3.84399  0
C  C169  1  0.27638707  0.92335174  0.73109826  1  -0.000769  0  -0.157621  -0.199156  0  3.865793  0
C  C170  1  0.05732927  0.85304770  0.71401554  1  -0.046958  0  -0.154273  -0.188538  0  3.860301  0
C  C171  1  0.12723478  0.20692914  0.72586855  1  -0.022076  0  -0.153035  -0.183185  0  3.853184  0
C  C172  1  0.79001567  0.93401514  0.78378328  1  -0.02454  0  -0.152663  -0.19268  0  3.845974  0
C  C173  1  0.02620087  0.84168290  0.76846605  1  -0.032305  0  -0.154308  -0.19241  0  3.850107  0
C  C174  1  0.12032669  0.18955438  0.78142738  1  -0.023259  0  -0.154238  -0.190328  0  3.838706  0
C  C175  1  0.72044663  0.85869748  0.90548839  1  0.098463  0  -0.048012  -0.226315  0  3.955225  0
C  C176  1  0.09604622  0.85718237  0.89308728  1  0.024636  0  -0.049854  -0.216191  0  3.97267  0
C  C177  1  0.10159136  0.25864300  0.90172219  1  0.167304  0  -0.048014  -0.221753  0  3.969895  0
C  C178  1  0.64064342  0.82333106  0.71625150  1  0.147661  0  0.003517  0.136639  0  3.856366  0
C  C179  1  0.15880947  0.82463608  0.70616816  1  0.130776  0  0.003137  0.137052  0  3.866484  0
C  C180  1  0.08752650  0.37499129  0.73139805  1  -0.008762  0  -0.156354  -0.196022  0  3.860769  0
C  C181  1  0.17964754  0.33972380  0.71428053  1  0.144052  0  0.002505  0.136476  0  3.87188  0
C  C182  1  0.56756830  0.85280798  0.79685237  1  -0.063922  0  -0.15206  -0.229779  0  3.827371  0
C  C183  1  0.12367360  0.72163264  0.78698434  1  -0.047515  0  -0.152397  -0.226706  0  3.828694  0
C  C184  1  0.26884227  0.40496831  0.79823876  1  0.000442  0  -0.151736  -0.227448  0  3.823674  0
C  C185  1  0.67531101  0.83663647  0.81042125  1  0.159047  0  0.001977  0.173143  0  3.891762  0
C  C186  1  0.12634271  0.83798669  0.79888747  1  0.136033  0  0.000255  0.17414  0  3.898304  0
C  C187  1  0.13710669  0.30213535  0.80712594  1  0.145409  0  0.000963  0.173675  0  3.899931  0
C  C188  1  0.58941640  0.99084577  0.72755401  1  -0.058683  0  -0.165932  -0.18332  0  3.936945  0
C  C189  1  0.56339491  0.01059224  0.67523387  1  -0.015122  0  -0.172939  -0.103508  0  3.970135  0
C  C190  1  0.57247943  0.13028181  0.66884038  1  -0.040784  0  -0.245028  -0.351683  0  3.975373  0
O  O191  1  0.16034533  0.48393864  0.56039914  1  -1.230592  0  -0.213854  -0.571284  0  2.304863  0
O  O192  1  0.16359234  0.45627713  0.45824238  1  -1.23837  0  -0.21175  -0.557035  0  2.343423  0
O  O193  1  0.53497491  0.68572990  0.45848658  1  -1.256829  0  -0.232071  -0.594413  0  2.287517  0
O  O194  1  0.32289028  0.84088962  0.45238943  1  -1.279882  0  -0.25011  -0.617879  0  2.286796  0
O  O195  1  0.15754608  0.65576008  0.44639322  1  -1.25076  0  -0.211228  -0.552918  0  2.373617  0
O  O196  1  0.35018611  0.47778705  0.45506239  1  -1.275264  0  -0.248807  -0.614651  0  2.281336  0
O  O197  1  0.52596594  0.85339059  0.45634946  1  -1.269242  0  -0.236998  -0.602601  0  2.298882  0
O  O198  1  0.32512051  0.65679212  0.50369596  1  -1.611394  0  -0.391795  -1.270151  0  2.299198  0
O  O199  1  0.18040996  0.98283113  0.06238768  1  -1.2551  0  -0.22028  -0.582983  0  2.369492  0
O  O200  1  0.99364308  0.17742647  0.07002737  1  -1.2785  0  -0.251842  -0.619544  0  2.285938  0
O  O201  1  0.81892423  0.81570699  0.07021973  1  -1.265512  0  -0.23346  -0.597002  0  2.303308  0
O  O202  1  0.52508606  0.66611423  0.55442992  1  -1.24857  0  -0.23229  -0.595384  0  2.236191  0
O  O203  1  0.17258374  0.18215203  0.06877499  1  -1.243256  0  -0.21656  -0.568097  0  2.356932  0
O  O204  1  0.79984962  0.97752095  0.06604273  1  -1.265011  0  -0.236694  -0.601585  0  2.291359  0
O  O205  1  0.00634838  0.80363554  0.06070511  1  -1.281608  0  -0.24759  -0.608591  0  2.27438  0
O  O206  1  0.00537184  0.00127364  0.01638585  1  -1.611989  0  -0.391286  -1.26853  0  2.287572  0
O  O207  1  0.16672467  0.19282126  0.96549782  1  -1.211861  0  -0.198703  -0.530983  0  2.286168  0
O  O208  1  0.80067359  0.98750765  0.97050169  1  -1.237497  0  -0.227152  -0.588803  0  2.249008  0
O  O209  1  0.98605251  0.80554291  0.96467299  1  -1.264667  0  -0.245955  -0.611645  0  2.231576  0
O  O210  1  0.34080284  0.86465085  0.54843927  1  -1.253732  0  -0.244337  -0.605382  0  2.217984  0
O  O211  1  0.16106410  0.98516155  0.95828944  1  -1.22099  0  -0.208175  -0.554399  0  2.286403  0
O  O212  1  0.98953284  0.19091534  0.97304496  1  -1.252941  0  -0.243307  -0.607662  0  2.22777  0
O  O213  1  0.79286066  0.81074422  0.97408461  1  -1.244296  0  -0.228127  -0.591718  0  2.241853  0
O  O214  1  0.15963745  0.68965577  0.54899438  1  -1.220023  0  -0.207905  -0.558023  0  2.276148  0
O  O215  1  0.32676308  0.46711681  0.55070609  1  -1.252507  0  -0.242504  -0.607158  0  2.231377  0
O  O216  1  0.52365016  0.83856974  0.55272965  1  -1.236662  0  -0.224385  -0.583823  0  2.240743  0
O  O217  1  0.99218964  0.48513288  0.50105750  1  -1.360728  0  -0.580903  -0.998993  0  1.794714  0
O  O218  1  0.33806227  0.17454790  0.00949440  1  -1.372335  0  -0.581244  -0.995929  0  1.801238  0
