# generated using pymatgen
data_CdH7C3N(ClO)2
_symmetry_space_group_name_H-M   'P 1'
_cell_length_a   6.80765778
_cell_length_b   7.74582442
_cell_length_c   13.26627223
_cell_angle_alpha   89.99997928
_cell_angle_beta   89.99990318
_cell_angle_gamma   89.99950291
_symmetry_Int_Tables_number   1
_chemical_formula_structural   CdH7C3N(ClO)2
_chemical_formula_sum   'Cd4 H28 C12 N4 Cl8 O8'
_cell_volume   699.54276423
_cell_formula_units_Z   4
loop_
 _symmetry_equiv_pos_site_id
 _symmetry_equiv_pos_as_xyz
  1  'x, y, z'
loop_
 _atom_site_type_symbol
 _atom_site_label
 _atom_site_symmetry_multiplicity
 _atom_site_fract_x
 _atom_site_fract_y
 _atom_site_fract_z
 _atom_site_occupancy
 _atom_site_hle17_bader_spin_density
 _atom_site_hle17_ddec_charge
 _atom_site_hle17_ddec_spin_density
 _atom_site_hle17_ddec_sum_bond_order
 _atom_site_hle17_magmom
 _atom_site_hse06_10hf_bader_spin_density
 _atom_site_hse06_10hf_ddec_charge
 _atom_site_hse06_10hf_ddec_spin_density
 _atom_site_hse06_10hf_ddec_sum_bond_order
 _atom_site_hse06_10hf_magmom
 _atom_site_hse06_bader_spin_density
 _atom_site_hse06_ddec_charge
 _atom_site_hse06_ddec_spin_density
 _atom_site_hse06_ddec_sum_bond_order
 _atom_site_hse06_magmom
 _atom_site_pbe_bader_spin_density
 _atom_site_pbe_cm5_charge
 _atom_site_pbe_ddec_charge
 _atom_site_pbe_ddec_spin_density
 _atom_site_pbe_ddec_sum_bond_order
 _atom_site_pbe_magmom
Cd  Cd0  1  0.17630162  0.14896847  0.27865094  1  0  1.009831  0  1.926586  0  0  0.86033  0  2.377731  0  0  0.910868  0  2.32934  0  0  0.580706  0.824502  0  2.410779  0
Cd  Cd1  1  0.82370150  0.64897840  0.72135835  1  0  1.009911  0  1.926513  0  0  0.860409  0  2.377659  0  0  0.910947  0  2.329264  0  0  0.580734  0.824574  0  2.410708  0
Cd  Cd2  1  0.32371297  0.64898025  0.77864288  1  0  1.009862  0  1.926659  0  0  0.860365  0  2.377844  0  0  0.910901  0  2.329444  0  0  0.58071  0.824541  0  2.410873  0
Cd  Cd3  1  0.67629602  0.14896146  0.22135661  1  0  1.009929  0  1.926535  0  0  0.860424  0  2.377689  0  0  0.910958  0  2.329296  0  0  0.580724  0.824602  0  2.410724  0
H  H4  1  0.47840989  0.16591929  0.97410543  1  0  0.343837  0  0.847281  0  0  0.322244  0  0.911969  0  0  0.330392  0  0.905147  0  0  0.308263  0.316357  0  0.917009  0
H  H5  1  0.52158424  0.66590390  0.02589858  1  0  0.343808  0  0.847322  0  0  0.322234  0  0.911988  0  0  0.330369  0  0.905181  0  0  0.308305  0.316348  0  0.917029  0
H  H6  1  0.02158904  0.66592618  0.47409624  1  0  0.343841  0  0.847269  0  0  0.322203  0  0.912032  0  0  0.330375  0  0.905176  0  0  0.30825  0.316322  0  0.91707  0
H  H7  1  0.97841685  0.16590476  0.52590174  1  0  0.343846  0  0.847307  0  0  0.322226  0  0.912012  0  0  0.330398  0  0.905162  0  0  0.30824  0.316341  0  0.917047  0
H  H8  1  0.34617273  0.33754906  0.93915293  1  0  0.328976  0  0.856163  0  0  0.309832  0  0.918059  0  0  0.316598  0  0.913184  0  0  0.304965  0.304981  0  0.921656  0
H  H9  1  0.65381822  0.83752746  0.06085183  1  0  0.32901  0  0.856217  0  0  0.309815  0  0.9182  0  0  0.316585  0  0.913317  0  0  0.304951  0.304951  0  0.921812  0
H  H10  1  0.15382757  0.83756915  0.43914892  1  0  0.328919  0  0.856041  0  0  0.309784  0  0.917964  0  0  0.316544  0  0.913075  0  0  0.304874  0.304956  0  0.921537  0
H  H11  1  0.84618248  0.33756030  0.56085961  1  0  0.328943  0  0.856024  0  0  0.30976  0  0.917972  0  0  0.316541  0  0.913085  0  0  0.304836  0.30489  0  0.92159  0
H  H12  1  0.27822812  0.22444631  0.04110640  1  0  0.329109  0  0.892393  0  0  0.30571  0  0.961007  0  0  0.314219  0  0.9541  0  0  0.29443  0.299624  0  0.965974  0
H  H13  1  0.72174927  0.72445416  0.95889158  1  0  0.329167  0  0.892491  0  0  0.305807  0  0.961075  0  0  0.314313  0  0.954168  0  0  0.294474  0.299726  0  0.96604  0
H  H14  1  0.22177053  0.72445499  0.54110520  1  0  0.329053  0  0.892458  0  0  0.305714  0  0.96102  0  0  0.314224  0  0.954111  0  0  0.294412  0.299634  0  0.965985  0
H  H15  1  0.77823183  0.22445710  0.45888449  1  0  0.329025  0  0.89226  0  0  0.30568  0  0.960866  0  0  0.314195  0  0.953955  0  0  0.294309  0.299593  0  0.965833  0
H  H16  1  0.95852029  0.28052509  0.89105482  1  0  0.124188  0  0.938487  0  0  0.134432  0  1.003851  0  0  0.13677  0  1.003483  0  0  0.09403  0.132738  0  1.004206  0
H  H17  1  0.04146829  0.78052096  0.10895447  1  0  0.124234  0  0.938434  0  0  0.134473  0  1.003855  0  0  0.136811  0  1.003483  0  0  0.094027  0.132782  0  1.004205  0
H  H18  1  0.54147082  0.78054086  0.39105842  1  0  0.124199  0  0.938509  0  0  0.134463  0  1.003881  0  0  0.136799  0  1.003513  0  0  0.094012  0.132767  0  1.004242  0
H  H19  1  0.45852657  0.28054779  0.60895614  1  0  0.123982  0  0.938197  0  0  0.134343  0  1.003558  0  0  0.136683  0  1.003187  0  0  0.093936  0.132618  0  1.00394  0
H  H20  1  0.89846404  0.06316692  0.87377342  1  0  0.131988  0  0.946207  0  0  0.141195  0  1.012251  0  0  0.144053  0  1.011122  0  0  0.093702  0.139116  0  1.013201  0
H  H21  1  0.10153993  0.56316361  0.12621250  1  0  0.132004  0  0.946056  0  0  0.141242  0  1.012112  0  0  0.144097  0  1.010986  0  0  0.09371  0.139159  0  1.013065  0
H  H22  1  0.60154106  0.56319516  0.37377096  1  0  0.132054  0  0.945973  0  0  0.141268  0  1.012046  0  0  0.144127  0  1.010912  0  0  0.093708  0.139189  0  1.012996  0
H  H23  1  0.39846879  0.06318057  0.62623984  1  0  0.132023  0  0.945793  0  0  0.141209  0  1.011945  0  0  0.144068  0  1.010818  0  0  0.093688  0.13913  0  1.012888  0
H  H24  1  0.24571517  0.10944983  0.82930749  1  0  0.080571  0  0.942091  0  0  0.091618  0  1.010563  0  0  0.092875  0  1.01031  0  0  0.097255  0.090602  0  1.010956  0
H  H25  1  0.75428687  0.60941960  0.17068899  1  0  0.08057  0  0.942117  0  0  0.091578  0  1.010627  0  0  0.092834  0  1.01037  0  0  0.097207  0.090561  0  1.01102  0
H  H26  1  0.25428933  0.60946916  0.32930869  1  0  0.080505  0  0.942266  0  0  0.091707  0  1.01064  0  0  0.092966  0  1.010383  0  0  0.09726  0.09069  0  1.011032  0
H  H27  1  0.74572740  0.10943513  0.67068628  1  0  0.080581  0  0.942283  0  0  0.091688  0  1.010719  0  0  0.092955  0  1.01046  0  0  0.097247  0.090673  0  1.01111  0
H  H28  1  0.22923509  0.96897487  0.93440859  1  0  0.066897  0  0.929348  0  0  0.082143  0  0.993223  0  0  0.08238  0  0.993898  0  0  0.102257  0.081847  0  0.992931  0
H  H29  1  0.77078245  0.46896844  0.06557430  1  0  0.066826  0  0.929502  0  0  0.082111  0  0.993303  0  0  0.082345  0  0.993976  0  0  0.102228  0.081815  0  0.993013  0
H  H30  1  0.27078153  0.46900368  0.43439624  1  0  0.067015  0  0.929453  0  0  0.082312  0  0.993271  0  0  0.082546  0  0.993949  0  0  0.102316  0.08202  0  0.992976  0
H  H31  1  0.72921398  0.96900159  0.56559194  1  0  0.066928  0  0.929774  0  0  0.082192  0  0.993597  0  0  0.082431  0  0.994278  0  0  0.102277  0.081898  0  0.993305  0
C  C32  1  0.91280069  0.14377207  0.02887442  1  0  0.714413  0  3.811147  0  0  0.667036  0  4.109095  0  0  0.701107  0  4.102018  0  0  0.203094  0.643856  0  4.11302  0
C  C33  1  0.08721129  0.64378727  0.97111753  1  0  0.71454  0  3.810853  0  0  0.667005  0  4.109105  0  0  0.701068  0  4.102024  0  0  0.20307  0.643824  0  4.113038  0
C  C34  1  0.58720648  0.64377273  0.52888235  1  0  0.714525  0  3.810798  0  0  0.666968  0  4.10903  0  0  0.701036  0  4.101958  0  0  0.203037  0.643788  0  4.112954  0
C  C35  1  0.41277759  0.14376596  0.47113296  1  0  0.714196  0  3.812218  0  0  0.667  0  4.109958  0  0  0.701075  0  4.102877  0  0  0.203028  0.643813  0  4.113874  0
C  C36  1  0.98677729  0.14989846  0.92091700  1  0  -0.312297  0  3.640967  0  0  -0.345004  0  3.886309  0  0  -0.352518  0  3.894191  0  0  -0.17352  -0.339746  0  3.880817  0
C  C37  1  0.01321553  0.64991007  0.07907796  1  0  -0.312414  0  3.640606  0  0  -0.345164  0  3.886092  0  0  -0.35268  0  3.893975  0  0  -0.173567  -0.339911  0  3.88061  0
C  C38  1  0.51322087  0.64991832  0.42092515  1  0  -0.312443  0  3.64062  0  0  -0.345113  0  3.8861  0  0  -0.352632  0  3.893993  0  0  -0.173547  -0.339853  0  3.88061  0
C  C39  1  0.48678811  0.14989150  0.57905776  1  0  -0.312241  0  3.640493  0  0  -0.345056  0  3.885847  0  0  -0.352578  0  3.893748  0  0  -0.173428  -0.339766  0  3.880354  0
C  C40  1  0.20242115  0.10132170  0.90853323  1  0  0.106364  0  3.546482  0  0  0.041508  0  3.8122  0  0  0.046588  0  3.822481  0  0  -0.069322  0.038108  0  3.805317  0
C  C41  1  0.79757509  0.60131834  0.09145421  1  0  0.106302  0  3.546735  0  0  0.041518  0  3.812395  0  0  0.046612  0  3.822651  0  0  -0.069244  0.038118  0  3.805511  0
C  C42  1  0.29757869  0.60134458  0.40853063  1  0  0.106267  0  3.546768  0  0  0.041189  0  3.812637  0  0  0.046269  0  3.822925  0  0  -0.06937  0.037795  0  3.805751  0
C  C43  1  0.70245722  0.10130579  0.59146735  1  0  0.106412  0  3.547414  0  0  0.041457  0  3.813183  0  0  0.04651  0  3.82352  0  0  -0.069237  0.038065  0  3.80627  0
N  N44  1  0.33654001  0.21457056  0.96862090  1  0  -0.49502  0  3.199376  0  0  -0.442969  0  3.403973  0  0  -0.457791  0  3.400867  0  0  -0.615447  -0.43283  0  3.406733  0
N  N45  1  0.66344776  0.71455925  0.03137407  1  0  -0.494988  0  3.19971  0  0  -0.442879  0  3.404014  0  0  -0.457699  0  3.400915  0  0  -0.61546  -0.432733  0  3.406793  0
N  N46  1  0.16345698  0.71458283  0.46861914  1  0  -0.494894  0  3.199319  0  0  -0.442833  0  3.40382  0  0  -0.457667  0  3.400693  0  0  -0.615317  -0.432718  0  3.406551  0
N  N47  1  0.83652785  0.21455085  0.53139467  1  0  -0.494948  0  3.199761  0  0  -0.442872  0  3.404282  0  0  -0.457731  0  3.401179  0  0  -0.615245  -0.432705  0  3.407046  0
Cl  Cl48  1  0.39672473  0.91332015  0.19918316  1  0  -0.551633  0  0.996878  0  0  -0.485453  0  1.271162  0  0  -0.505303  0  1.250509  0  0  -0.290415  -0.471245  0  1.2852  0
Cl  Cl49  1  0.60326987  0.41333223  0.80082084  1  0  -0.551655  0  0.996904  0  0  -0.485478  0  1.271223  0  0  -0.505324  0  1.250573  0  0  -0.290421  -0.471262  0  1.285235  0
Cl  Cl50  1  0.10326845  0.41332642  0.69918658  1  0  -0.551677  0  0.996836  0  0  -0.48549  0  1.271127  0  0  -0.505338  0  1.250483  0  0  -0.290439  -0.471298  0  1.285177  0
Cl  Cl51  1  0.89673056  0.91332467  0.30082044  1  0  -0.551618  0  0.996867  0  0  -0.485476  0  1.271212  0  0  -0.505326  0  1.250557  0  0  -0.290422  -0.471276  0  1.285276  0
Cl  Cl52  1  0.40749176  0.37931627  0.19154349  1  0  -0.536911  0  1.059202  0  0  -0.473205  0  1.349146  0  0  -0.493264  0  1.327845  0  0  -0.26335  -0.458877  0  1.363672  0
Cl  Cl53  1  0.59250024  0.87932398  0.80846126  1  0  -0.536934  0  1.059347  0  0  -0.473168  0  1.349224  0  0  -0.493217  0  1.327919  0  0  -0.263313  -0.458873  0  1.363795  0
Cl  Cl54  1  0.09250913  0.87932334  0.69153634  1  0  -0.536964  0  1.059284  0  0  -0.473191  0  1.349151  0  0  -0.493246  0  1.327854  0  0  -0.263333  -0.458891  0  1.363721  0
Cl  Cl55  1  0.90748287  0.37931432  0.30846012  1  0  -0.536967  0  1.059295  0  0  -0.473205  0  1.34918  0  0  -0.49327  0  1.327889  0  0  -0.263344  -0.458885  0  1.363727  0
O  O56  1  0.03437787  0.17105068  0.09919665  1  0  -0.66581  0  2.066881  0  0  -0.600978  0  2.310712  0  0  -0.630141  0  2.303829  0  0  -0.329937  -0.580486  0  2.314647  0
O  O57  1  0.96562502  0.67110194  0.90080057  1  0  -0.665863  0  2.066833  0  0  -0.600989  0  2.310801  0  0  -0.630205  0  2.304043  0  0  -0.329851  -0.580467  0  2.31467  0
O  O58  1  0.46563575  0.67108722  0.59920358  1  0  -0.665804  0  2.066811  0  0  -0.600949  0  2.310823  0  0  -0.630116  0  2.303944  0  0  -0.329828  -0.580438  0  2.314722  0
O  O59  1  0.53434364  0.17104863  0.40080571  1  0  -0.665725  0  2.067105  0  0  -0.60092  0  2.310723  0  0  -0.63008  0  2.303829  0  0  -0.3299  -0.580459  0  2.314751  0
O  O60  1  0.72871839  0.11598359  0.04524834  1  0  -0.674548  0  1.993139  0  0  -0.60851  0  2.241764  0  0  -0.636889  0  2.230287  0  0  -0.336728  -0.588608  0  2.249034  0
O  O61  1  0.27129240  0.61600517  0.95474814  1  0  -0.674448  0  1.993079  0  0  -0.608441  0  2.241876  0  0  -0.6368  0  2.230386  0  0  -0.336818  -0.588544  0  2.249153  0
O  O62  1  0.77128605  0.61597640  0.54525087  1  0  -0.674526  0  1.992999  0  0  -0.608443  0  2.241733  0  0  -0.636825  0  2.230262  0  0  -0.336761  -0.58854  0  2.249002  0
O  O63  1  0.22870417  0.11597879  0.45476746  1  0  -0.674323  0  1.993441  0  0  -0.608407  0  2.242038  0  0  -0.636791  0  2.230555  0  0  -0.336703  -0.588503  0  2.249319  0
