# generated using pymatgen
data_CoH20C10(SO3)4
_symmetry_space_group_name_H-M   'P 1'
_cell_length_a   4.91679069
_cell_length_b   7.19817641
_cell_length_c   14.16455038
_cell_angle_alpha   96.77122598
_cell_angle_beta   92.24993248
_cell_angle_gamma   99.80117485
_symmetry_Int_Tables_number   1
_chemical_formula_structural   CoH20C10(SO3)4
_chemical_formula_sum   'Co1 H20 C10 S4 O12'
_cell_volume   489.64562449
_cell_formula_units_Z   1
loop_
 _symmetry_equiv_pos_site_id
 _symmetry_equiv_pos_as_xyz
  1  'x, y, z'
loop_
 _atom_site_type_symbol
 _atom_site_label
 _atom_site_symmetry_multiplicity
 _atom_site_fract_x
 _atom_site_fract_y
 _atom_site_fract_z
 _atom_site_occupancy
 _atom_site_pbe_cm5_charge
 _atom_site_pbe_ddec_charge
 _atom_site_pbe_ddec_spin_density
 _atom_site_pbe_ddec_sum_bond_order
 _atom_site_pbe_magmom
Co  Co0  1  0.99998893  0.99998937  0.00000089  1  0.633656  1.0723  2.829191  2.164011  2.639
H  H1  1  0.21828084  0.31214143  0.30876272  1  0.301434  0.361238  5e-06  0.986356  0.0
H  H2  1  0.78171692  0.68787030  0.69123271  1  0.301436  0.36125  5e-06  0.986287  0.0
H  H3  1  0.17254280  0.72132315  0.08626266  1  0.339719  0.428718  0.00015  0.836982  0.0
H  H4  1  0.82744910  0.27866823  0.91373819  1  0.339708  0.428692  0.00015  0.837137  0.0
H  H5  1  0.44426442  0.88389704  0.08932266  1  0.297801  0.392588  0.000299  0.946969  0.001
H  H6  1  0.55574083  0.11609839  0.91067941  1  0.29779  0.392596  0.000299  0.94701  0.001
H  H7  1  0.25511535  0.25035142  0.12727841  1  0.294216  0.386474  -2.4e-05  0.951687  0.0
H  H8  1  0.74486373  0.74965191  0.87271749  1  0.294229  0.386432  -2.4e-05  0.951679  0.0
H  H9  1  0.46340352  0.26070919  0.04279215  1  0.308345  0.405997  0.000747  0.902146  0.001
H  H10  1  0.53660974  0.73928595  0.95721285  1  0.308328  0.406033  0.000747  0.90213  0.001
H  H11  1  0.21508573  0.08446857  0.43393216  1  0.091179  0.084798  1.5e-05  1.0735  0.0
H  H12  1  0.78492923  0.91552527  0.56607065  1  0.091156  0.084807  1.5e-05  1.073422  0.0
H  H13  1  0.63139147  0.84779568  0.27767862  1  0.100273  0.131829  6e-06  1.048546  0.0
H  H14  1  0.36863078  0.15220951  0.72232445  1  0.100291  0.131897  5e-06  1.048527  0.0
H  H15  1  0.45133295  0.03521270  0.26163562  1  0.106628  0.149414  -3.5e-05  1.018814  0.0
H  H16  1  0.54865696  0.96477223  0.73837601  1  0.106652  0.149515  -3.5e-05  1.018729  0.0
H  H17  1  0.75729680  0.54636462  0.47069504  1  0.105693  0.150764  -7e-06  1.005266  0.0
H  H18  1  0.24270915  0.45363347  0.52931006  1  0.105657  0.150736  -7e-06  1.005328  0.0
H  H19  1  0.58138172  0.72786720  0.44151852  1  0.09895  0.122365  2.1e-05  1.065058  0.0
H  H20  1  0.41861257  0.27212486  0.55847182  1  0.098992  0.122384  2.1e-05  1.064986  0.0
C  C21  1  0.01413530  0.00005489  0.44610821  1  -0.07777  -0.086813  7.1e-05  3.874565  0.0
C  C22  1  0.98587167  0.99993928  0.55389096  1  -0.077826  -0.08689  7.1e-05  3.874697  0.0
C  C23  1  0.65576244  0.00327007  0.28114112  1  -0.16834  -0.377766  0.00182  3.948548  0.003
C  C24  1  0.34423618  0.99673091  0.71886480  1  -0.16826  -0.377954  0.001818  3.948987  0.002
C  C25  1  0.84964707  0.05942189  0.20470194  1  0.227677  0.669599  -0.000553  4.093589  0.0
C  C26  1  0.15032128  0.94057854  0.79527521  1  0.227701  0.669714  -0.000553  4.093014  0.0
C  C27  1  0.71886486  0.63099437  0.41362672  1  -0.160171  -0.350277  3.2e-05  3.871623  0.0
C  C28  1  0.28113240  0.36900141  0.58637172  1  -0.160168  -0.350246  3.2e-05  3.871562  0.0
C  C29  1  0.56009635  0.50009083  0.33076183  1  0.217657  0.636353  0.0  4.100876  0.0
C  C30  1  0.43990466  0.49991084  0.66923359  1  0.217663  0.636238  0.0  4.100875  0.0
S  S31  1  0.73658554  0.11594131  0.40151687  1  -0.017082  -0.005812  0.001415  2.831387  0.002
S  S32  1  0.26340263  0.88406575  0.59848582  1  -0.017069  -0.005755  0.001416  2.831489  0.002
S  S33  1  0.03801624  0.77044091  0.38439600  1  0.004406  0.055027  3.1e-05  2.777203  0.0
S  S34  1  0.96199321  0.22954758  0.61560207  1  0.004408  0.055061  3.1e-05  2.777256  0.0
O  O35  1  0.75954190  0.98725470  0.11920036  1  -0.312625  -0.589207  0.025425  2.349396  0.044
O  O36  1  0.24044769  0.01275827  0.88082046  1  -0.312842  -0.589494  0.025457  2.348021  0.044
O  O37  1  0.08383651  0.16291564  0.22352495  1  -0.290216  -0.539956  8.3e-05  2.308085  0.001
O  O38  1  0.91613036  0.83713797  0.77647106  1  -0.2901  -0.539852  8e-05  2.308529  0.001
O  O39  1  0.33102622  0.40372203  0.36200994  1  -0.341768  -0.506838  1.4e-05  2.394992  0.0
O  O40  1  0.66898127  0.59627381  0.63798584  1  -0.341807  -0.506874  1.4e-05  2.394885  0.0
O  O41  1  0.62568195  0.48444734  0.24776433  1  -0.314602  -0.51148  0.000419  2.074555  0.0
O  O42  1  0.37435468  0.51552935  0.75223398  1  -0.314572  -0.51136  0.000419  2.074695  0.0
O  O43  1  0.26345103  0.82284705  0.05257579  1  -0.552068  -0.770952  0.027259  2.125155  0.042
O  O44  1  0.73654295  0.17715157  0.94742352  1  -0.552131  -0.771007  0.027262  2.125333  0.042
O  O45  1  0.26842182  0.25132661  0.05737468  1  -0.576134  -0.772155  0.028196  2.119573  0.045
O  O46  1  0.73158352  0.74866901  0.94262458  1  -0.576094  -0.772127  0.028196  2.119616  0.045
