# generated using pymatgen
data_ZnH13C23N3O4
_symmetry_space_group_name_H-M   'P 1'
_cell_length_a   10.30283626
_cell_length_b   10.64727849
_cell_length_c   11.53587025
_cell_angle_alpha   64.92111357
_cell_angle_beta   83.12534091
_cell_angle_gamma   72.94396764
_symmetry_Int_Tables_number   1
_chemical_formula_structural   ZnH13C23N3O4
_chemical_formula_sum   'Zn2 H26 C46 N6 O8'
_cell_volume   1095.72658834
_cell_formula_units_Z   2
loop_
 _symmetry_equiv_pos_site_id
 _symmetry_equiv_pos_as_xyz
  1  'x, y, z'
loop_
 _atom_site_type_symbol
 _atom_site_label
 _atom_site_symmetry_multiplicity
 _atom_site_fract_x
 _atom_site_fract_y
 _atom_site_fract_z
 _atom_site_occupancy
 _atom_site_pbe_bader_charge
 _atom_site_pbe_bader_spin_density
 _atom_site_pbe_cm5_charge
 _atom_site_pbe_ddec_charge
 _atom_site_pbe_ddec_spin_density
 _atom_site_pbe_ddec_sum_bond_order
 _atom_site_pbe_magmom
Zn  Zn0  1  0.87985506  0.75289598  0.33557478  1  1.251884  0  0.697026  0.759673  0  2.396535  0
Zn  Zn1  1  0.12014259  0.24710618  0.66442390  1  1.251941  0  0.697035  0.759661  0  2.396485  0
H  H2  1  0.58124584  0.36874787  0.81330684  1  0.089072  0  0.111735  0.119665  0  1.0229  0
H  H3  1  0.41875586  0.63125002  0.18669483  1  0.089084  0  0.111749  0.119686  0  1.022914  0
H  H4  1  0.59808830  0.57810835  0.64257043  1  0.094251  0  0.102293  0.103112  0  1.04053  0
H  H5  1  0.40191325  0.42189376  0.35742263  1  0.094226  0  0.10231  0.10316  0  1.040465  0
H  H6  1  0.01366622  0.68808007  0.92340646  1  0.092655  0  0.112406  0.122249  0  0.992494  0
H  H7  1  0.98634175  0.31192761  0.07659318  1  0.09263  0  0.112407  0.122223  0  0.992519  0
H  H8  1  0.17061584  0.61395600  0.63029583  1  0.082201  0  0.102578  0.107869  0  1.025003  0
H  H9  1  0.82938420  0.38604084  0.36970905  1  0.08223  0  0.102591  0.10788  0  1.024974  0
H  H10  1  0.18210609  0.64453600  0.81327329  1  0.050954  0  0.109161  0.118112  0  1.008427  0
H  H11  1  0.81789645  0.35546625  0.18672828  1  0.050928  0  0.109135  0.118074  0  1.00845  0
H  H12  1  0.84920951  0.76934691  0.06957997  1  0.132313  0  0.125547  0.100058  0  0.974994  0
H  H13  1  0.15079623  0.23066181  0.93041778  1  0.132234  0  0.125551  0.100062  0  0.974924  0
H  H14  1  0.74077622  0.20065145  0.92350113  1  0.142956  0  0.108875  0.130201  0  1.034157  0
H  H15  1  0.25922422  0.79934750  0.07649939  1  0.142924  0  0.108886  0.130221  0  1.034188  0
H  H16  1  0.38608240  0.78919094  0.28325648  1  0.134801  0  0.105961  0.111944  0  1.017297  0
H  H17  1  0.61391121  0.21080033  0.71674181  1  0.134885  0  0.105969  0.111975  0  1.017317  0
H  H18  1  0.90566502  0.98757317  0.06988878  1  0.095467  0  0.118344  0.084518  0  1.007823  0
H  H19  1  0.09433543  0.01242581  0.93011346  1  0.095414  0  0.118332  0.084498  0  1.007806  0
H  H20  1  0.26027297  0.37965390  0.25540225  1  0.12879  0  0.112172  0.120452  0  1.025257  0
H  H21  1  0.73972692  0.62034727  0.74460177  1  0.128801  0  0.112165  0.12045  0  1.025239  0
H  H22  1  0.09218585  0.48241778  0.38688752  1  0.148768  0  0.121826  0.103341  0  1.011982  0
H  H23  1  0.90781306  0.51758334  0.61311317  1  0.148966  0  0.12183  0.103356  0  1.011995  0
H  H24  1  0.48337345  0.18670910  0.25257522  1  0.123065  0  0.112219  0.119992  0  1.013687  0
H  H25  1  0.51662560  0.81329527  0.74742501  1  0.123191  0  0.112244  0.11999  0  1.013677  0
H  H26  1  0.65876579  0.96508855  0.38469690  1  0.117732  0  0.123394  0.095358  0  0.977457  0
H  H27  1  0.34123284  0.03491367  0.61530511  1  0.117775  0  0.123391  0.095385  0  0.977492  0
C  C28  1  0.13762448  0.75178037  0.37421558  1  1.577709  0  0.195082  0.56546  0  4.227149  0
C  C29  1  0.86237317  0.24821420  0.62578267  1  1.577356  0  0.195024  0.565369  0  4.227365  0
C  C30  1  0.63397688  0.70882867  0.38672855  1  1.536764  0  0.19152  0.551013  0  4.240791  0
C  C31  1  0.36601518  0.29117225  0.61326257  1  1.53689  0  0.19157  0.551047  0  4.240905  0
C  C32  1  0.15623338  0.52944211  0.07694436  1  -0.054744  0  0.015547  0.083047  0  3.96702  0
C  C33  1  0.84376818  0.47056010  0.92305559  1  -0.054718  0  0.015489  0.08295  0  3.967078  0
C  C34  1  0.49164286  0.40348191  0.86398814  1  0.047841  0  -0.065203  -0.17312  0  3.847041  0
C  C35  1  0.50835758  0.59651705  0.13601238  1  0.0479  0  -0.065224  -0.173202  0  3.84709  0
C  C36  1  0.26800100  0.48366076  0.99762309  1  0.503663  0  0.115323  0.190688  0  4.055128  0
C  C37  1  0.73200209  0.51633930  0.00237756  1  0.50358  0  0.11537  0.190771  0  4.054984  0
C  C38  1  0.59360416  0.21171333  0.07618106  1  0.001804  0  0.020732  0.094532  0  3.92988  0
C  C39  1  0.40639600  0.78828671  0.92381992  1  0.001954  0  0.020769  0.094592  0  3.929832  0
C  C40  1  0.48317294  0.33475330  0.99731294  1  0.488653  0  0.122711  0.206451  0  4.001743  0
C  C41  1  0.51682626  0.66524674  0.00268815  1  0.488677  0  0.122691  0.206426  0  4.001666  0
C  C42  1  0.50386375  0.61398836  0.58986820  1  0.028005  0  -0.077664  -0.130538  0  3.926429  0
C  C43  1  0.49613529  0.38600837  0.41012904  1  0.0281  0  -0.077684  -0.130638  0  3.926484  0
C  C44  1  0.03603403  0.63800173  0.02549876  1  -0.040844  0  -0.081528  -0.174706  0  3.957283  0
C  C45  1  0.96397185  0.36200269  0.97450156  1  -0.04084  0  -0.081471  -0.174654  0  3.95718  0
C  C46  1  0.26438540  0.63658844  0.58329829  1  0.014884  0  -0.075023  -0.117662  0  3.904281  0
C  C47  1  0.73561393  0.36340728  0.41670365  1  0.014743  0  -0.074993  -0.117623  0  3.904282  0
C  C48  1  0.26760673  0.55502658  0.86411825  1  0.068218  0  -0.076185  -0.204664  0  3.900762  0
C  C49  1  0.73239664  0.44497242  0.13588365  1  0.068172  0  -0.076193  -0.204662  0  3.900625  0
C  C50  1  0.94370162  0.68561080  0.10600985  1  0.443168  0  0.051131  0.095009  0  3.947391  0
C  C51  1  0.05630231  0.31439358  0.89398897  1  0.443276  0  0.051052  0.094974  0  3.94733  0
C  C52  1  0.38130201  0.51515381  0.79497164  1  -0.021177  0  0.01767  0.134179  0  3.978369  0
C  C53  1  0.61869941  0.48484515  0.20502876  1  -0.021211  0  0.017639  0.13419  0  3.978236  0
C  C54  1  0.71609859  0.15575009  0.02504589  1  -0.031037  0  -0.077743  -0.163307  0  3.899468  0
C  C55  1  0.28390283  0.84424891  0.97495711  1  -0.031264  0  -0.077823  -0.163451  0  3.899533  0
C  C56  1  0.38346793  0.58984432  0.65449178  1  -0.09629  0  -0.008935  0.052197  0  4.010716  0
C  C57  1  0.61653628  0.41015142  0.34550961  1  -0.096278  0  -0.008937  0.052224  0  4.010774  0
C  C58  1  0.38503174  0.73273470  0.38702484  1  -0.061342  0  -0.073338  -0.103361  0  3.927332  0
C  C59  1  0.61496675  0.26725660  0.61297290  1  -0.06165  0  -0.073364  -0.103497  0  3.927468  0
C  C60  1  0.80968356  0.03440172  0.10607038  1  0.451578  0  0.051052  0.097224  0  3.945037  0
C  C61  1  0.19031661  0.96559834  0.89393145  1  0.451591  0  0.051107  0.097318  0  3.944992  0
C  C62  1  0.26456290  0.70779853  0.44988448  1  -0.0005  0  -0.019766  -0.028353  0  3.97921  0
C  C63  1  0.73543587  0.29219176  0.55011797  1  -0.000106  0  -0.019763  -0.028262  0  3.979232  0
C  C64  1  0.17152766  0.46766803  0.21043834  1  -0.054747  0  -0.076277  -0.155545  0  3.915803  0
C  C65  1  0.82847251  0.53233207  0.78956609  1  -0.054728  0  -0.076248  -0.155488  0  3.915703  0
C  C66  1  0.50514170  0.68490807  0.45654258  1  -0.055004  0  -0.020163  -0.027671  0  3.992703  0
C  C67  1  0.49485791  0.31508647  0.54345287  1  -0.054887  0  -0.020202  -0.027681  0  3.992582  0
C  C68  1  0.07701915  0.52369465  0.28412349  1  0.53886  0  0.053713  0.110101  0  3.911068  0
C  C69  1  0.92298129  0.47630431  0.71587702  1  0.538748  0  0.053717  0.110067  0  3.910976  0
C  C70  1  0.57563034  0.14479467  0.20896699  1  0.049239  0  -0.075569  -0.150459  0  3.930945  0
C  C71  1  0.42437053  0.85520650  0.79103606  1  0.049502  0  -0.075577  -0.150338  0  3.930888  0
C  C72  1  0.67286726  0.02319400  0.28240211  1  0.403858  0  0.049395  0.100229  0  3.947679  0
C  C73  1  0.32713263  0.97680715  0.71760019  1  0.403508  0  0.049352  0.100079  0  3.947712  0
N  N74  1  0.37346502  0.37486389  0.06219504  1  -1.211041  0  -0.306369  -0.332503  0  3.316813  0
N  N75  1  0.62653640  0.62513508  0.93780536  1  -1.210976  0  -0.306347  -0.33252  0  3.316731  0
N  N76  1  0.78758599  0.96592971  0.23194583  1  -1.248527  0  -0.332926  -0.234617  0  3.583762  0
N  N77  1  0.21241265  0.03407252  0.76805704  1  -1.248609  0  -0.332913  -0.234598  0  3.583725  0
N  N78  1  0.96628815  0.63397473  0.23261669  1  -1.249455  0  -0.33186  -0.232926  0  3.583601  0
N  N79  1  0.03371146  0.36602748  0.76738435  1  -1.249559  0  -0.331814  -0.232876  0  3.583594  0
O  O80  1  0.73449190  0.68983398  0.45702528  1  -1.175032  0  -0.342941  -0.565464  0  2.279569  0
O  O81  1  0.26550338  0.31016588  0.54296591  1  -1.175074  0  -0.343056  -0.565554  0  2.279754  0
O  O82  1  0.13752350  0.81457335  0.25457885  1  -1.206089  0  -0.336991  -0.570006  0  2.116084  0
O  O83  1  0.86248072  0.18541482  0.74542385  1  -1.206068  0  -0.336935  -0.569985  0  2.11613  0
O  O84  1  0.03352755  0.71618496  0.44247909  1  -1.166982  0  -0.343331  -0.562362  0  2.30305  0
O  O85  1  0.96646997  0.28381397  0.55752089  1  -1.166936  0  -0.343333  -0.562318  0  2.303039  0
O  O86  1  0.64035308  0.74726415  0.26815021  1  -1.166306  0  -0.325605  -0.549396  0  2.131204  0
O  O87  1  0.35963326  0.25274756  0.73183981  1  -1.166359  0  -0.325496  -0.549297  0  2.131358  0
