# generated using pymatgen
data_Al4H27C46IO20
_symmetry_space_group_name_H-M   'P 1'
_cell_length_a   6.74973848
_cell_length_b   18.44264714
_cell_length_c   20.44543412
_cell_angle_alpha   72.32669179
_cell_angle_beta   89.93844282
_cell_angle_gamma   89.86264343
_symmetry_Int_Tables_number   1
_chemical_formula_structural   Al4H27C46IO20
_chemical_formula_sum   'Al4 H27 C46 I1 O20'
_cell_volume   2424.98125147
_cell_formula_units_Z   1
loop_
 _symmetry_equiv_pos_site_id
 _symmetry_equiv_pos_as_xyz
  1  'x, y, z'
loop_
 _atom_site_type_symbol
 _atom_site_label
 _atom_site_symmetry_multiplicity
 _atom_site_fract_x
 _atom_site_fract_y
 _atom_site_fract_z
 _atom_site_occupancy
 _atom_site_pbe_bader_charge
 _atom_site_pbe_bader_spin_density
 _atom_site_pbe_cm5_charge
 _atom_site_pbe_ddec_charge
 _atom_site_pbe_ddec_spin_density
 _atom_site_pbe_ddec_sum_bond_order
 _atom_site_pbe_magmom
Al  Al0  1  0.10116641  0.49993560  0.50042636  1  2.505187  0  0.408281  1.651036  0  2.567342  0
Al  Al1  1  0.60142292  0.50050933  0.49929169  1  2.504303  0  0.408346  1.649902  0  2.567395  0
Al  Al2  1  0.64423134  0.00034790  0.99907571  1  2.501562  0  0.407174  1.645066  0  2.575655  0
Al  Al3  1  0.14387025  0.99951637  0.00020332  1  2.502279  0  0.408076  1.647095  0  2.571448  0
H  H4  1  0.11533977  0.85093386  0.70703768  1  0.058442  0  0.100723  0.096159  0  0.989725  0
H  H5  1  0.97412744  0.67035650  0.86571567  1  0.043731  0  0.105306  0.100477  0  0.979414  0
H  H6  1  0.63222478  0.64670172  0.79547138  1  0.077896  0  0.104357  0.096274  0  0.999369  0
H  H7  1  0.54668571  0.80515063  0.75872232  1  0.075671  0  0.102241  0.096327  0  0.990846  0
H  H8  1  0.26019368  0.17183140  0.36336797  1  0.085794  0  0.106193  0.097918  0  0.983674  0
H  H9  1  0.60822756  0.14544047  0.29504024  1  0.09821  0  0.105538  0.101573  0  0.978777  0
H  H10  1  0.04483782  0.19680273  0.23899655  1  0.083483  0  0.107535  0.102676  0  0.98161  0
H  H11  1  0.13672040  0.35452925  0.20308217  1  0.093546  0  0.10913  0.11463  0  0.98097  0
H  H12  1  0.73462944  0.29096504  0.37342454  1  0.018871  0  0.088912  0.121508  0  1.007385  0
H  H13  1  0.86155775  0.21891887  0.34852055  1  0.012981  0  0.081011  0.099426  0  1.020155  0
H  H14  1  0.97693139  0.30797682  0.34006648  1  0.048042  0  0.08722  0.121163  0  1.031107  0
H  H15  1  0.85121792  0.30175970  0.22423993  1  0.028124  0  0.085662  0.073612  0  1.046044  0
H  H16  1  0.73415576  0.37470763  0.24923353  1  0.024213  0  0.097693  0.10108  0  0.963952  0
H  H17  1  0.58439687  0.92574639  0.64924631  1  0.008347  0  0.086031  0.10916  0  1.009335  0
H  H18  1  0.83701015  0.95108457  0.63413852  1  0.028189  0  0.087857  0.114148  0  1.000817  0
H  H19  1  0.67449227  0.96048955  0.56380148  1  0.038473  0  0.087811  0.113056  0  1.002472  0
H  H20  1  0.88434001  0.84333914  0.58160458  1  0.017929  0  0.094483  0.091264  0  0.96973  0
H  H21  1  0.63340224  0.81806302  0.59780367  1  0.047648  0  0.093494  0.089285  0  0.999395  0
H  H22  1  0.22982737  0.69781246  0.63125269  1  0.045699  0  0.087366  0.119191  0  1.016668  0
H  H23  1  0.35101579  0.77355358  0.65180786  1  0.018044  0  0.081238  0.100109  0  1.02908  0
H  H24  1  0.47451205  0.68522755  0.66320754  1  0.05604  0  0.086482  0.118583  0  1.036592  0
H  H25  1  0.35242351  0.69575630  0.77753355  1  0.02476  0  0.089194  0.076449  0  1.030888  0
H  H26  1  0.23338493  0.62041617  0.75666312  1  0.063784  0  0.097307  0.096331  0  0.963184  0
H  H27  1  0.35041017  0.59809990  0.49018318  1  0.622041  0  0.360659  0.441721  0  0.835441  0
H  H28  1  0.85142865  0.40146057  0.51232925  1  0.613669  0  0.360159  0.441289  0  0.836445  0
H  H29  1  0.39553232  0.90292605  0.00627026  1  0.639388  0  0.35994  0.441488  0  0.835307  0
H  H30  1  0.89434422  0.09718916  0.99307426  1  0.638461  0  0.360539  0.442449  0  0.834015  0
C  C31  1  0.35144589  0.42293521  0.42335323  1  1.66751  0  0.277596  0.723991  0  4.157877  0
C  C32  1  0.35263566  0.39565101  0.60500986  1  1.697876  0  0.278088  0.707697  0  4.170144  0
C  C33  1  0.84959208  0.57724578  0.57653160  1  1.660497  0  0.275011  0.723862  0  4.160516  0
C  C34  1  0.85226628  0.60450197  0.39459258  1  1.700648  0  0.278241  0.707011  0  4.171061  0
C  C35  1  0.85652762  0.66646955  0.33139568  1  0.120228  0  -0.003815  -0.148186  0  3.848388  0
C  C36  1  0.86711046  0.72028570  0.27891076  1  -0.272759  0  -0.005905  0.032749  0  4.2381  0
C  C37  1  0.87834870  0.77963550  0.22094604  1  -0.225681  0  -0.007313  0.028153  0  4.237022  0
C  C38  1  0.88890428  0.83354577  0.16851927  1  0.158672  0  -0.000659  -0.140445  0  3.840466  0
C  C39  1  0.81607223  0.79377683  0.68726826  1  0.015998  0  0.008289  0.098202  0  3.635231  0
C  C40  1  0.00720238  0.80519587  0.72636614  1  -0.045324  0  -0.073151  -0.150523  0  3.600979  0
C  C41  1  0.89535358  0.87743117  0.87753768  1  0.193995  0  -0.050574  -0.218972  0  3.998037  0
C  C42  1  0.84879880  0.62126501  0.62372483  1  0.19028  0  -0.046226  -0.223368  0  3.963241  0
C  C43  1  0.69133896  0.77983946  0.75486293  1  -0.03407  0  -0.070245  -0.11389  0  3.609625  0
C  C44  1  0.88228313  0.79329888  0.79425471  1  0.120034  0  0.006497  0.126077  0  3.8194  0
C  C45  1  0.73824264  0.69286219  0.77594201  1  -0.042203  0  -0.069722  -0.073327  0  3.660032  0
C  C46  1  0.86134296  0.70466695  0.70773940  1  0.092368  0  0.002676  0.036979  0  3.79032  0
C  C47  1  0.92870466  0.70489017  0.81433071  1  1.6e-05  0  -0.06667  -0.106684  0  3.609693  0
C  C48  1  0.05359421  0.71789248  0.74727929  1  0.026093  0  0.004953  0.098376  0  3.661881  0
C  C49  1  0.89163030  0.83835535  0.83902811  1  -0.475633  0  -0.023689  -0.027576  0  4.090112  0
C  C50  1  0.85182665  0.65962856  0.66295491  1  -0.48659  0  -0.016518  -0.007542  0  4.091589  0
C  C51  1  0.50247112  0.19205943  0.27549850  1  -0.076269  0  -0.067396  -0.103291  0  3.601699  0
C  C52  1  0.30973305  0.20595395  0.31243210  1  -0.040522  0  -0.066062  -0.075129  0  3.637166  0
C  C53  1  0.35085881  0.37830306  0.37646737  1  0.011193  0  -0.039866  -0.205868  0  3.955231  0
C  C54  1  0.39338737  0.12184118  0.12253628  1  0.204811  0  -0.040326  -0.197174  0  3.970869  0
C  C55  1  0.55424622  0.27888517  0.25545671  1  0.048801  0  0.002177  0.076636  0  3.651754  0
C  C56  1  0.35954357  0.29396622  0.29311740  1  0.102855  0  0.007055  0.084088  0  3.79031  0
C  C57  1  0.43218461  0.29311100  0.18761130  1  -0.147988  0  -0.029747  0.014069  0  3.536545  0
C  C58  1  0.38175593  0.20494933  0.20661398  1  0.141526  0  0.005442  0.108191  0  3.809493  0
C  C59  1  0.23966683  0.30742429  0.22390931  1  -0.012332  0  -0.070398  -0.099137  0  3.632969  0
C  C60  1  0.18967078  0.22072581  0.24436775  1  -0.027924  0  -0.066798  -0.069542  0  3.624899  0
C  C61  1  0.35147504  0.33940115  0.33775472  1  -0.291617  0  -0.019922  -0.023554  0  4.08362  0
C  C62  1  0.39075111  0.16005671  0.16174414  1  -0.472029  0  -0.029887  -0.032725  0  4.096556  0
C  C63  1  0.35695333  0.33379563  0.66828567  1  0.092951  0  -0.004958  -0.151017  0  3.848044  0
C  C64  1  0.36735228  0.28000630  0.72082946  1  -0.254926  0  -0.004889  0.035191  0  4.237809  0
C  C65  1  0.37831538  0.22060962  0.77877154  1  -0.235617  0  -0.007208  0.027972  0  4.23836  0
C  C66  1  0.38847795  0.16667279  0.83118240  1  0.176169  0  0.000223  -0.139469  0  3.841244  0
C  C67  1  0.39283963  0.10451305  0.89437533  1  1.701555  0  0.277563  0.704148  0  4.172796  0
C  C68  1  0.39374142  0.07721753  0.07572202  1  1.632075  0  0.278258  0.724159  0  4.150598  0
C  C69  1  0.89318927  0.89563525  0.10526731  1  1.697457  0  0.277209  0.703415  0  4.173516  0
C  C70  1  0.89538561  0.92240959  0.92383574  1  1.649523  0  0.276037  0.727003  0  4.15503  0
C  C71  1  0.75073775  0.31237402  0.26277611  1  0.008985  0  -0.166128  -0.158575  0  4.022357  0
C  C72  1  0.83599472  0.28060904  0.33517648  1  -0.044625  0  -0.244068  -0.340826  0  3.936832  0
C  C73  1  0.76025360  0.84322129  0.61684953  1  0.00407  0  -0.16139  -0.155915  0  4.018012  0
C  C74  1  0.71147121  0.92461575  0.61587599  1  -0.06438  0  -0.241208  -0.343802  0  3.980518  0
C  C75  1  0.24944894  0.68290232  0.74086570  1  -0.047364  0  -0.163623  -0.157115  0  4.023835  0
C  C76  1  0.33126698  0.71147529  0.66775568  1  -0.080188  0  -0.245766  -0.346692  0  3.944491  0
I  I77  1  0.52993760  0.36048608  0.08935987  1  0.048563  0  0.017533  -0.091156  0  1.213394  0
O  O78  1  0.52100742  0.41941535  0.57932988  1  -1.22842  0  -0.223892  -0.576693  0  2.286601  0
O  O79  1  0.18270625  0.43966608  0.44290943  1  -1.236548  0  -0.229955  -0.5872  0  2.279249  0
O  O80  1  0.02073921  0.58060502  0.42021708  1  -1.226743  0  -0.224256  -0.576648  0  2.287489  0
O  O81  1  0.18241510  0.41918581  0.58087181  1  -1.228104  0  -0.2254  -0.578118  0  2.279085  0
O  O82  1  0.01933169  0.55980606  0.55801849  1  -1.240657  0  -0.231377  -0.591178  0  2.277155  0
O  O83  1  0.52088754  0.44048828  0.44149585  1  -1.239505  0  -0.229649  -0.586989  0  2.27586  0
O  O84  1  0.35088209  0.54474153  0.49289124  1  -1.422224  0  -0.446465  -0.998357  0  2.184497  0
O  O85  1  0.68115846  0.56060548  0.55674369  1  -1.241023  0  -0.231534  -0.591126  0  2.280112  0
O  O86  1  0.68221308  0.58099121  0.41870101  1  -1.228898  0  -0.224236  -0.575453  0  2.278256  0
O  O87  1  0.85138898  0.45552629  0.50671302  1  -1.414065  0  -0.446159  -0.998364  0  2.186716  0
O  O88  1  0.22460700  0.05936928  0.05768061  1  -1.231479  0  -0.227564  -0.58393  0  2.281605  0
O  O89  1  0.56317928  0.08115275  0.91839798  1  -1.220322  0  -0.223474  -0.573211  0  2.278942  0
O  O90  1  0.72599485  0.94048350  0.94199609  1  -1.244503  0  -0.229462  -0.589501  0  2.283704  0
O  O91  1  0.56263491  0.06056600  0.05626155  1  -1.226558  0  -0.227501  -0.584839  0  2.284114  0
O  O92  1  0.72466792  0.91959160  0.07979885  1  -1.225732  0  -0.223352  -0.57354  0  2.284797  0
O  O93  1  0.22447579  0.08055351  0.91981524  1  -1.22533  0  -0.223261  -0.573504  0  2.284164  0
O  O94  1  0.39462705  0.95533654  0.00663485  1  -1.437741  0  -0.445819  -0.996309  0  2.181965  0
O  O95  1  0.06337249  0.91892401  0.08120515  1  -1.222872  0  -0.22418  -0.573432  0  2.278482  0
O  O96  1  0.06402165  0.93932431  0.94321202  1  -1.234353  0  -0.230962  -0.59166  0  2.283719  0
O  O97  1  0.89410310  0.04470819  0.99289769  1  -1.436434  0  -0.446183  -0.996861  0  2.181488  0
