# generated using pymatgen
data_VPH9C12N2O5
_symmetry_space_group_name_H-M   'P 1'
_cell_length_a   6.34935581
_cell_length_b   9.79871841
_cell_length_c   9.93301117
_cell_angle_alpha   102.54006339
_cell_angle_beta   90.00029122
_cell_angle_gamma   89.99924724
_symmetry_Int_Tables_number   1
_chemical_formula_structural   VPH9C12N2O5
_chemical_formula_sum   'V2 P2 H18 C24 N4 O10'
_cell_volume   603.24529674
_cell_formula_units_Z   2
loop_
 _symmetry_equiv_pos_site_id
 _symmetry_equiv_pos_as_xyz
  1  'x, y, z'
loop_
 _atom_site_type_symbol
 _atom_site_label
 _atom_site_symmetry_multiplicity
 _atom_site_fract_x
 _atom_site_fract_y
 _atom_site_fract_z
 _atom_site_occupancy
 _atom_site_pbe_cm5_charge
 _atom_site_pbe_ddec_charge
 _atom_site_pbe_ddec_spin_density
 _atom_site_pbe_ddec_sum_bond_order
 _atom_site_pbe_magmom
V  V0  1  0.75000343  0.20352473  0.06869705  1  1.431008  1.750809  0.918767  3.057823  0.876
V  V1  1  0.24999737  0.79647806  0.93130190  1  1.431016  1.750846  -0.918742  3.057771  -0.876
P  P2  1  0.25000250  0.11725989  0.09394834  1  0.428527  1.62044  0.007025  5.348679  0.008
P  P3  1  0.74999988  0.88274499  0.90605409  1  0.428532  1.620481  -0.007027  5.348621  -0.008
H  H4  1  0.25000872  0.93998862  0.18983865  1  0.311475  0.389303  0.000868  0.949783  0.0
H  H5  1  0.75000468  0.06001105  0.81015560  1  0.311471  0.389303  -0.000868  0.949774  0.0
H  H6  1  0.75000259  0.49247681  0.99184996  1  0.125749  0.097997  -0.000736  0.988495  -0.001
H  H7  1  0.25001868  0.50753016  0.00815694  1  0.125748  0.09805  0.000736  0.988451  0.001
H  H8  1  0.75001391  0.74257201  0.11486067  1  0.117659  0.130968  2.7e-05  1.018209  0.0
H  H9  1  0.25001367  0.25742868  0.88514085  1  0.117652  0.130939  -2.7e-05  1.01825  0.0
H  H10  1  0.75000332  0.80180933  0.37555076  1  0.107718  0.103364  0.000339  1.020288  0.0
H  H11  1  0.24999591  0.19819345  0.62445725  1  0.107751  0.10344  -0.000339  1.020244  0.0
H  H12  1  0.75000035  0.71533862  0.59704973  1  0.111904  0.129679  -5.5e-05  0.984284  0.0
H  H13  1  0.24999101  0.28466104  0.40294754  1  0.1119  0.129664  5.5e-05  0.984283  0.0
H  H14  1  0.74999808  0.51886110  0.71472367  1  0.113744  0.130947  -0.000249  0.967285  0.0
H  H15  1  0.24999170  0.48113961  0.28527282  1  0.113701  0.130899  0.000249  0.967349  0.0
H  H16  1  0.74998967  0.25357955  0.69766449  1  0.105477  0.125468  -0.00082  1.028363  0.0
H  H17  1  0.24998751  0.74641697  0.30233613  1  0.105481  0.125472  0.00082  1.028334  0.0
H  H18  1  0.74999622  0.01426236  0.54591932  1  0.103791  0.113736  -6.1e-05  1.029682  0.0
H  H19  1  0.24999041  0.98573520  0.45407951  1  0.103805  0.113752  6.1e-05  1.029699  0.0
H  H20  1  0.75000105  0.99023133  0.28555082  1  0.12168  0.095408  -0.00025  0.997656  0.0
H  H21  1  0.25000133  0.00976728  0.71444723  1  0.121699  0.095438  0.000251  0.997644  0.0
C  C22  1  0.74999878  0.52165550  0.10408695  1  0.062587  0.114425  0.028788  3.904126  0.02
C  C23  1  0.25001620  0.47834310  0.89592015  1  0.062635  0.114422  -0.028791  3.904246  -0.02
C  C24  1  0.75000078  0.66195761  0.17463190  1  -0.073187  -0.09777  -0.005271  3.929888  -0.006
C  C25  1  0.25000789  0.33804623  0.82537030  1  -0.073149  -0.097671  0.005271  3.929941  0.006
C  C26  1  0.75000260  0.69389443  0.31745354  1  -0.06771  -0.085958  0.035173  3.93296  0.023
C  C27  1  0.25000135  0.30610627  0.68254597  1  -0.067755  -0.086073  -0.035183  3.9329  -0.023
C  C28  1  0.75000084  0.58490597  0.38962263  1  -0.000828  0.039078  -0.005145  4.033104  -0.006
C  C29  1  0.24999208  0.41509474  0.61037486  1  -0.000879  0.038926  0.005145  4.033037  0.006
C  C30  1  0.74999490  0.60791323  0.53709219  1  -0.08008  -0.115035  0.001557  3.954135  0.001
C  C31  1  0.24999488  0.39208539  0.46290485  1  -0.080064  -0.114976  -0.001558  3.954086  -0.001
C  C32  1  0.74999469  0.49860773  0.60231161  1  -0.076773  -0.108996  -0.003876  3.958013  -0.003
C  C33  1  0.24999824  0.50138775  0.39768274  1  -0.076742  -0.108909  0.003876  3.958032  0.003
C  C34  1  0.74999266  0.35702787  0.52504111  1  -0.003033  0.036231  0.003674  4.026021  0.003
C  C35  1  0.24999869  0.64296970  0.47495671  1  -0.003045  0.036073  -0.003676  4.02614  -0.003
C  C36  1  0.74999252  0.23925228  0.58545985  1  -0.066754  -0.077439  -0.000949  3.911015  0.0
C  C37  1  0.24999411  0.76074633  0.41454022  1  -0.066791  -0.077447  0.000948  3.911043  0.0
C  C38  1  0.74999668  0.10640676  0.50103468  1  -0.089471  -0.144078  0.002925  3.974883  0.002
C  C39  1  0.24999782  0.89359185  0.49896337  1  -0.08946  -0.144077  -0.002928  3.974788  -0.002
C  C40  1  0.75000098  0.09182755  0.35705700  1  0.060132  0.125021  -0.000993  3.929951  -0.001
C  C41  1  0.25000454  0.90816897  0.64294160  1  0.060091  0.12504  0.000993  3.930059  0.001
C  C42  1  0.74999707  0.33155942  0.37895915  1  0.119202  0.12587  0.000406  4.002519  -0.001
C  C43  1  0.24999744  0.66843291  0.62104157  1  0.119224  0.125989  -0.000408  4.002492  0.001
C  C44  1  0.75000351  0.44599214  0.31056889  1  0.118385  0.126508  0.015598  3.975577  0.012
C  C45  1  0.24999729  0.55400438  0.68943072  1  0.118465  0.126782  -0.015599  3.975511  -0.012
N  N46  1  0.75000483  0.41573991  0.16983211  1  -0.378069  -0.326779  0.002799  3.557685  -0.013
N  N47  1  0.25000699  0.58425764  0.83017176  1  -0.378116  -0.326907  -0.002799  3.55753  0.013
N  N48  1  0.75000279  0.20132172  0.29818767  1  -0.347286  -0.30546  -0.000188  3.505854  0.0
N  N49  1  0.25000274  0.79867480  0.70180993  1  -0.347316  -0.305652  0.000186  3.506003  0.0
O  O50  1  0.74999552  0.22607600  0.90999816  1  -0.586609  -0.738098  -0.075602  1.652187  -0.075
O  O51  1  0.25001316  0.77392575  0.09000258  1  -0.586618  -0.738124  0.075603  1.65216  0.075
O  O52  1  0.25000533  0.04401231  0.22369299  1  -0.392399  -0.695406  0.003798  2.168669  0.004
O  O53  1  0.75000649  0.95598735  0.77630730  1  -0.39239  -0.69539  -0.003797  2.168638  -0.004
O  O54  1  0.44298178  0.21252974  0.10418177  1  -0.426614  -0.849457  0.019724  2.317793  0.005
O  O55  1  0.05701979  0.21252714  0.10418057  1  -0.426602  -0.84944  0.019727  2.317786  0.005
O  O56  1  0.55701587  0.78747410  0.89581741  1  -0.426591  -0.849471  -0.019724  2.317755  -0.005
O  O57  1  0.94297786  0.78746937  0.89582407  1  -0.426619  -0.849438  -0.019726  2.317769  -0.005
O  O58  1  0.25000240  0.00070302  0.96146741  1  -0.423633  -0.86136  -0.021555  2.327678  -0.01
O  O59  1  0.74999683  0.99929977  0.03853154  1  -0.423622  -0.861359  0.021554  2.327844  0.01
