# generated using pymatgen
data_AgH7C9N4O3
_symmetry_space_group_name_H-M   'P 1'
_cell_length_a   5.10640763
_cell_length_b   11.02568378
_cell_length_c   18.13516305
_cell_angle_alpha   89.99941301
_cell_angle_beta   93.83377869
_cell_angle_gamma   89.99996000
_symmetry_Int_Tables_number   1
_chemical_formula_structural   AgH7C9N4O3
_chemical_formula_sum   'Ag4 H28 C36 N16 O12'
_cell_volume   1018.75448620
_cell_formula_units_Z   4
loop_
 _symmetry_equiv_pos_site_id
 _symmetry_equiv_pos_as_xyz
  1  'x, y, z'
loop_
 _atom_site_type_symbol
 _atom_site_label
 _atom_site_symmetry_multiplicity
 _atom_site_fract_x
 _atom_site_fract_y
 _atom_site_fract_z
 _atom_site_occupancy
 _atom_site_hle17_bader_spin_density
 _atom_site_hle17_ddec_charge
 _atom_site_hle17_ddec_spin_density
 _atom_site_hle17_ddec_sum_bond_order
 _atom_site_hle17_magmom
 _atom_site_hse06_10hf_bader_spin_density
 _atom_site_hse06_10hf_ddec_charge
 _atom_site_hse06_10hf_ddec_spin_density
 _atom_site_hse06_10hf_ddec_sum_bond_order
 _atom_site_hse06_10hf_magmom
 _atom_site_hse06_bader_spin_density
 _atom_site_hse06_ddec_charge
 _atom_site_hse06_ddec_spin_density
 _atom_site_hse06_ddec_sum_bond_order
 _atom_site_hse06_magmom
 _atom_site_pbe_bader_spin_density
 _atom_site_pbe_cm5_charge
 _atom_site_pbe_ddec_charge
 _atom_site_pbe_ddec_spin_density
 _atom_site_pbe_ddec_sum_bond_order
 _atom_site_pbe_magmom
Ag  Ag0  1  0.98832156  0.94913433  0.77066905  1  0  0.491534  0  1.484594  0  0  0.338877  0  1.934064  0  0  0.365448  0  1.8912  0  0  0.470505  0.322297  0  1.963243  0
Ag  Ag1  1  0.48831295  0.55085964  0.27066960  1  0  0.491547  0  1.484779  0  0  0.338844  0  1.934256  0  0  0.365408  0  1.891403  0  0  0.470482  0.322267  0  1.963432  0
Ag  Ag2  1  0.01168610  0.05085367  0.22933506  1  0  0.491555  0  1.484769  0  0  0.338921  0  1.934169  0  0  0.365466  0  1.891346  0  0  0.470513  0.322337  0  1.963339  0
Ag  Ag3  1  0.51167800  0.44913198  0.72932792  1  0  0.491474  0  1.484799  0  0  0.338822  0  1.934261  0  0  0.365399  0  1.89138  0  0  0.470479  0.322242  0  1.963436  0
H  H4  1  0.37400747  0.71208492  0.76320144  1  0  0.081674  0  0.943445  0  0  0.08683  0  1.014527  0  0  0.090518  0  1.009073  0  0  0.126678  0.083856  0  1.018798  0
H  H5  1  0.87401031  0.78790275  0.26320915  1  0  0.081648  0  0.943342  0  0  0.086783  0  1.014499  0  0  0.090475  0  1.00904  0  0  0.126621  0.083805  0  1.018779  0
H  H6  1  0.62599591  0.28790126  0.23679205  1  0  0.08166  0  0.943328  0  0  0.086799  0  1.014484  0  0  0.090487  0  1.009028  0  0  0.126623  0.083824  0  1.018761  0
H  H7  1  0.12598764  0.21208706  0.73679411  1  0  0.081587  0  0.943463  0  0  0.086739  0  1.014585  0  0  0.090424  0  1.009134  0  0  0.12663  0.083767  0  1.018853  0
H  H8  1  0.13172185  0.48814934  0.58728380  1  0  0.100207  0  0.921703  0  0  0.110061  0  0.980268  0  0  0.112336  0  0.977574  0  0  0.128275  0.108162  0  0.982596  0
H  H9  1  0.63176129  0.01185175  0.08728698  1  0  0.10016  0  0.921704  0  0  0.11003  0  0.980286  0  0  0.112306  0  0.977592  0  0  0.128265  0.10813  0  0.982613  0
H  H10  1  0.86827394  0.51185136  0.41270780  1  0  0.100294  0  0.921612  0  0  0.110137  0  0.980183  0  0  0.112413  0  0.97749  0  0  0.128292  0.108236  0  0.982513  0
H  H11  1  0.36825455  0.98814441  0.91271518  1  0  0.100177  0  0.921601  0  0  0.110058  0  0.980176  0  0  0.112328  0  0.977487  0  0  0.128232  0.108157  0  0.982504  0
H  H12  1  0.76903445  0.63448099  0.54923157  1  0  0.140077  0  0.937994  0  0  0.15015  0  0.994598  0  0  0.15379  0  0.993171  0  0  0.120968  0.147419  0  0.995979  0
H  H13  1  0.26906232  0.86552419  0.04923318  1  0  0.140065  0  0.93795  0  0  0.150178  0  0.99453  0  0  0.153803  0  0.993121  0  0  0.120978  0.147445  0  0.99591  0
H  H14  1  0.23097957  0.36552968  0.45075673  1  0  0.140178  0  0.9379  0  0  0.150248  0  0.994497  0  0  0.153888  0  0.993067  0  0  0.121019  0.147517  0  0.99588  0
H  H15  1  0.73094747  0.13447741  0.95076989  1  0  0.14011  0  0.937965  0  0  0.150202  0  0.994536  0  0  0.153839  0  0.993113  0  0  0.120984  0.147472  0  0.995914  0
H  H16  1  0.45887914  0.75541954  0.53529695  1  0  0.114725  0  0.981597  0  0  0.118584  0  1.051759  0  0  0.122362  0  1.049793  0  0  0.107377  0.115736  0  1.053372  0
H  H17  1  0.95889585  0.74458877  0.03529373  1  0  0.114698  0  0.981592  0  0  0.118501  0  1.051812  0  0  0.122274  0  1.049858  0  0  0.107347  0.115653  0  1.053421  0
H  H18  1  0.54110959  0.24458388  0.46470217  1  0  0.114692  0  0.981652  0  0  0.118522  0  1.051841  0  0  0.122298  0  1.049878  0  0  0.10735  0.115675  0  1.053452  0
H  H19  1  0.04110089  0.25541646  0.96470453  1  0  0.114692  0  0.981666  0  0  0.118547  0  1.051838  0  0  0.122324  0  1.049874  0  0  0.10734  0.1157  0  1.053449  0
H  H20  1  0.13866740  0.91894780  0.51309859  1  0  0.098778  0  0.952467  0  0  0.110093  0  1.012203  0  0  0.112405  0  1.01119  0  0  0.107614  0.108414  0  1.012912  0
H  H21  1  0.63868811  0.58106884  0.01309142  1  0  0.098861  0  0.952461  0  0  0.110069  0  1.012279  0  0  0.112378  0  1.011265  0  0  0.107614  0.108396  0  1.012973  0
H  H22  1  0.86131615  0.08106287  0.48690864  1  0  0.098914  0  0.952532  0  0  0.110154  0  1.012304  0  0  0.112465  0  1.01129  0  0  0.107652  0.10848  0  1.013006  0
H  H23  1  0.36128843  0.41893820  0.98691007  1  0  0.098676  0  0.952511  0  0  0.109977  0  1.012259  0  0  0.112287  0  1.011247  0  0  0.107523  0.108305  0  1.012958  0
H  H24  1  0.19136160  0.11501331  0.58772892  1  0  0.117772  0  0.97547  0  0  0.123793  0  1.040591  0  0  0.127958  0  1.037807  0  0  0.105951  0.120539  0  1.043022  0
H  H25  1  0.69133840  0.38499688  0.08772094  1  0  0.117784  0  0.975377  0  0  0.123845  0  1.040476  0  0  0.128012  0  1.037696  0  0  0.106008  0.120589  0  1.042916  0
H  H26  1  0.80865691  0.88499282  0.41228160  1  0  0.117744  0  0.975404  0  0  0.123804  0  1.040498  0  0  0.127975  0  1.037716  0  0  0.105991  0.120547  0  1.042938  0
H  H27  1  0.30864027  0.61501016  0.91227952  1  0  0.117701  0  0.975567  0  0  0.123754  0  1.040648  0  0  0.127915  0  1.037865  0  0  0.105944  0.120499  0  1.043079  0
H  H28  1  0.57251228  0.12957314  0.68090126  1  0  0.074139  0  0.961514  0  0  0.081622  0  1.027457  0  0  0.083579  0  1.026534  0  0  0.110039  0.079951  0  1.028589  0
H  H29  1  0.07247924  0.37043614  0.18090152  1  0  0.074078  0  0.961327  0  0  0.08149  0  1.027332  0  0  0.083482  0  1.026365  0  0  0.110004  0.079819  0  1.028466  0
H  H30  1  0.42750502  0.87042846  0.31910425  1  0  0.074077  0  0.961502  0  0  0.081572  0  1.027436  0  0  0.083524  0  1.02651  0  0  0.110048  0.0799  0  1.028566  0
H  H31  1  0.92750198  0.62956818  0.81909515  1  0  0.074  0  0.961449  0  0  0.081543  0  1.027322  0  0  0.083468  0  1.026435  0  0  0.110006  0.079871  0  1.028453  0
C  C32  1  0.23632339  0.69357762  0.71571495  1  0  0.272174  0  3.723027  0  0  0.221357  0  3.986605  0  0  0.235085  0  4.000425  0  0  0.17445  0.212353  0  3.97754  0
C  C33  1  0.73632701  0.80641447  0.21571650  1  0  0.272363  0  3.723377  0  0  0.2215  0  3.987011  0  0  0.235228  0  4.000835  0  0  0.17448  0.212495  0  3.97794  0
C  C34  1  0.76367965  0.30641582  0.28428074  1  0  0.272302  0  3.7232  0  0  0.221412  0  3.986823  0  0  0.23514  0  4.000651  0  0  0.174481  0.21241  0  3.977753  0
C  C35  1  0.26366760  0.19357625  0.78428279  1  0  0.27239  0  3.722974  0  0  0.221541  0  3.986594  0  0  0.23527  0  4.00042  0  0  0.174507  0.212536  0  3.977531  0
C  C36  1  0.09924687  0.57073258  0.61831738  1  0  0.189371  0  3.631721  0  0  0.149827  0  3.889309  0  0  0.162167  0  3.902618  0  0  0.069151  0.14107  0  3.881235  0
C  C37  1  0.59926479  0.92926666  0.11832147  1  0  0.189467  0  3.631698  0  0  0.149895  0  3.889353  0  0  0.162233  0  3.902663  0  0  0.069183  0.141137  0  3.881276  0
C  C38  1  0.90076214  0.42926449  0.38167794  1  0  0.189264  0  3.631599  0  0  0.149726  0  3.889195  0  0  0.162065  0  3.902499  0  0  0.069039  0.14097  0  3.881125  0
C  C39  1  0.40073888  0.07073313  0.88168307  1  0  0.189328  0  3.631755  0  0  0.149749  0  3.889362  0  0  0.16209  0  3.902681  0  0  0.06913  0.140995  0  3.881284  0
C  C40  1  0.90051131  0.65241054  0.59766562  1  0  -0.168405  0  3.640226  0  0  -0.188091  0  3.894774  0  0  -0.198345  0  3.912572  0  0  -0.065191  -0.181702  0  3.883989  0
C  C41  1  0.40053532  0.84759202  0.09766777  1  0  -0.168334  0  3.640218  0  0  -0.188119  0  3.894775  0  0  -0.198362  0  3.912584  0  0  -0.065192  -0.181728  0  3.883983  0
C  C42  1  0.09949198  0.34758834  0.40232842  1  0  -0.168432  0  3.640282  0  0  -0.188138  0  3.894794  0  0  -0.19839  0  3.912589  0  0  -0.065166  -0.18175  0  3.884011  0
C  C43  1  0.59948069  0.15240414  0.90233329  1  0  -0.168355  0  3.640164  0  0  -0.188051  0  3.894688  0  0  -0.198307  0  3.91249  0  0  -0.065131  -0.181662  0  3.883899  0
C  C44  1  0.88014800  0.75741859  0.64043542  1  0  0.225467  0  3.714127  0  0  0.216572  0  3.952188  0  0  0.228373  0  3.969648  0  0  0.139243  0.208137  0  3.940903  0
C  C45  1  0.38015698  0.74258135  0.14043877  1  0  0.225257  0  3.714143  0  0  0.216487  0  3.951966  0  0  0.228289  0  3.96942  0  0  0.139177  0.208052  0  3.940679  0
C  C46  1  0.11985913  0.24257757  0.35955930  1  0  0.225309  0  3.714173  0  0  0.216475  0  3.95208  0  0  0.228278  0  3.969536  0  0  0.139199  0.20804  0  3.940797  0
C  C47  1  0.61984915  0.25741934  0.85956253  1  0  0.225365  0  3.713908  0  0  0.216535  0  3.951902  0  0  0.228337  0  3.969363  0  0  0.139227  0.208102  0  3.940616  0
C  C48  1  0.68093740  0.85292296  0.62342341  1  0  0.155301  0  3.750068  0  0  0.156733  0  3.982419  0  0  0.159679  0  4.004555  0  0  0.113701  0.154732  0  3.967683  0
C  C49  1  0.18093049  0.64708441  0.12342017  1  0  0.155327  0  3.750189  0  0  0.156839  0  3.98236  0  0  0.159788  0  4.00449  0  0  0.113642  0.154837  0  3.967626  0
C  C50  1  0.31907503  0.14707955  0.37657533  1  0  0.155313  0  3.749991  0  0  0.156762  0  3.982288  0  0  0.159707  0  4.00442  0  0  0.113642  0.154756  0  3.96756  0
C  C51  1  0.81906054  0.35291901  0.87657680  1  0  0.155359  0  3.75012  0  0  0.156738  0  3.982505  0  0  0.159681  0  4.004649  0  0  0.113574  0.154733  0  3.967772  0
C  C52  1  0.47879712  0.83811615  0.56812003  1  0  -0.125418  0  3.675661  0  0  -0.144607  0  3.922067  0  0  -0.150973  0  3.944816  0  0  -0.077491  -0.140146  0  3.906657  0
C  C53  1  0.97880109  0.66189156  0.06811466  1  0  -0.125469  0  3.675585  0  0  -0.144672  0  3.921979  0  0  -0.151038  0  3.944727  0  0  -0.077452  -0.140211  0  3.906567  0
C  C54  1  0.52120875  0.16188727  0.43188292  1  0  -0.125431  0  3.675522  0  0  -0.144624  0  3.921922  0  0  -0.150989  0  3.944668  0  0  -0.07746  -0.140164  0  3.906517  0
C  C55  1  0.02118797  0.33810913  0.93188225  1  0  -0.12554  0  3.675607  0  0  -0.144688  0  3.92198  0  0  -0.151057  0  3.944733  0  0  -0.077432  -0.140228  0  3.906572  0
C  C56  1  0.29735332  0.93150723  0.55553923  1  0  -0.007285  0  3.717847  0  0  -0.027656  0  3.971071  0  0  -0.025763  0  3.99136  0  0  -0.070643  -0.02881  0  3.957094  0
C  C57  1  0.79736408  0.56849786  0.05553348  1  0  -0.0073  0  3.717754  0  0  -0.027516  0  3.970959  0  0  -0.025619  0  3.991243  0  0  -0.070629  -0.028676  0  3.956989  0
C  C58  1  0.70264829  0.06849528  0.44446580  1  0  -0.007393  0  3.717948  0  0  -0.027671  0  3.971195  0  0  -0.025775  0  3.991481  0  0  -0.070657  -0.02883  0  3.957226  0
C  C59  1  0.20262694  0.43150919  0.94446349  1  0  -0.00704  0  3.717633  0  0  -0.027381  0  3.970833  0  0  -0.025485  0  3.99112  0  0  -0.070506  -0.028543  0  3.956863  0
C  C60  1  0.32516911  0.03829333  0.59628767  1  0  -0.10643  0  3.696576  0  0  -0.120884  0  3.952103  0  0  -0.126278  0  3.971599  0  0  -0.079705  -0.117338  0  3.939475  0
C  C61  1  0.82515512  0.46171499  0.09627955  1  0  -0.106373  0  3.696636  0  0  -0.120928  0  3.952138  0  0  -0.126329  0  3.971644  0  0  -0.07978  -0.117382  0  3.939518  0
C  C62  1  0.67484248  0.96171009  0.40371657  1  0  -0.106349  0  3.696379  0  0  -0.120852  0  3.951907  0  0  -0.126252  0  3.9714  0  0  -0.079774  -0.117305  0  3.939284  0
C  C63  1  0.17482832  0.53829114  0.90371553  1  0  -0.106399  0  3.696674  0  0  -0.120916  0  3.952299  0  0  -0.126306  0  3.971787  0  0  -0.079751  -0.11737  0  3.939674  0
C  C64  1  0.53576709  0.04652732  0.64923658  1  0  0.124979  0  3.714699  0  0  0.096513  0  3.967902  0  0  0.101656  0  3.986204  0  0  0.044626  0.092919  0  3.956261  0
C  C65  1  0.03574738  0.45348524  0.14923514  1  0  0.124862  0  3.71455  0  0  0.096541  0  3.967705  0  0  0.101662  0  3.985991  0  0  0.044623  0.092944  0  3.956068  0
C  C66  1  0.46424688  0.95347700  0.35076496  1  0  0.124922  0  3.714507  0  0  0.096448  0  3.967777  0  0  0.101603  0  3.986064  0  0  0.044603  0.092855  0  3.956129  0
C  C67  1  0.96423990  0.54651637  0.85076062  1  0  0.12506  0  3.714706  0  0  0.096568  0  3.967931  0  0  0.101736  0  3.986243  0  0  0.044668  0.092972  0  3.956285  0
N  N68  1  0.05248622  0.77634898  0.69928184  1  0  -0.353986  0  3.236892  0  0  -0.280752  0  3.508083  0  0  -0.300238  0  3.521287  0  0  -0.325038  -0.267685  0  3.499223  0
N  N69  1  0.55249032  0.72364327  0.19928497  1  0  -0.354048  0  3.237173  0  0  -0.280787  0  3.508239  0  0  -0.300274  0  3.521443  0  0  -0.324928  -0.267719  0  3.499376  0
N  N70  1  0.94750097  0.22364264  0.30071446  1  0  -0.354039  0  3.237085  0  0  -0.280736  0  3.508158  0  0  -0.300224  0  3.521365  0  0  -0.324937  -0.267667  0  3.499296  0
N  N71  1  0.44750012  0.27635471  0.80071585  1  0  -0.354115  0  3.236754  0  0  -0.280876  0  3.507925  0  0  -0.300363  0  3.521124  0  0  -0.325029  -0.267808  0  3.499065  0
N  N72  1  0.26585856  0.58980301  0.67812989  1  0  -0.338454  0  3.326864  0  0  -0.25473  0  3.625853  0  0  -0.275462  0  3.638741  0  0  -0.347584  -0.24117  0  3.617333  0
N  N73  1  0.76586878  0.91018526  0.17813384  1  0  -0.338593  0  3.32725  0  0  -0.254883  0  3.626325  0  0  -0.275616  0  3.639211  0  0  -0.34766  -0.241323  0  3.617804  0
N  N74  1  0.73413247  0.41018952  0.32186709  1  0  -0.338494  0  3.326871  0  0  -0.254739  0  3.625873  0  0  -0.275472  0  3.638757  0  0  -0.347558  -0.241179  0  3.617358  0
N  N75  1  0.23413479  0.08980727  0.82187125  1  0  -0.338424  0  3.326977  0  0  -0.254683  0  3.625984  0  0  -0.275417  0  3.638871  0  0  -0.347557  -0.241124  0  3.61747  0
N  N76  1  0.70596242  0.95603275  0.66367344  1  0  -0.319595  0  3.252846  0  0  -0.252711  0  3.526697  0  0  -0.267056  0  3.541113  0  0  -0.328794  -0.243365  0  3.517264  0
N  N77  1  0.20595377  0.54397570  0.16367458  1  0  -0.319413  0  3.252782  0  0  -0.25261  0  3.52657  0  0  -0.266959  0  3.541  0  0  -0.328698  -0.243266  0  3.51714  0
N  N78  1  0.29405402  0.04397248  0.33632487  1  0  -0.319472  0  3.252763  0  0  -0.252616  0  3.526632  0  0  -0.266958  0  3.541038  0  0  -0.328766  -0.24327  0  3.517195  0
N  N79  1  0.79404297  0.45602862  0.83632368  1  0  -0.319524  0  3.252975  0  0  -0.25266  0  3.52687  0  0  -0.267004  0  3.541277  0  0  -0.32873  -0.243314  0  3.517433  0
N  N80  1  0.72188838  0.82184111  0.90310869  1  0  0.682251  0  4.173224  0  0  0.713317  0  4.469433  0  0  0.739122  0  4.477653  0  0  0.090105  0.707436  0  4.445498  0
N  N81  1  0.22188789  0.67815654  0.40311321  1  0  0.682138  0  4.173581  0  0  0.713454  0  4.469458  0  0  0.739299  0  4.477667  0  0  0.090059  0.70738  0  4.445767  0
N  N82  1  0.27810956  0.17816139  0.09689457  1  0  0.682262  0  4.173275  0  0  0.713225  0  4.469597  0  0  0.739017  0  4.477832  0  0  0.090113  0.707377  0  4.445592  0
N  N83  1  0.77811414  0.32183509  0.59688907  1  0  0.682151  0  4.1735  0  0  0.713381  0  4.46951  0  0  0.739203  0  4.477724  0  0  0.090024  0.707408  0  4.445708  0
O  O84  1  0.67048712  0.82336819  0.83261848  1  0  -0.505079  0  1.811802  0  0  -0.483654  0  2.068414  0  0  -0.50148  0  2.057733  0  0  -0.219471  -0.474348  0  2.070366  0
O  O85  1  0.17052441  0.67663255  0.33262087  1  0  -0.505032  0  1.812081  0  0  -0.483592  0  2.068495  0  0  -0.50143  0  2.057812  0  0  -0.219378  -0.474229  0  2.070541  0
O  O86  1  0.32949701  0.17663523  0.16738490  1  0  -0.505179  0  1.811929  0  0  -0.483678  0  2.068578  0  0  -0.501501  0  2.057907  0  0  -0.219498  -0.474376  0  2.070504  0
O  O87  1  0.82949365  0.32336814  0.66737970  1  0  -0.505165  0  1.81203  0  0  -0.483727  0  2.068525  0  0  -0.501562  0  2.057846  0  0  -0.219464  -0.4744  0  2.070545  0
O  O88  1  0.92064122  0.87752727  0.93105296  1  0  -0.472188  0  1.718331  0  0  -0.46212  0  1.932193  0  0  -0.47541  0  1.925203  0  0  -0.201037  -0.456294  0  1.931874  0
O  O89  1  0.42060053  0.62245096  0.43106593  1  0  -0.472282  0  1.718453  0  0  -0.462269  0  1.932153  0  0  -0.475584  0  1.925182  0  0  -0.201064  -0.456373  0  1.931898  0
O  O90  1  0.07937283  0.12246798  0.06894804  1  0  -0.472188  0  1.718365  0  0  -0.462061  0  1.932256  0  0  -0.475329  0  1.925237  0  0  -0.201012  -0.45626  0  1.931934  0
O  O91  1  0.57937117  0.37752071  0.56894149  1  0  -0.472136  0  1.718355  0  0  -0.462104  0  1.9321  0  0  -0.475409  0  1.92513  0  0  -0.200967  -0.456253  0  1.93183  0
O  O92  1  0.56988337  0.76525100  0.94309135  1  0  -0.471538  0  1.766083  0  0  -0.459079  0  1.982246  0  0  -0.47341  0  1.977867  0  0  -0.193717  -0.45211  0  1.979648  0
O  O93  1  0.06988532  0.73475940  0.44308956  1  0  -0.471444  0  1.76622  0  0  -0.459132  0  1.982349  0  0  -0.473485  0  1.977976  0  0  -0.193706  -0.452095  0  1.979826  0
O  O94  1  0.43012388  0.23475967  0.05691551  1  0  -0.471472  0  1.765917  0  0  -0.459081  0  1.982251  0  0  -0.473417  0  1.97788  0  0  -0.193741  -0.452117  0  1.979632  0
O  O95  1  0.93012498  0.26524311  0.55691021  1  0  -0.471438  0  1.766154  0  0  -0.459072  0  1.982289  0  0  -0.473414  0  1.977913  0  0  -0.193703  -0.452067  0  1.979732  0
