# generated using pymatgen
data_GdH22C18NO7
_symmetry_space_group_name_H-M   'P 1'
_cell_length_a   8.56519843
_cell_length_b   10.38242481
_cell_length_c   11.89821941
_cell_angle_alpha   66.43247288
_cell_angle_beta   75.04873065
_cell_angle_gamma   86.06981576
_symmetry_Int_Tables_number   1
_chemical_formula_structural   GdH22C18NO7
_chemical_formula_sum   'Gd2 H44 C36 N2 O14'
_cell_volume   936.27544610
_cell_formula_units_Z   2
loop_
 _symmetry_equiv_pos_site_id
 _symmetry_equiv_pos_as_xyz
  1  'x, y, z'
loop_
 _atom_site_type_symbol
 _atom_site_label
 _atom_site_symmetry_multiplicity
 _atom_site_fract_x
 _atom_site_fract_y
 _atom_site_fract_z
 _atom_site_occupancy
 _atom_site_hle17_bader_spin_density
 _atom_site_hle17_ddec_charge
 _atom_site_hle17_ddec_spin_density
 _atom_site_hle17_ddec_sum_bond_order
 _atom_site_hle17_magmom
 _atom_site_hse06_10hf_bader_spin_density
 _atom_site_hse06_10hf_ddec_charge
 _atom_site_hse06_10hf_ddec_spin_density
 _atom_site_hse06_10hf_ddec_sum_bond_order
 _atom_site_hse06_10hf_magmom
 _atom_site_hse06_bader_spin_density
 _atom_site_hse06_ddec_charge
 _atom_site_hse06_ddec_spin_density
 _atom_site_hse06_ddec_sum_bond_order
 _atom_site_hse06_magmom
 _atom_site_pbe_bader_spin_density
 _atom_site_pbe_cm5_charge
 _atom_site_pbe_ddec_charge
 _atom_site_pbe_ddec_spin_density
 _atom_site_pbe_ddec_sum_bond_order
 _atom_site_pbe_magmom
Gd  Gd0  1  0.70527841  0.58286308  0.35820894  1  0  2.091791  0  1.802779  0  0  1.977198  0  2.187358  0  0  2.037818  0  2.127012  0  0  1.45188  1.931468  0  2.234324  0
Gd  Gd1  1  0.29472179  0.41713726  0.64179221  1  0  2.09177  0  1.802798  0  0  1.977167  0  2.187385  0  0  2.037791  0  2.127027  0  0  1.451871  1.931426  0  2.234368  0
H  H2  1  0.05159972  0.89458342  0.42201998  1  0  0.11801  0  0.957932  0  0  0.129689  0  1.016202  0  0  0.133362  0  1.015494  0  0  0.103817  0.127126  0  1.016891  0
H  H3  1  0.94840169  0.10541694  0.57797757  1  0  0.117997  0  0.957954  0  0  0.129674  0  1.016225  0  0  0.133348  0  1.015517  0  0  0.103811  0.127111  0  1.01692  0
H  H4  1  0.86094518  0.07332037  0.23001431  1  0  0.073955  0  0.946246  0  0  0.08762  0  1.005897  0  0  0.089672  0  1.004674  0  0  0.103446  0.08602  0  1.006956  0
H  H5  1  0.13905502  0.92667998  0.76998431  1  0  0.073933  0  0.946301  0  0  0.087604  0  1.005943  0  0  0.089656  0  1.004721  0  0  0.103436  0.086008  0  1.007  0
H  H6  1  0.09923209  0.15696577  0.35079057  1  0  0.105435  0  0.953696  0  0  0.127012  0  1.014908  0  0  0.127974  0  1.016169  0  0  0.090468  0.126317  0  1.014006  0
H  H7  1  0.90076937  0.84303564  0.64920661  1  0  0.105463  0  0.953711  0  0  0.127038  0  1.014921  0  0  0.127998  0  1.016187  0  0  0.090488  0.126343  0  1.014019  0
H  H8  1  0.92728279  0.25330188  0.30779061  1  0  0.130648  0  0.943347  0  0  0.150256  0  1.005225  0  0  0.152104  0  1.004822  0  0  0.101801  0.148781  0  1.005824  0
H  H9  1  0.07271742  0.74669848  0.69220801  1  0  0.130661  0  0.943324  0  0  0.150272  0  1.005203  0  0  0.152121  0  1.004795  0  0  0.101805  0.148798  0  1.005798  0
H  H10  1  0.09415365  0.24427975  0.18900229  1  0  0.113415  0  0.937712  0  0  0.136775  0  0.995164  0  0  0.137765  0  0.995927  0  0  0.096299  0.135797  0  0.99485  0
H  H11  1  0.90584655  0.75572061  0.81099549  1  0  0.113368  0  0.937702  0  0  0.136713  0  0.995182  0  0  0.137702  0  0.995945  0  0  0.096265  0.135736  0  0.994865  0
H  H12  1  0.50225394  0.84237360  0.98516635  1  0  0.113535  0  0.952569  0  0  0.125323  0  1.009409  0  0  0.12839  0  1.009821  0  0  0.101409  0.123237  0  1.009084  0
H  H13  1  0.49774621  0.15762569  0.01483517  1  0  0.113501  0  0.952572  0  0  0.125301  0  1.009413  0  0  0.128374  0  1.009809  0  0  0.101414  0.123218  0  1.009085  0
H  H14  1  0.23799524  0.84205735  0.21611395  1  0  0.067265  0  0.958189  0  0  0.081666  0  1.018472  0  0  0.083231  0  1.018027  0  0  0.099857  0.08048  0  1.018927  0
H  H15  1  0.76200245  0.15794090  0.78388671  1  0  0.067278  0  0.958189  0  0  0.081681  0  1.018471  0  0  0.083246  0  1.018026  0  0  0.099862  0.080493  0  1.018931  0
H  H16  1  0.18101631  0.05942045  0.02777227  1  0  0.118452  0  0.939738  0  0  0.140911  0  0.999467  0  0  0.142291  0  0.99914  0  0  0.097414  0.139894  0  0.999735  0
H  H17  1  0.81898384  0.94057883  0.97223009  1  0  0.118533  0  0.93972  0  0  0.140978  0  0.999444  0  0  0.142354  0  0.999121  0  0  0.097425  0.139958  0  0.999716  0
H  H18  1  0.07551196  0.90614897  0.05378720  1  0  0.113612  0  0.951217  0  0  0.135968  0  1.011857  0  0  0.136519  0  1.013375  0  0  0.096673  0.13554  0  1.010808  0
H  H19  1  0.92448824  0.09385137  0.94621310  1  0  0.113616  0  0.951226  0  0  0.135974  0  1.011859  0  0  0.136526  0  1.013375  0  0  0.096669  0.135547  0  1.010809  0
H  H20  1  0.25508782  0.96919074  0.92735942  1  0  0.116096  0  0.944343  0  0  0.138599  0  1.002212  0  0  0.140419  0  1.001508  0  0  0.093547  0.137246  0  1.0028  0
H  H21  1  0.74491243  0.03081065  0.07264051  1  0  0.11611  0  0.944326  0  0  0.1386  0  1.002209  0  0  0.140421  0  1.001501  0  0  0.093548  0.137245  0  1.002796  0
H  H22  1  0.36605920  0.15336094  0.48726628  1  0  0.120053  0  0.970518  0  0  0.129801  0  1.030585  0  0  0.132606  0  1.031665  0  0  0.105805  0.127753  0  1.029991  0
H  H23  1  0.63394105  0.84664045  0.51273281  1  0  0.120054  0  0.970496  0  0  0.129801  0  1.030552  0  0  0.132607  0  1.03163  0  0  0.1058  0.127743  0  1.029993  0
H  H24  1  0.59847294  0.20278830  0.22798101  1  0  0.069817  0  0.950389  0  0  0.082534  0  1.012858  0  0  0.084557  0  1.011571  0  0  0.101709  0.080996  0  1.013929  0
H  H25  1  0.40152606  0.79721205  0.77201952  1  0  0.06983  0  0.950357  0  0  0.082541  0  1.012827  0  0  0.084565  0  1.011538  0  0  0.101716  0.081002  0  1.013898  0
H  H26  1  0.33803930  0.96673091  0.41179287  1  0  0.107116  0  0.944214  0  0  0.129518  0  1.002739  0  0  0.130818  0  1.003047  0  0  0.091602  0.128558  0  1.002588  0
H  H27  1  0.66196091  0.03326944  0.58820575  1  0  0.107102  0  0.944231  0  0  0.129505  0  1.002759  0  0  0.130805  0  1.003067  0  0  0.091592  0.128548  0  1.002604  0
H  H28  1  0.52154970  0.94193846  0.31115437  1  0  0.136665  0  0.949158  0  0  0.155349  0  1.012195  0  0  0.157465  0  1.011469  0  0  0.102977  0.153589  0  1.013235  0
H  H29  1  0.47844935  0.05806294  0.68884495  1  0  0.136639  0  0.94917  0  0  0.155323  0  1.012209  0  0  0.15744  0  1.011483  0  0  0.102961  0.153565  0  1.013246  0
H  H30  1  0.37035793  0.04170321  0.24339514  1  0  0.1077  0  0.94404  0  0  0.131351  0  1.003807  0  0  0.132087  0  1.004534  0  0  0.094748  0.130667  0  1.003468  0
H  H31  1  0.62964112  0.95829818  0.75660418  1  0  0.107715  0  0.944029  0  0  0.131357  0  1.003812  0  0  0.132094  0  1.004537  0  0  0.094756  0.130671  0  1.003477  0
H  H32  1  0.08503931  0.48033264  0.36771014  1  0  0.08449  0  0.971282  0  0  0.093712  0  1.034165  0  0  0.096569  0  1.031394  0  0  0.124566  0.091626  0  1.03623  0
H  H33  1  0.91496084  0.51966665  0.63229053  1  0  0.084493  0  0.971275  0  0  0.093715  0  1.034159  0  0  0.096571  0  1.031389  0  0  0.124573  0.091628  0  1.036218  0
H  H34  1  0.34600628  0.44130073  0.24382616  1  0  0.103457  0  0.980381  0  0  0.114812  0  1.039776  0  0  0.117128  0  1.040326  0  0  0.109314  0.113143  0  1.039581  0
H  H35  1  0.65399271  0.55869962  0.75617437  1  0  0.103465  0  0.98038  0  0  0.114815  0  1.039779  0  0  0.117134  0  1.040324  0  0  0.109309  0.11315  0  1.039582  0
H  H36  1  0.16319553  0.62924645  0.90982569  1  0  0.115478  0  0.957011  0  0  0.124889  0  1.01915  0  0  0.128334  0  1.0182  0  0  0.109896  0.122484  0  1.019864  0
H  H37  1  0.83680467  0.37075390  0.09017377  1  0  0.115486  0  0.95703  0  0  0.1249  0  1.019164  0  0  0.128346  0  1.018213  0  0  0.109905  0.122496  0  1.019875  0
H  H38  1  0.90274549  0.66117723  0.05046920  1  0  0.089597  0  0.970816  0  0  0.097188  0  1.035855  0  0  0.100828  0  1.031874  0  0  0.120283  0.094511  0  1.038772  0
H  H39  1  0.09725471  0.33882311  0.94953111  1  0  0.089595  0  0.970817  0  0  0.097183  0  1.03586  0  0  0.100823  0  1.031881  0  0  0.120282  0.094509  0  1.038778  0
H  H40  1  0.42346427  0.53308044  0.88727551  1  0  0.104434  0  0.978848  0  0  0.113086  0  1.043836  0  0  0.116192  0  1.042617  0  0  0.106073  0.110829  0  1.044829  0
H  H41  1  0.57653593  0.46691991  0.11272396  1  0  0.104441  0  0.978851  0  0  0.113093  0  1.043831  0  0  0.116199  0  1.042612  0  0  0.106075  0.110834  0  1.04482  0
H  H42  1  0.70690481  0.33786515  0.59375546  1  0  0.444524  0  0.855121  0  0  0.413104  0  0.920115  0  0  0.42494  0  0.902787  0  0  0.29906  0.404745  0  0.932341  0
H  H43  1  0.29309535  0.66213414  0.40624521  1  0  0.444534  0  0.85511  0  0  0.413109  0  0.920113  0  0  0.424944  0  0.902787  0  0  0.29905  0.40475  0  0.93234  0
H  H44  1  0.90032541  0.35940974  0.53518024  1  0  0.433654  0  0.867191  0  0  0.404285  0  0.929034  0  0  0.415515  0  0.912591  0  0  0.293386  0.396308  0  0.940695  0
H  H45  1  0.09967479  0.64059060  0.46482007  1  0  0.433671  0  0.867171  0  0  0.404295  0  0.92902  0  0  0.415526  0  0.912576  0  0  0.293384  0.396322  0  0.940674  0
C  C46  1  0.88509306  0.80359174  0.35824572  1  0  0.677219  0  3.943433  0  0  0.632881  0  4.241584  0  0  0.667973  0  4.233539  0  0  0.189771  0.609067  0  4.246224  0
C  C47  1  0.11490835  0.19640860  0.64175352  1  0  0.677239  0  3.943481  0  0  0.632901  0  4.241628  0  0  0.667993  0  4.233584  0  0  0.18977  0.609088  0  4.246266  0
C  C48  1  0.96903659  0.92178679  0.36036017  1  0  -0.294682  0  3.706037  0  0  -0.30897  0  3.959182  0  0  -0.322813  0  3.976274  0  0  -0.113757  -0.300033  0  3.947914  0
C  C49  1  0.03096366  0.07821462  0.63963724  1  0  -0.294677  0  3.706094  0  0  -0.308964  0  3.959235  0  0  -0.322805  0  3.976326  0  0  -0.11375  -0.300027  0  3.947975  0
C  C50  1  0.94479984  0.05612824  0.28983221  1  0  0.102004  0  3.673832  0  0  0.089615  0  3.926897  0  0  0.096609  0  3.944055  0  0  -0.059057  0.084937  0  3.915325  0
C  C51  1  0.05520036  0.94387211  0.71016557  1  0  0.102004  0  3.673966  0  0  0.089611  0  3.927026  0  0  0.096604  0  3.944185  0  0  -0.059051  0.084927  0  3.91546  0
C  C52  1  0.02096568  0.18281266  0.28548318  1  0  -0.32083  0  3.747349  0  0  -0.394364  0  3.98395  0  0  -0.398057  0  3.994061  0  0  -0.238586  -0.391503  0  3.97716  0
C  C53  1  0.97903458  0.81718875  0.71451422  1  0  -0.320807  0  3.747388  0  0  -0.394324  0  3.983984  0  0  -0.398016  0  3.994097  0  0  -0.23858  -0.391467  0  3.977194  0
C  C54  1  0.52879090  0.73569851  0.17776140  1  0  0.695289  0  3.909764  0  0  0.651612  0  4.200895  0  0  0.68709  0  4.192489  0  0  0.194868  0.627637  0  4.205971  0
C  C55  1  0.47121056  0.26430287  0.82223999  1  0  0.69529  0  3.909744  0  0  0.651631  0  4.200858  0  0  0.687108  0  4.192454  0  0  0.194895  0.627663  0  4.205929  0
C  C56  1  0.44024791  0.82007831  0.08373580  1  0  -0.279848  0  3.71623  0  0  -0.293662  0  3.969993  0  0  -0.307762  0  3.989516  0  0  -0.111532  -0.284307  0  3.956602  0
C  C57  1  0.55975220  0.17991992  0.91626609  1  0  -0.279772  0  3.716136  0  0  -0.293603  0  3.969888  0  0  -0.307702  0  3.989414  0  0  -0.111535  -0.284256  0  3.956497  0
C  C58  1  0.29294700  0.86788622  0.11546543  1  0  0.090532  0  3.693187  0  0  0.075269  0  3.952173  0  0  0.081364  0  3.970649  0  0  -0.065537  0.071419  0  3.939366  0
C  C59  1  0.70705316  0.13211308  0.88453440  1  0  0.090527  0  3.693143  0  0  0.075262  0  3.952127  0  0  0.081357  0  3.9706  0  0  -0.06552  0.071418  0  3.939317  0
C  C60  1  0.19742507  0.95415538  0.02562488  1  0  -0.317393  0  3.750609  0  0  -0.393648  0  3.992193  0  0  -0.396948  0  4.002673  0  0  -0.2396  -0.391118  0  3.984823  0
C  C61  1  0.80257509  0.04584392  0.97437496  1  0  -0.317518  0  3.750648  0  0  -0.393754  0  3.992238  0  0  -0.39705  0  4.002719  0  0  -0.239631  -0.391223  0  3.984866  0
C  C62  1  0.53730904  0.33426829  0.38456000  1  0  0.719289  0  3.887258  0  0  0.678299  0  4.174963  0  0  0.714754  0  4.164062  0  0  0.208047  0.653188  0  4.182018  0
C  C63  1  0.46269112  0.66573100  0.61544068  1  0  0.719237  0  3.887389  0  0  0.678271  0  4.17506  0  0  0.714725  0  4.164161  0  0  0.208046  0.653154  0  4.18212  0
C  C64  1  0.46149543  0.20273077  0.40097600  1  0  -0.285264  0  3.686311  0  0  -0.299111  0  3.935836  0  0  -0.313047  0  3.953951  0  0  -0.106844  -0.289672  0  3.923663  0
C  C65  1  0.53850240  0.79727063  0.59902438  1  0  -0.285215  0  3.686317  0  0  -0.299065  0  3.93584  0  0  -0.313001  0  3.953955  0  0  -0.106808  -0.289624  0  3.923659  0
C  C66  1  0.50290380  0.14741247  0.31320211  1  0  0.095575  0  3.677516  0  0  0.082753  0  3.933488  0  0  0.089317  0  3.9507  0  0  -0.059875  0.078334  0  3.921707  0
C  C67  1  0.49709519  0.85258788  0.68679842  1  0  0.09558  0  3.677611  0  0  0.082759  0  3.93358  0  0  0.089322  0  3.950793  0  0  -0.05987  0.078343  0  3.921793  0
C  C68  1  0.42850327  0.01778725  0.32167039  1  0  -0.318979  0  3.742089  0  0  -0.394712  0  3.983512  0  0  -0.397881  0  3.992624  0  0  -0.239496  -0.392237  0  3.977538  0
C  C69  1  0.57149573  0.98221310  0.67832930  1  0  -0.318992  0  3.742178  0  0  -0.394721  0  3.983596  0  0  -0.39789  0  3.992707  0  0  -0.239512  -0.392249  0  3.977618  0
C  C70  1  0.10522041  0.51315916  0.26596189  1  0  0.13521  0  3.720128  0  0  0.106992  0  3.976417  0  0  0.114072  0  3.994275  0  0  0.04802  0.102422  0  3.964252  0
C  C71  1  0.89477974  0.48684013  0.73403879  1  0  0.135141  0  3.720235  0  0  0.106924  0  3.97652  0  0  0.114002  0  3.99438  0  0  0.047966  0.102362  0  3.964344  0
C  C72  1  0.25283247  0.49186495  0.19559880  1  0  -0.156115  0  3.689509  0  0  -0.170155  0  3.928072  0  0  -0.178609  0  3.950156  0  0  -0.079596  -0.164664  0  3.913285  0
C  C73  1  0.74716769  0.50813434  0.80440188  1  0  -0.15613  0  3.689517  0  0  -0.170156  0  3.928079  0  0  -0.178609  0  3.950165  0  0  -0.079575  -0.16467  0  3.913295  0
C  C74  1  0.27896598  0.53409645  0.06410553  1  0  0.13856  0  3.81384  0  0  0.15331  0  4.041639  0  0  0.159329  0  4.06365  0  0  0.009215  0.149581  0  4.026348  0
C  C75  1  0.72103544  0.46590389  0.93589455  1  0  0.13858  0  3.813914  0  0  0.153294  0  4.04175  0  0  0.159313  0  4.063764  0  0  0.009181  0.149561  0  4.026464  0
C  C76  1  0.14985231  0.59639415  0.01119998  1  0  -0.174265  0  3.691927  0  0  -0.188799  0  3.935277  0  0  -0.198092  0  3.957004  0  0  -0.081033  -0.182574  0  3.920364  0
C  C77  1  0.85014668  0.40360619  0.98880055  1  0  -0.174316  0  3.69199  0  0  -0.188844  0  3.935349  0  0  -0.198137  0  3.957076  0  0  -0.081052  -0.182616  0  3.920433  0
C  C78  1  0.00531332  0.61386791  0.08857844  1  0  0.133271  0  3.7272  0  0  0.10496  0  3.984211  0  0  0.11254  0  4.001566  0  0  0.048198  0.100154  0  3.972201  0
C  C79  1  0.99468688  0.38613243  0.91142186  1  0  0.133271  0  3.727181  0  0  0.104959  0  3.984193  0  0  0.112538  0  4.001549  0  0  0.048206  0.10015  0  3.972187  0
C  C80  1  0.42986010  0.51667927  0.98249710  1  0  -0.098741  0  3.704361  0  0  -0.118793  0  3.954305  0  0  -0.121922  0  3.973628  0  0  -0.079267  -0.116394  0  3.940598  0
C  C81  1  0.57014005  0.48332002  0.01750358  1  0  -0.098737  0  3.704384  0  0  -0.118755  0  3.954319  0  0  -0.121883  0  3.973642  0  0  -0.079236  -0.116352  0  3.940606  0
N  N82  1  0.98108979  0.57290521  0.21481206  1  0  -0.41646  0  3.22171  0  0  -0.364482  0  3.489835  0  0  -0.381934  0  3.509093  0  0  -0.389908  -0.352319  0  3.476858  0
N  N83  1  0.01891041  0.42709513  0.78518825  1  0  -0.416357  0  3.221765  0  0  -0.364376  0  3.48988  0  0  -0.381828  0  3.509139  0  0  -0.389857  -0.352215  0  3.47691  0
O  O84  1  0.91602068  0.67601828  0.42442889  1  0  -0.713936  0  2.006837  0  0  -0.657946  0  2.240042  0  0  -0.685396  0  2.23016  0  0  -0.358552  -0.638567  0  2.246459  0
O  O85  1  0.08397952  0.32398207  0.57557057  1  0  -0.713924  0  2.006882  0  0  -0.657935  0  2.240094  0  0  -0.685386  0  2.230211  0  0  -0.358541  -0.638557  0  2.246516  0
O  O86  1  0.78069195  0.82573920  0.29343903  1  0  -0.690785  0  1.986145  0  0  -0.650071  0  2.230545  0  0  -0.676076  0  2.222728  0  0  -0.383426  -0.6315  0  2.235484  0
O  O87  1  0.21930700  0.17426009  0.70656103  1  0  -0.690787  0  1.986119  0  0  -0.650075  0  2.230526  0  0  -0.676079  0  2.222709  0  0  -0.38343  -0.631503  0  2.235464  0
O  O88  1  0.67083995  0.69734995  0.14107983  1  0  -0.683921  0  1.982487  0  0  -0.641667  0  2.224502  0  0  -0.667507  0  2.215276  0  0  -0.369512  -0.623135  0  2.230054  0
O  O89  1  0.32915904  0.30265039  0.85892154  1  0  -0.683954  0  1.982485  0  0  -0.641696  0  2.224486  0  0  -0.667534  0  2.215255  0  0  -0.369522  -0.623167  0  2.230041  0
O  O90  1  0.46635898  0.69969036  0.29763276  1  0  -0.725914  0  2.062187  0  0  -0.666376  0  2.295255  0  0  -0.694954  0  2.286864  0  0  -0.377281  -0.646277  0  2.301158  0
O  O91  1  0.53364117  0.30030892  0.70236876  1  0  -0.725904  0  2.062262  0  0  -0.666378  0  2.295325  0  0  -0.694958  0  2.286937  0  0  -0.377288  -0.646278  0  2.301227  0
O  O92  1  0.66366588  0.39061827  0.29661438  1  0  -0.685704  0  1.978601  0  0  -0.644574  0  2.219787  0  0  -0.670364  0  2.211073  0  0  -0.366523  -0.62641  0  2.225685  0
O  O93  1  0.33633543  0.60937997  0.70338561  1  0  -0.685701  0  1.978748  0  0  -0.644566  0  2.219894  0  0  -0.670356  0  2.211181  0  0  -0.366546  -0.626397  0  2.225794  0
O  O94  1  0.47156170  0.39550323  0.46019135  1  0  -0.788823  0  2.089741  0  0  -0.736284  0  2.34348  0  0  -0.765277  0  2.332545  0  0  -0.429574  -0.715245  0  2.351008  0
O  O95  1  0.52843856  0.60449817  0.53980858  1  0  -0.788832  0  2.089812  0  0  -0.736295  0  2.34352  0  0  -0.76529  0  2.33259  0  0  -0.429567  -0.715255  0  2.351055  0
O  O96  1  0.79396024  0.37814434  0.51320894  1  0  -0.914485  0  1.837673  0  0  -0.872726  0  2.031007  0  0  -0.893006  0  1.997214  0  0  -0.645198  -0.857898  0  2.054702  0
O  O97  1  0.20603992  0.62185495  0.48679173  1  0  -0.914504  0  1.837648  0  0  -0.872736  0  2.030997  0  0  -0.893016  0  1.997205  0  0  -0.645181  -0.857908  0  2.05469  0
