# generated using pymatgen
data_ZnH20C16(N2Cl)2
_symmetry_space_group_name_H-M   'P 1'
_cell_length_a   5.76985218
_cell_length_b   11.24579626
_cell_length_c   14.34209315
_cell_angle_alpha   107.09400051
_cell_angle_beta   89.99017802
_cell_angle_gamma   104.83757863
_symmetry_Int_Tables_number   1
_chemical_formula_structural   ZnH20C16(N2Cl)2
_chemical_formula_sum   'Zn2 H40 C32 N8 Cl4'
_cell_volume   856.99376930
_cell_formula_units_Z   2
loop_
 _symmetry_equiv_pos_site_id
 _symmetry_equiv_pos_as_xyz
  1  'x, y, z'
loop_
 _atom_site_type_symbol
 _atom_site_label
 _atom_site_symmetry_multiplicity
 _atom_site_fract_x
 _atom_site_fract_y
 _atom_site_fract_z
 _atom_site_occupancy
 _atom_site_hle17_bader_spin_density
 _atom_site_hle17_ddec_charge
 _atom_site_hle17_ddec_spin_density
 _atom_site_hle17_ddec_sum_bond_order
 _atom_site_hle17_magmom
 _atom_site_hse06_10hf_bader_spin_density
 _atom_site_hse06_10hf_ddec_charge
 _atom_site_hse06_10hf_ddec_spin_density
 _atom_site_hse06_10hf_ddec_sum_bond_order
 _atom_site_hse06_10hf_magmom
 _atom_site_hse06_bader_spin_density
 _atom_site_hse06_ddec_charge
 _atom_site_hse06_ddec_spin_density
 _atom_site_hse06_ddec_sum_bond_order
 _atom_site_hse06_magmom
 _atom_site_pbe_bader_spin_density
 _atom_site_pbe_cm5_charge
 _atom_site_pbe_ddec_charge
 _atom_site_pbe_ddec_spin_density
 _atom_site_pbe_ddec_sum_bond_order
 _atom_site_pbe_magmom
Zn  Zn0  1  0.09219964  0.99986611  0.74996279  1  0  0.828615  0  2.140334  0  0  0.648697  0  2.633045  0  0  0.688416  0  2.588436  0  0  0.554532  0.621432  0  2.663302  0
Zn  Zn1  1  0.90781397  0.00013144  0.25003104  1  0  0.828646  0  2.140328  0  0  0.648774  0  2.633045  0  0  0.688478  0  2.588438  0  0  0.554554  0.621507  0  2.663288  0
H  H2  1  0.33686424  0.79639794  0.64911361  1  0  0.079264  0  0.944729  0  0  0.083465  0  1.018616  0  0  0.086842  0  1.014267  0  0  0.111393  0.080912  0  1.021878  0
H  H3  1  0.46014423  0.79693722  0.14935286  1  0  0.079607  0  0.945866  0  0  0.083875  0  1.019753  0  0  0.087271  0  1.015398  0  0  0.111655  0.081319  0  1.023016  0
H  H4  1  0.66316817  0.20360255  0.35088366  1  0  0.079232  0  0.944853  0  0  0.083368  0  1.018793  0  0  0.086763  0  1.01442  0  0  0.111386  0.080817  0  1.022055  0
H  H5  1  0.53985986  0.20305170  0.85064185  1  0  0.079536  0  0.945511  0  0  0.083796  0  1.019465  0  0  0.08717  0  1.015134  0  0  0.111615  0.081242  0  1.022727  0
H  H6  1  0.58190113  0.66769979  0.69684357  1  0  0.103581  0  0.968389  0  0  0.113832  0  1.032684  0  0  0.116827  0  1.031928  0  0  0.103145  0.111648  0  1.033438  0
H  H7  1  0.08688326  0.66800758  0.19703118  1  0  0.103145  0  0.968624  0  0  0.113371  0  1.032911  0  0  0.116436  0  1.032085  0  0  0.103273  0.111138  0  1.033716  0
H  H8  1  0.41810225  0.33229119  0.30315788  1  0  0.103536  0  0.96847  0  0  0.113818  0  1.032737  0  0  0.116814  0  1.031984  0  0  0.103129  0.111633  0  1.033493  0
H  H9  1  0.91312029  0.33198718  0.80296762  1  0  0.103202  0  0.968897  0  0  0.113472  0  1.033105  0  0  0.116544  0  1.032276  0  0  0.103313  0.111238  0  1.033907  0
H  H10  1  0.72095694  0.58960759  0.81993457  1  0  0.04708  0  0.920554  0  0  0.061427  0  0.98885  0  0  0.063198  0  0.987085  0  0  0.089192  0.06013  0  0.990138  0
H  H11  1  0.86998917  0.58975355  0.31992249  1  0  0.047472  0  0.920663  0  0  0.06138  0  0.989453  0  0  0.063254  0  0.987635  0  0  0.088901  0.060021  0  0.990767  0
H  H12  1  0.27901914  0.41037381  0.18006895  1  0  0.047018  0  0.920495  0  0  0.061481  0  0.988773  0  0  0.063246  0  0.987013  0  0  0.089203  0.060186  0  0.990055  0
H  H13  1  0.13002303  0.41025854  0.68007733  1  0  0.04762  0  0.920628  0  0  0.061543  0  0.989389  0  0  0.06342  0  0.987564  0  0  0.088987  0.060195  0  0.990689  0
H  H14  1  0.85061315  0.73236523  0.91793312  1  0  0.084618  0  0.938722  0  0  0.100976  0  1.000914  0  0  0.10125  0  1.001807  0  0  0.106277  0.100712  0  1.000393  0
H  H15  1  0.88228433  0.73250216  0.41784911  1  0  0.083939  0  0.937038  0  0  0.099975  0  0.999791  0  0  0.100291  0  1.000684  0  0  0.105804  0.099692  0  0.999257  0
H  H16  1  0.14937222  0.26762090  0.08206656  1  0  0.084557  0  0.938823  0  0  0.100992  0  1.001057  0  0  0.101268  0  1.001949  0  0  0.106234  0.100723  0  1.000531  0
H  H17  1  0.11772200  0.26750511  0.58215035  1  0  0.083999  0  0.937025  0  0  0.100029  0  0.999799  0  0  0.100341  0  1.000697  0  0  0.10581  0.099747  0  0.999266  0
H  H18  1  0.40531430  0.41972352  0.85715254  1  0  0.038361  0  0.938516  0  0  0.052751  0  1.012089  0  0  0.053519  0  1.01165  0  0  0.085533  0.052097  0  1.012541  0
H  H19  1  0.01486841  0.41990106  0.35712663  1  0  0.03795  0  0.940171  0  0  0.052234  0  1.013673  0  0  0.05298  0  1.01327  0  0  0.08542  0.051556  0  1.014146  0
H  H20  1  0.59465938  0.58027045  0.14285445  1  0  0.038354  0  0.938575  0  0  0.052716  0  1.012141  0  0  0.053484  0  1.011704  0  0  0.085526  0.052056  0  1.012594  0
H  H21  1  0.98513790  0.58010617  0.64287073  1  0  0.037947  0  0.940134  0  0  0.052211  0  1.013631  0  0  0.052976  0  1.013204  0  0  0.085392  0.051531  0  1.014101  0
H  H22  1  0.22611435  0.53190732  0.88651507  1  0  0.053593  0  0.941369  0  0  0.071251  0  1.006248  0  0  0.071525  0  1.006425  0  0  0.096777  0.070969  0  1.006254  0
H  H23  1  0.30635015  0.53177746  0.38672352  1  0  0.054958  0  0.940184  0  0  0.072584  0  1.004892  0  0  0.072853  0  1.005055  0  0  0.097504  0.072325  0  1.004889  0
H  H24  1  0.77386203  0.46808858  0.11349234  1  0  0.053621  0  0.941418  0  0  0.071224  0  1.006296  0  0  0.071506  0  1.006463  0  0  0.096727  0.070941  0  1.006307  0
H  H25  1  0.69365568  0.46822880  0.61327292  1  0  0.05493  0  0.940171  0  0  0.072531  0  1.00487  0  0  0.072798  0  1.005033  0  0  0.097467  0.072272  0  1.004866  0
H  H26  1  0.90239836  0.64504047  0.03609532  1  0  0.067184  0  0.958388  0  0  0.082949  0  1.024709  0  0  0.083682  0  1.024262  0  0  0.093719  0.082285  0  1.025199  0
H  H27  1  0.74306538  0.64542058  0.53613641  1  0  0.067805  0  0.958016  0  0  0.08421  0  1.023757  0  0  0.084875  0  1.023476  0  0  0.094348  0.083621  0  1.02415  0
H  H28  1  0.09758149  0.35495543  0.96391209  1  0  0.067183  0  0.958353  0  0  0.082963  0  1.024665  0  0  0.083713  0  1.024208  0  0  0.093739  0.082299  0  1.025157  0
H  H29  1  0.25693920  0.35458666  0.46386094  1  0  0.06773  0  0.958113  0  0  0.084163  0  1.023821  0  0  0.084824  0  1.02354  0  0  0.094345  0.083579  0  1.024211  0
H  H30  1  0.81386200  0.48711643  0.94837504  1  0  0.037242  0  0.938887  0  0  0.054526  0  1.009331  0  0  0.054864  0  1.009219  0  0  0.087228  0.054207  0  1.009534  0
H  H31  1  0.67368424  0.48756807  0.44828386  1  0  0.037283  0  0.93929  0  0  0.054509  0  1.010087  0  0  0.054916  0  1.009938  0  0  0.08735  0.054156  0  1.010285  0
H  H32  1  0.18611787  0.51287949  0.05163377  1  0  0.037168  0  0.938917  0  0  0.054498  0  1.009343  0  0  0.054824  0  1.009248  0  0  0.087201  0.054179  0  1.009548  0
H  H33  1  0.32632062  0.51243627  0.55171286  1  0  0.037314  0  0.939207  0  0  0.054518  0  1.010058  0  0  0.054928  0  1.009903  0  0  0.087343  0.054167  0  1.010257  0
H  H34  1  0.42331566  0.82083444  0.99529379  1  0  0.113041  0  0.959784  0  0  0.117718  0  1.030732  0  0  0.121391  0  1.028865  0  0  0.102985  0.115086  0  1.032245  0
H  H35  1  0.39826151  0.82094485  0.49543806  1  0  0.112367  0  0.959667  0  0  0.117056  0  1.030893  0  0  0.120633  0  1.029133  0  0  0.102595  0.114485  0  1.032331  0
H  H36  1  0.57666565  0.17915743  0.00470437  1  0  0.113009  0  0.959879  0  0  0.117691  0  1.030812  0  0  0.121363  0  1.028942  0  0  0.102965  0.115058  0  1.032327  0
H  H37  1  0.60174556  0.17907778  0.50455989  1  0  0.112306  0  0.959524  0  0  0.117015  0  1.030712  0  0  0.120603  0  1.028924  0  0  0.102617  0.114432  0  1.032184  0
H  H38  1  0.19232502  0.94852662  0.93659478  1  0  0.077858  0  0.981135  0  0  0.081076  0  1.054751  0  0  0.083728  0  1.052536  0  0  0.099767  0.079039  0  1.056489  0
H  H39  1  0.75646550  0.94880905  0.43677511  1  0  0.078516  0  0.981585  0  0  0.081995  0  1.054996  0  0  0.0846  0  1.052839  0  0  0.100224  0.080008  0  1.056682  0
H  H40  1  0.80768803  0.05147676  0.06340173  1  0  0.077813  0  0.981306  0  0  0.081039  0  1.054897  0  0  0.083695  0  1.05268  0  0  0.099744  0.078994  0  1.05664  0
H  H41  1  0.24355814  0.05121552  0.56322397  1  0  0.078645  0  0.981717  0  0  0.081983  0  1.055265  0  0  0.084587  0  1.05311  0  0  0.100196  0.079996  0  1.056952  0
C  C42  1  0.36242496  0.80016956  0.72528708  1  0  0.144943  0  3.715537  0  0  0.110889  0  3.971082  0  0  0.119701  0  3.987219  0  0  0.04681  0.105216  0  3.960227  0
C  C43  1  0.43843497  0.80062876  0.22549846  1  0  0.142879  0  3.716936  0  0  0.108651  0  3.972716  0  0  0.117442  0  3.988854  0  0  0.045432  0.102967  0  3.961869  0
C  C44  1  0.63759372  0.19982426  0.27471290  1  0  0.145113  0  3.71524  0  0  0.111111  0  3.970818  0  0  0.119911  0  3.986938  0  0  0.046858  0.105438  0  3.959962  0
C  C45  1  0.56155519  0.19936002  0.77448926  1  0  0.143208  0  3.71744  0  0  0.108868  0  3.973249  0  0  0.117675  0  3.989401  0  0  0.045475  0.103186  0  3.962398  0
C  C46  1  0.49675858  0.72750997  0.75258424  1  0  -0.179221  0  3.727642  0  0  -0.197936  0  3.976785  0  0  -0.206781  0  3.997724  0  0  -0.088423  -0.192332  0  3.962964  0
C  C47  1  0.23171853  0.72781706  0.25275763  1  0  -0.178584  0  3.729006  0  0  -0.197891  0  3.977824  0  0  -0.206769  0  3.998817  0  0  -0.088731  -0.192272  0  3.963993  0
C  C48  1  0.50323434  0.27248087  0.24741021  1  0  -0.179243  0  3.727812  0  0  -0.198  0  3.976975  0  0  -0.20685  0  3.997929  0  0  -0.088474  -0.192398  0  3.963159  0
C  C49  1  0.76829708  0.27219146  0.74725605  1  0  -0.178684  0  3.728129  0  0  -0.198011  0  3.976944  0  0  -0.206894  0  3.997927  0  0  -0.088682  -0.192385  0  3.963111  0
C  C50  1  0.52444732  0.73390348  0.85079700  1  0  0.141172  0  3.71251  0  0  0.155296  0  3.947507  0  0  0.161008  0  3.969047  0  0  0.016395  0.151644  0  3.932848  0
C  C51  1  0.21029896  0.73408646  0.35093845  1  0  0.139175  0  3.713147  0  0  0.155033  0  3.945955  0  0  0.160676  0  3.967706  0  0  0.015628  0.151408  0  3.931177  0
C  C52  1  0.47554518  0.26608652  0.14920354  1  0  0.140993  0  3.712903  0  0  0.155201  0  3.947972  0  0  0.160904  0  3.969518  0  0  0.016331  0.15155  0  3.933311  0
C  C53  1  0.78969072  0.26591869  0.64905078  1  0  0.139233  0  3.712716  0  0  0.15508  0  3.945559  0  0  0.160721  0  3.967305  0  0  0.015552  0.151451  0  3.93078  0
C  C54  1  0.67842605  0.66218672  0.88439146  1  0  -0.050922  0  3.708629  0  0  -0.107119  0  3.957609  0  0  -0.104581  0  3.968437  0  0  -0.061666  -0.108678  0  3.94985  0
C  C55  1  0.98460718  0.66235210  0.38444876  1  0  -0.049197  0  3.70644  0  0  -0.105414  0  3.955219  0  0  -0.102983  0  3.966134  0  0  -0.060461  -0.106882  0  3.94736  0
C  C56  1  0.32155147  0.33779757  0.11561200  1  0  -0.050636  0  3.708424  0  0  -0.107195  0  3.957782  0  0  -0.10465  0  3.968607  0  0  -0.061574  -0.108735  0  3.949994  0
C  C57  1  0.01540313  0.33765621  0.61555441  1  0  -0.049467  0  3.706471  0  0  -0.105703  0  3.955257  0  0  -0.103288  0  3.966216  0  0  -0.060532  -0.107175  0  3.9474  0
C  C58  1  0.35962686  0.49637629  0.91738812  1  0  -0.016598  0  3.700254  0  0  -0.074335  0  3.96448  0  0  -0.070983  0  3.975962  0  0  -0.071779  -0.076445  0  3.956351  0
C  C59  1  0.13707532  0.49633377  0.41745869  1  0  -0.020053  0  3.701699  0  0  -0.077147  0  3.965802  0  0  -0.073722  0  3.97721  0  0  -0.073577  -0.079282  0  3.957701  0
C  C60  1  0.64034934  0.50361576  0.08261915  1  0  -0.01665  0  3.700376  0  0  -0.074264  0  3.964396  0  0  -0.070908  0  3.975853  0  0  -0.071756  -0.076375  0  3.956282  0
C  C61  1  0.86293542  0.50367538  0.58253839  1  0  -0.020032  0  3.701736  0  0  -0.077  0  3.965591  0  0  -0.073604  0  3.977042  0  0  -0.073509  -0.079134  0  3.957482  0
C  C62  1  0.74843638  0.56102867  0.00373448  1  0  -0.025938  0  3.699675  0  0  -0.084336  0  3.963525  0  0  -0.080861  0  3.975076  0  0  -0.074167  -0.086539  0  3.95541  0
C  C63  1  0.81285481  0.56130553  0.50373132  1  0  -0.024549  0  3.697944  0  0  -0.084248  0  3.96384  0  0  -0.080825  0  3.975404  0  0  -0.074472  -0.086455  0  3.955729  0
C  C64  1  0.25154426  0.43896534  0.99627461  1  0  -0.025904  0  3.699569  0  0  -0.084354  0  3.963545  0  0  -0.0809  0  3.97513  0  0  -0.074224  -0.086552  0  3.955423  0
C  C65  1  0.18714707  0.43869977  0.49626561  1  0  -0.024424  0  3.697693  0  0  -0.084152  0  3.963753  0  0  -0.080726  0  3.975318  0  0  -0.074445  -0.086367  0  3.95565  0
C  C66  1  0.41042782  0.81362438  0.91806647  1  0  -0.149784  0  3.688406  0  0  -0.169887  0  3.938826  0  0  -0.178198  0  3.959929  0  0  -0.082607  -0.164679  0  3.924834  0
C  C67  1  0.40383481  0.81382780  0.41823966  1  0  -0.147624  0  3.687831  0  0  -0.168278  0  3.937929  0  0  -0.176525  0  3.959146  0  0  -0.082075  -0.163122  0  3.923903  0
C  C68  1  0.58956105  0.18637224  0.08192855  1  0  -0.149703  0  3.688202  0  0  -0.169767  0  3.938534  0  0  -0.178085  0  3.959664  0  0  -0.082549  -0.164561  0  3.924544  0
C  C69  1  0.59618178  0.18619308  0.58176697  1  0  -0.147637  0  3.688077  0  0  -0.16829  0  3.938156  0  0  -0.176527  0  3.959367  0  0  -0.08207  -0.163131  0  3.924117  0
C  C70  1  0.28109905  0.88440392  0.88603532  1  0  0.12684  0  3.703785  0  0  0.097647  0  3.949098  0  0  0.104741  0  3.967842  0  0  0.040025  0.093152  0  3.936443  0
C  C71  1  0.60373316  0.88469815  0.38621806  1  0  0.125068  0  3.704353  0  0  0.095491  0  3.950009  0  0  0.102645  0  3.968656  0  0  0.039409  0.090932  0  3.937379  0
C  C72  1  0.71891442  0.11558988  0.11396326  1  0  0.126928  0  3.70372  0  0  0.097701  0  3.949071  0  0  0.10479  0  3.967808  0  0  0.040073  0.093215  0  3.936419  0
C  C73  1  0.39626241  0.11531186  0.61377363  1  0  0.125152  0  3.703599  0  0  0.09564  0  3.949174  0  0  0.102802  0  3.967804  0  0  0.039455  0.091077  0  3.936552  0
N  N74  1  0.25707787  0.87804345  0.79085259  1  0  -0.326439  0  3.320156  0  0  -0.23932  0  3.587175  0  0  -0.2592  0  3.603711  0  0  -0.336967  -0.226026  0  3.575766  0
N  N75  1  0.62146609  0.87853719  0.29108202  1  0  -0.324483  0  3.319773  0  0  -0.237198  0  3.586606  0  0  -0.257065  0  3.603136  0  0  -0.335898  -0.223908  0  3.5752  0
N  N76  1  0.74294017  0.12195603  0.20914167  1  0  -0.326586  0  3.320253  0  0  -0.23944  0  3.587287  0  0  -0.259314  0  3.603821  0  0  -0.337018  -0.226146  0  3.575873  0
N  N77  1  0.37854779  0.12147131  0.70893095  1  0  -0.324792  0  3.319938  0  0  -0.237335  0  3.586599  0  0  -0.257204  0  3.603121  0  0  -0.335922  -0.224045  0  3.5752  0
N  N78  1  0.57221242  0.60407737  0.95813410  1  0  -0.227322  0  3.233904  0  0  -0.149522  0  3.493185  0  0  -0.16445  0  3.512997  0  0  -0.343251  -0.138826  0  3.478872  0
N  N79  1  0.03239180  0.60422373  0.45823260  1  0  -0.227419  0  3.233035  0  0  -0.149342  0  3.492236  0  0  -0.164213  0  3.51211  0  0  -0.342573  -0.138705  0  3.477932  0
N  N80  1  0.42776550  0.39591467  0.04187246  1  0  -0.227326  0  3.233922  0  0  -0.149463  0  3.493289  0  0  -0.164394  0  3.513116  0  0  -0.343246  -0.138766  0  3.478972  0
N  N81  1  0.96761233  0.39578261  0.54176805  1  0  -0.22749  0  3.233019  0  0  -0.149409  0  3.492146  0  0  -0.164283  0  3.51201  0  0  -0.342632  -0.138773  0  3.477853  0
Cl  Cl82  1  0.85402142  0.90066114  0.61163206  1  0  -0.552824  0  0.968053  0  0  -0.485652  0  1.253829  0  0  -0.501389  0  1.2323  0  0  -0.297268  -0.474217  0  1.268541  0
Cl  Cl83  1  0.04603177  0.90049671  0.11155475  1  0  -0.55263  0  0.967264  0  0  -0.485327  0  1.252853  0  0  -0.501091  0  1.231339  0  0  -0.297378  -0.473883  0  1.267524  0
Cl  Cl84  1  0.14598874  0.09933644  0.38836317  1  0  -0.552763  0  0.968007  0  0  -0.48563  0  1.253799  0  0  -0.501361  0  1.232267  0  0  -0.297251  -0.474198  0  1.268514  0
Cl  Cl85  1  0.95396731  0.09949606  0.88844012  1  0  -0.552629  0  0.967183  0  0  -0.485321  0  1.252742  0  0  -0.501088  0  1.231233  0  0  -0.297381  -0.473876  0  1.267421  0
