# generated using pymatgen
data_CoH22C31N11O5
_symmetry_space_group_name_H-M   'P 1'
_cell_length_a   12.55006709
_cell_length_b   15.30962798
_cell_length_c   21.54592560
_cell_angle_alpha   101.13036066
_cell_angle_beta   90.00738329
_cell_angle_gamma   114.17616445
_symmetry_Int_Tables_number   1
_chemical_formula_structural   CoH22C31N11O5
_chemical_formula_sum   'Co4 H88 C124 N44 O20'
_cell_volume   3691.10386280
_cell_formula_units_Z   4
loop_
 _symmetry_equiv_pos_site_id
 _symmetry_equiv_pos_as_xyz
  1  'x, y, z'
loop_
 _atom_site_type_symbol
 _atom_site_label
 _atom_site_symmetry_multiplicity
 _atom_site_fract_x
 _atom_site_fract_y
 _atom_site_fract_z
 _atom_site_occupancy
 _atom_site_pbe_bader_charge
 _atom_site_pbe_bader_spin_density
 _atom_site_pbe_cm5_charge
 _atom_site_pbe_ddec_charge
 _atom_site_pbe_ddec_spin_density
 _atom_site_pbe_ddec_sum_bond_order
 _atom_site_pbe_magmom
Co  Co0  1  0.10429328  0.55785372  0.65979853  1  1.231305  2.559551  0.64314  0.74161  2.809446  2.5655  2.54
Co  Co1  1  0.54636140  0.44222110  0.84019809  1  1.234749  2.559353  0.642941  0.740404  2.808333  2.566908  2.54
Co  Co2  1  0.89571086  0.44214892  0.34019966  1  1.23138  2.559554  0.643109  0.741614  2.809459  2.565471  2.54
Co  Co3  1  0.45363625  0.55777493  0.15980008  1  1.234783  2.559351  0.642946  0.740411  2.808333  2.56684  2.54
H  H4  1  0.38427022  0.57852581  0.64064802  1  0.155469  0.000182  0.134708  0.102973  -0.000191  1.003053  0.0
H  H5  1  0.25729328  0.76575939  0.75190016  1  0.166784  0.000299  0.146154  0.121664  -0.000264  0.980444  0.0
H  H6  1  0.25452068  0.33951498  0.82237702  1  0.171485  0.000299  0.15331  0.129933  -0.000113  0.966478  0.0
H  H7  1  0.47883405  0.27562107  0.93218544  1  0.124004  0.000214  0.132534  0.10184  -0.000116  0.99409  0.0
H  H8  1  0.48901507  0.39217149  0.22199533  1  0.168569  0.000183  0.134038  0.0981  -0.000193  1.022351  0.0
H  H9  1  0.58112361  0.45737313  0.04296841  1  0.214189  0.000763  0.135048  0.111501  0.000192  1.058294  0.0
H  H10  1  0.38603056  0.92778897  0.79365131  1  0.076789  -8e-05  0.108286  0.112696  -6.9e-05  0.992225  0.0
H  H11  1  0.51870007  0.07448604  0.87059720  1  0.079194  -5.4e-05  0.104335  0.114121  -5.5e-05  1.003921  0.0
H  H12  1  0.77849486  0.95655346  0.86347189  1  0.074341  6e-06  0.109203  0.121707  3e-06  0.987099  0.0
H  H13  1  0.64304725  0.80795279  0.78725343  1  0.128892  4.6e-05  0.115556  0.123657  3.2e-05  0.996404  0.0
H  H14  1  0.05708229  0.18882490  0.79449123  1  0.075285  0.0  0.111776  0.119124  -1.7e-05  0.985275  0.0
H  H15  1  0.84318556  0.13290209  0.80542638  1  0.08753  6e-06  0.103405  0.109558  -2e-06  1.040452  0.0
H  H16  1  0.90494204  0.16534891  0.00679497  1  0.063873  2.8e-05  0.113011  0.126183  6e-06  0.97533  0.0
H  H17  1  0.12060366  0.22372091  0.99614902  1  0.139734  8.7e-05  0.115814  0.128866  6.4e-05  0.993077  0.0
H  H18  1  0.80809546  0.30428243  0.92791408  1  0.094527  -2.4e-05  0.104679  0.112112  -2.2e-05  1.033508  0.0
H  H19  1  0.74181599  0.40937176  0.00671528  1  0.09063  3.3e-05  0.108468  0.117894  -3.1e-05  1.027475  0.0
H  H20  1  0.51993324  0.15670238  0.07792248  1  0.128294  1.9e-05  0.105425  0.1139  8e-06  1.034932  0.0
H  H21  1  0.58812884  0.05161421  0.99920553  1  0.043606  2.3e-05  0.104657  0.113033  1.1e-05  1.014763  0.0
H  H22  1  0.99713667  0.65435770  0.86850828  1  0.101033  0.00065  0.104057  0.111925  0.000395  0.992547  0.0
H  H23  1  0.95716391  0.62717378  0.97643376  1  0.076434  6e-05  0.095037  0.094697  3.6e-05  1.069453  0.0
H  H24  1  0.06538927  0.38916445  0.93774576  1  0.082706  9e-06  0.096502  0.100095  -2.1e-05  1.052635  0.0
H  H25  1  0.10417794  0.41841606  0.82977438  1  0.076575  0.000746  0.098861  0.100933  0.000448  1.017406  0.0
H  H26  1  0.80568605  0.42129890  0.85920748  1  0.152103  0.00018  0.134506  0.102692  -0.00019  1.002554  0.0
H  H27  1  0.49123069  0.23434348  0.74820545  1  0.177521  0.00031  0.145679  0.12145  -0.000266  0.980877  0.0
H  H28  1  0.91497308  0.66038210  0.67751598  1  0.168198  0.000297  0.152932  0.12915  -0.000114  0.96668  0.0
H  H29  1  0.20285636  0.72420036  0.56756976  1  0.161645  0.000219  0.132125  0.101003  -0.000116  0.99454  0.0
H  H30  1  0.09622534  0.60757536  0.27807254  1  0.167051  0.000186  0.134096  0.098746  -0.000192  1.02221  0.0
H  H31  1  0.12383446  0.54268534  0.45713135  1  0.236479  0.000768  0.135185  0.111795  0.000192  1.057101  0.0
H  H32  1  0.45786891  0.07235204  0.70617616  1  0.054979  -8.3e-05  0.108505  0.112761  -6.9e-05  0.992045  0.0
H  H33  1  0.44378018  0.92537382  0.62940316  1  0.056708  -5.4e-05  0.104456  0.114532  -5.5e-05  1.003204  0.0
H  H34  1  0.82143235  0.04316806  0.63636871  1  0.081079  6e-06  0.109241  0.122299  3e-06  0.986992  0.0
H  H35  1  0.83463773  0.19182961  0.71261260  1  0.100255  4.8e-05  0.115509  0.123711  3.2e-05  0.996836  0.0
H  H36  1  0.86834809  0.81135091  0.70546043  1  0.078617  0.0  0.111619  0.118977  -1.7e-05  0.985088  0.0
H  H37  1  0.71034750  0.86728975  0.69456889  1  0.102872  6e-06  0.103258  0.109395  -2e-06  1.041088  0.0
H  H38  1  0.73905969  0.83448810  0.49317805  1  0.109018  2.7e-05  0.113032  0.125913  6e-06  0.975569  0.0
H  H39  1  0.89646448  0.77614404  0.50373535  1  0.130176  8.9e-05  0.115934  0.128799  6.5e-05  0.993789  0.0
H  H40  1  0.50361246  0.69562539  0.57204488  1  0.092175  -2.5e-05  0.10518  0.112159  -2.2e-05  1.03363  0.0
H  H41  1  0.33236000  0.59055595  0.49317420  1  0.141778  3.2e-05  0.108292  0.117742  -3.1e-05  1.027874  0.0
H  H42  1  0.36321719  0.84322797  0.42187463  1  0.110717  2e-05  0.106089  0.1152  8e-06  1.035316  0.0
H  H43  1  0.53637971  0.94827851  0.50067444  1  0.049783  2.3e-05  0.104567  0.11343  1.1e-05  1.014504  0.0
H  H44  1  0.34250518  0.34617544  0.63164077  1  0.102745  0.000646  0.104158  0.112539  0.000395  0.992119  0.0
H  H45  1  0.32993898  0.37316845  0.52364443  1  0.090687  5.8e-05  0.09527  0.095143  3.5e-05  1.069743  0.0
H  H46  1  0.67620695  0.61069871  0.56222849  1  0.076208  7e-06  0.096009  0.099271  -2.2e-05  1.053681  0.0
H  H47  1  0.68578864  0.58160830  0.67024306  1  0.07582  0.000742  0.098817  0.100572  0.000449  1.017791  0.0
H  H48  1  0.61572804  0.42147462  0.35935032  1  0.155505  0.000182  0.134719  0.102981  -0.000191  1.003081  0.0
H  H49  1  0.74270661  0.23423953  0.24810029  1  0.166781  0.000299  0.146188  0.121706  -0.000264  0.980374  0.0
H  H50  1  0.74547935  0.66048102  0.17762254  1  0.171505  0.000299  0.153311  0.129938  -0.000113  0.966476  0.0
H  H51  1  0.52116985  0.72437787  0.06781362  1  0.124311  0.000214  0.132523  0.101741  -0.000116  0.994237  0.0
H  H52  1  0.51098787  0.60783035  0.77800647  1  0.168594  0.000183  0.134009  0.098018  -0.000193  1.022329  0.0
H  H53  1  0.41887205  0.54262212  0.95703244  1  0.214153  0.000763  0.135018  0.111433  0.000192  1.058354  0.0
H  H54  1  0.61396660  0.07220927  0.20634672  1  0.076821  -8e-05  0.108302  0.11272  -6.9e-05  0.992222  0.0
H  H55  1  0.48130029  0.92551222  0.12939897  1  0.07873  -5.4e-05  0.104324  0.114156  -5.5e-05  1.003884  0.0
H  H56  1  0.22150415  0.04344848  0.13652435  1  0.074603  6e-06  0.109183  0.121673  3e-06  0.987035  0.0
H  H57  1  0.35695186  0.19204617  0.21274517  1  0.128966  4.6e-05  0.115561  0.12367  3.2e-05  0.996465  0.0
H  H58  1  0.94292310  0.81117546  0.20551128  1  0.075231  0.0  0.111769  0.119166  -1.7e-05  0.985272  0.0
H  H59  1  0.15681935  0.86710049  0.19457459  1  0.087455  6e-06  0.103373  0.10952  -2e-06  1.040399  0.0
H  H60  1  0.09505832  0.83465733  0.99320700  1  0.063873  2.8e-05  0.113022  0.126176  6e-06  0.975289  0.0
H  H61  1  0.87939755  0.77628384  0.00385459  1  0.139761  8.7e-05  0.115774  0.128814  6.4e-05  0.993183  0.0
H  H62  1  0.19190394  0.69571871  0.07208622  1  0.094673  -2.4e-05  0.104728  0.112163  -2.2e-05  1.033457  0.0
H  H63  1  0.25818341  0.59062936  0.99328595  1  0.090669  3.3e-05  0.10847  0.117898  -3.1e-05  1.027381  0.0
H  H64  1  0.48007069  0.84329507  0.92207868  1  0.128121  1.9e-05  0.105455  0.113928  8e-06  1.034885  0.0
H  H65  1  0.41187188  0.94838477  0.00079214  1  0.043479  2.3e-05  0.104627  0.113002  1.1e-05  1.014849  0.0
H  H66  1  0.00286578  0.34564634  0.13149337  1  0.101022  0.000649  0.104063  0.111931  0.000395  0.992521  0.0
H  H67  1  0.04284081  0.37283319  0.02356877  1  0.076531  6e-05  0.09504  0.094663  3.6e-05  1.069484  0.0
H  H68  1  0.93461339  0.61083522  0.06225387  1  0.082631  9e-06  0.096465  0.100013  -2.1e-05  1.052735  0.0
H  H69  1  0.89582061  0.58158654  0.17022566  1  0.07653  0.000746  0.098861  0.1009  0.000448  1.017435  0.0
H  H70  1  0.19430424  0.57870154  0.14079086  1  0.151981  0.00018  0.134526  0.102733  -0.000191  1.002536  0.0
H  H71  1  0.50876717  0.76565776  0.25178883  1  0.177638  0.00031  0.145656  0.121498  -0.000265  0.980738  0.0
H  H72  1  0.08503157  0.33961677  0.32248725  1  0.168231  0.000297  0.152979  0.129283  -0.000114  0.96663  0.0
H  H73  1  0.79714458  0.27579267  0.43243169  1  0.161695  0.000219  0.132119  0.100973  -0.000116  0.994548  0.0
H  H74  1  0.90377800  0.39242727  0.72192612  1  0.16709  0.000186  0.134135  0.098809  -0.000192  1.022175  0.0
H  H75  1  0.87616279  0.45731945  0.54286994  1  0.23591  0.000768  0.135199  0.111856  0.000192  1.056972  0.0
H  H76  1  0.54212830  0.92764471  0.29382258  1  0.055121  -8.3e-05  0.108521  0.11276  -6.9e-05  0.992076  0.0
H  H77  1  0.55621788  0.07462142  0.37059769  1  0.056738  -5.4e-05  0.104468  0.114577  -5.5e-05  1.003226  0.0
H  H78  1  0.17856755  0.95683088  0.36363128  1  0.081076  6e-06  0.109217  0.12223  3e-06  0.987037  0.0
H  H79  1  0.16535813  0.80817082  0.28738620  1  0.100246  4.8e-05  0.11553  0.123758  3.2e-05  0.996824  0.0
H  H80  1  0.13165593  0.18865308  0.29454446  1  0.078882  0.0  0.111618  0.118914  -1.7e-05  0.985194  0.0
H  H81  1  0.28965742  0.13271285  0.30543162  1  0.103124  6e-06  0.103228  0.109338  -2e-06  1.041126  0.0
H  H82  1  0.26094540  0.16551005  0.50682460  1  0.109363  2.7e-05  0.113019  0.125891  6e-06  0.975564  0.0
H  H83  1  0.10353967  0.22385703  0.49626866  1  0.130045  8.9e-05  0.115935  0.128816  6.5e-05  0.993794  0.0
H  H84  1  0.49638510  0.30437206  0.42795628  1  0.092208  -2.5e-05  0.10516  0.112128  -2.2e-05  1.033664  0.0
H  H85  1  0.66763449  0.40944810  0.50682699  1  0.141745  3.2e-05  0.108304  0.117815  -3.1e-05  1.027791  0.0
H  H86  1  0.63678122  0.15677753  0.57812769  1  0.111333  2e-05  0.106079  0.115174  8e-06  1.03532  0.0
H  H87  1  0.46362268  0.05172700  0.49932742  1  0.049896  2.3e-05  0.104575  0.113453  1.1e-05  1.01453  0.0
H  H88  1  0.65749919  0.65382128  0.36835983  1  0.102662  0.000646  0.10413  0.112541  0.000395  0.992135  0.0
H  H89  1  0.67006067  0.62682679  0.47635641  1  0.090715  5.8e-05  0.09526  0.095148  3.5e-05  1.069789  0.0
H  H90  1  0.32378522  0.38930390  0.43777110  1  0.076147  7e-06  0.095993  0.099231  -2.2e-05  1.053631  0.0
H  H91  1  0.31421029  0.41839507  0.32975524  1  0.075819  0.000742  0.098832  0.100606  0.000449  1.017764  0.0
C  C92  1  0.38124019  0.64126584  0.67289082  1  0.971042  -0.002932  0.151588  0.152575  -0.003222  3.968289  -0.002
C  C93  1  0.31503910  0.73595107  0.72827722  1  0.964373  -0.010293  0.160871  0.086027  -0.011901  3.8794  -0.007
C  C94  1  0.28846066  0.30864766  0.85453140  1  0.974328  -0.001321  0.171057  0.100211  -0.002691  3.855493  0.0
C  C95  1  0.40000083  0.27517424  0.91114384  1  0.986787  6.9e-05  0.14256  0.146318  -0.00063  3.979663  0.001
C  C96  1  0.52060646  0.39038102  0.17523817  1  0.96136  -0.003122  0.148547  0.158436  -0.003618  3.962075  -0.002
C  C97  1  0.56693289  0.42614747  0.08512005  1  0.940492  -0.007364  0.159046  0.094599  -0.008584  3.847802  -0.005
C  C98  1  0.50778726  0.85958153  0.78435096  1  0.230055  0.000492  0.089086  0.116899  0.00018  4.05521  0.0
C  C99  1  0.47173218  0.93341821  0.80909857  1  -0.020767  -0.001037  -0.090888  -0.153315  -0.001086  4.029589  -0.001
C  C100  1  0.54669598  0.01648472  0.85248318  1  0.042957  0.000146  -0.099717  -0.169035  6e-06  3.993076  0.0
C  C101  1  0.65947270  0.02727764  0.87152442  1  0.290927  -0.000884  0.096225  0.18546  -0.000966  4.03883  -0.001
C  C102  1  0.69310120  0.95084701  0.84747973  1  0.015665  0.000232  -0.095221  -0.165247  7.8e-05  3.985956  0.0
C  C103  1  0.61830746  0.86808017  0.80441854  1  0.021017  -0.000274  -0.084931  -0.140318  -0.000308  4.021479  0.0
C  C104  1  0.10044755  0.20896777  0.89501192  1  0.293298  0.000479  0.093166  0.130294  0.000266  4.02327  0.0
C  C105  1  0.02356534  0.18361727  0.84095189  1  0.028584  2.8e-05  -0.089809  -0.158589  -4e-05  4.007359  0.0
C  C106  1  0.90398426  0.15193907  0.84693000  1  -0.039115  7.6e-05  -0.08857  -0.148903  2.6e-05  3.992333  0.0
C  C107  1  0.86082505  0.14485351  0.90662038  1  0.35673  -0.000295  0.094043  0.176126  -0.000345  4.035655  0.0
C  C108  1  0.93884164  0.17016365  0.96041563  1  -0.014428  0.000177  -0.086268  -0.155084  6.8e-05  3.97318  0.0
C  C109  1  0.05857880  0.20213173  0.95482744  1  -0.023005  0.000108  -0.079614  -0.130664  3.8e-05  3.978832  0.0
C  C110  1  0.69991135  0.17117486  0.95759047  1  0.350348  -0.000581  0.089097  0.170185  -0.000641  4.045014  0.0
C  C111  1  0.74372723  0.27207516  0.96014257  1  -0.036384  4.5e-05  -0.090349  -0.152358  -3.9e-05  3.975589  0.0
C  C112  1  0.70652030  0.33076703  0.00398250  1  0.034243  -0.000424  -0.084811  -0.141023  -0.000484  3.985075  0.0
C  C113  1  0.62511842  0.28824549  0.04554185  1  0.285857  0.000592  0.09487  0.133136  0.000288  4.017277  0.001
C  C114  1  0.58146064  0.18765969  0.04407434  1  0.005478  -0.000244  -0.088145  -0.144257  -0.000289  3.986919  0.0
C  C115  1  0.61938437  0.12962342  0.00024019  1  -0.024369  0.000263  -0.095456  -0.165126  0.000112  4.001984  0.0
C  C116  1  0.07870787  0.55449111  0.77682333  1  1.503925  -0.006794  0.187388  0.536272  -0.00872  4.220587  -0.007
C  C117  1  0.05665839  0.53997308  0.84276549  1  -0.035923  0.002191  -0.023292  -0.038885  0.001107  3.992811  0.002
C  C118  1  0.01410848  0.59772618  0.88468531  1  -0.04494  -0.000874  -0.084177  -0.085229  -0.001175  3.978104  0.0
C  C119  1  0.99151247  0.58162425  0.94561405  1  -0.061041  0.000254  -0.095826  -0.136888  -5.2e-05  3.978659  0.0
C  C120  1  0.01031326  0.50734849  0.96717611  1  0.001077  -0.002968  -0.009356  0.063348  -0.003184  3.977054  -0.002
C  C121  1  0.05031377  0.44808195  0.92383398  1  -0.029499  6.6e-05  -0.096291  -0.140135  -0.000212  3.980041  0.0
C  C122  1  0.07347486  0.46446901  0.86306927  1  -0.079206  -0.000476  -0.088798  -0.092765  -0.00085  3.991835  0.0
C  C123  1  0.73985626  0.35862018  0.82698340  1  0.978406  -0.002945  0.152439  0.154084  -0.003203  3.967742  -0.002
C  C124  1  0.57884804  0.26407330  0.77171776  1  0.950667  -0.010317  0.160468  0.085502  -0.011888  3.879294  -0.007
C  C125  1  0.97967507  0.69122766  0.64533022  1  0.98714  -0.001414  0.171148  0.10048  -0.002726  3.856807  0.0
C  C126  1  0.12451379  0.72463499  0.58864069  1  0.935598  6e-05  0.143294  0.147441  -0.000632  3.978777  0.001
C  C127  1  0.12980301  0.60945129  0.32480878  1  0.977752  -0.003124  0.148542  0.15779  -0.003633  3.964293  -0.002
C  C128  1  0.14066529  0.57386691  0.41495628  1  0.932865  -0.007377  0.15936  0.095626  -0.008592  3.847359  -0.005
C  C129  1  0.64783661  0.14036531  0.71546838  1  0.292166  0.000488  0.089394  0.117216  0.000179  4.054149  0.0
C  C130  1  0.53789173  0.06661484  0.69073223  1  0.020197  -0.001039  -0.091503  -0.153328  -0.001093  4.029321  -0.001
C  C131  1  0.52975217  0.98343172  0.64744385  1  0.019015  0.000145  -0.099736  -0.170396  6e-06  3.994409  0.0
C  C132  1  0.63173063  0.97259446  0.62839564  1  0.277249  -0.000888  0.09645  0.18639  -0.000971  4.039132  -0.001
C  C133  1  0.74179319  0.04898404  0.65234572  1  0.013993  0.000231  -0.095111  -0.166322  7.7e-05  3.986888  0.0
C  C134  1  0.74979697  0.13175113  0.69541226  1  0.035443  -0.000273  -0.084756  -0.13969  -0.000309  4.021914  0.0
C  C135  1  0.89122463  0.79095600  0.60489016  1  0.251628  0.000496  0.092508  0.129522  0.000267  4.020605  0.0
C  C136  1  0.83989495  0.81647741  0.65899543  1  0.008691  3e-05  -0.088727  -0.157679  -3.9e-05  4.008462  0.0
C  C137  1  0.75199972  0.84816761  0.65305462  1  -0.08032  7.8e-05  -0.088654  -0.14905  2.7e-05  3.995364  0.0
C  C138  1  0.71565264  0.85505721  0.59336635  1  0.374761  -0.000298  0.094015  0.175868  -0.000349  4.035122  0.0
C  C139  1  0.76820975  0.82966076  0.53953814  1  -0.040001  0.000178  -0.086232  -0.154519  6.7e-05  3.971525  0.0
C  C140  1  0.85602365  0.79769793  0.54506786  1  0.033305  9.7e-05  -0.079856  -0.13046  3.4e-05  3.976927  0.0
C  C141  1  0.52849644  0.82870708  0.54233881  1  0.278045  -0.000588  0.089049  0.170557  -0.000645  4.047806  0.0
C  C142  1  0.47150416  0.72782518  0.53977819  1  0.013955  4.5e-05  -0.090971  -0.152336  -3.9e-05  3.976569  0.0
C  C143  1  0.37570003  0.66915384  0.49588912  1  -0.002368  -0.000428  -0.0848  -0.141417  -0.000489  3.985943  0.0
C  C144  1  0.33681449  0.71168890  0.45431550  1  0.28651  0.000594  0.095702  0.134886  0.000289  4.016311  0.001
C  C145  1  0.39377327  0.81225214  0.45573385  1  0.055664  -0.000245  -0.089396  -0.146626  -0.000291  3.989955  0.0
C  C146  1  0.48963589  0.87025296  0.49962141  1  -0.075702  0.000261  -0.095037  -0.165719  0.000112  4.003643  0.0
C  C147  1  0.52425673  0.44577282  0.72325071  1  1.520989  -0.006806  0.186378  0.535452  -0.008712  4.221089  -0.007
C  C148  1  0.51661316  0.46027174  0.65732833  1  -0.03388  0.002193  -0.022401  -0.037019  0.001107  3.993222  0.002
C  C149  1  0.41624695  0.40264507  0.61544305  1  -0.034223  -0.000866  -0.085281  -0.087796  -0.001174  3.979095  0.0
C  C150  1  0.40983923  0.41862717  0.55445962  1  -0.058796  0.000251  -0.095708  -0.13587  -5.2e-05  3.978475  0.0
C  C151  1  0.50294645  0.49273809  0.53285268  1  -0.06137  -0.002984  -0.009271  0.061747  -0.003181  3.97725  -0.002
C  C152  1  0.60218854  0.55193832  0.57619941  1  -0.033339  6.5e-05  -0.096042  -0.138696  -0.000212  3.980384  0.0
C  C153  1  0.60898262  0.53562607  0.63699091  1  -0.071538  -0.000479  -0.088395  -0.09216  -0.000847  3.991403  0.0
C  C154  1  0.61876077  0.35873680  0.32710691  1  0.970581  -0.002932  0.151632  0.152608  -0.003222  3.968203  -0.002
C  C155  1  0.68496069  0.26405083  0.27172087  1  0.964377  -0.010291  0.160935  0.086095  -0.011898  3.87933  -0.007
C  C156  1  0.71153697  0.69134834  0.14546862  1  0.974353  -0.001322  0.171145  0.100298  -0.002692  3.855503  0.0
C  C157  1  0.59999885  0.72482106  0.08885422  1  0.986361  6.9e-05  0.142544  0.146409  -0.000631  3.979746  0.001
C  C158  1  0.47939931  0.60962008  0.82476352  1  0.961464  -0.003122  0.148674  0.158665  -0.003618  3.961948  -0.002
C  C159  1  0.43306714  0.57384854  0.91487905  1  0.940837  -0.007363  0.159165  0.094756  -0.008584  3.847913  -0.005
C  C160  1  0.49221198  0.14041450  0.21564675  1  0.231827  0.000491  0.089173  0.117032  0.00018  4.055114  0.0
C  C161  1  0.52826627  0.06657782  0.19089960  1  -0.020353  -0.001036  -0.09097  -0.15342  -0.001086  4.029607  -0.001
C  C162  1  0.45330475  0.98351428  0.14751310  1  0.043317  0.000146  -0.099752  -0.169116  6e-06  3.993026  0.0
C  C163  1  0.34052900  0.97272649  0.12847259  1  0.290788  -0.000883  0.096219  0.185489  -0.000966  4.038729  -0.001
C  C164  1  0.30690167  0.04915788  0.15251601  1  0.015184  0.000232  -0.09514  -0.165119  7.8e-05  3.985809  0.0
C  C165  1  0.38169626  0.13192322  0.19557883  1  0.021379  -0.000274  -0.084946  -0.140399  -0.000307  4.021557  0.0
C  C166  1  0.89955444  0.79102897  0.10498775  1  0.293238  0.000479  0.093196  0.13039  0.000266  4.023202  0.0
C  C167  1  0.97643418  0.81638089  0.15905030  1  0.028902  2.7e-05  -0.089838  -0.158667  -4e-05  4.007323  0.0
C  C168  1  0.09601733  0.84806643  0.15307233  1  -0.039419  7.6e-05  -0.088472  -0.148866  2.6e-05  3.992005  0.0
C  C169  1  0.13917234  0.85514838  0.09337864  1  0.35692  -0.000295  0.093989  0.176127  -0.000345  4.03547  0.0
C  C170  1  0.06115727  0.82983968  0.03958545  1  -0.01446  0.000177  -0.086252  -0.155009  6.8e-05  3.973199  0.0
C  C171  1  0.94142133  0.79787085  0.04517400  1  -0.023032  0.000108  -0.079552  -0.13066  3.7e-05  3.978982  0.0
C  C172  1  0.30008807  0.82882629  0.04240890  1  0.35035  -0.000581  0.089122  0.170261  -0.000641  4.044935  0.0
C  C173  1  0.25627492  0.72792669  0.03985876  1  -0.036501  4.5e-05  -0.090466  -0.152475  -3.9e-05  3.975556  0.0
C  C174  1  0.29347866  0.66923481  0.99601976  1  0.034164  -0.000424  -0.084757  -0.14097  -0.000484  3.985139  0.0
C  C175  1  0.37488066  0.71175340  0.95446091  1  0.285897  0.000592  0.094873  0.133143  0.000288  4.017157  0.001
C  C176  1  0.41854005  0.81233924  0.95592611  1  0.005689  -0.000244  -0.088228  -0.144355  -0.000289  3.986826  0.0
C  C177  1  0.38061510  0.87037626  0.99975898  1  -0.024319  0.000263  -0.095419  -0.165093  0.000112  4.002075  0.0
C  C178  1  0.92128764  0.44550861  0.22317398  1  1.504584  -0.00679  0.187413  0.536549  -0.008719  4.220535  -0.007
C  C179  1  0.94333900  0.46002880  0.15723399  1  -0.036054  0.00219  -0.023275  -0.039018  0.001107  3.993014  0.002
C  C180  1  0.98589203  0.40227716  0.11531484  1  -0.044759  -0.000874  -0.084252  -0.085334  -0.001175  3.97811  0.0
C  C181  1  0.00848805  0.41837911  0.05438472  1  -0.061116  0.000254  -0.095757  -0.136683  -5.2e-05  3.978454  0.0
C  C182  1  0.98968927  0.49265411  0.03282394  1  -0.034617  -0.002982  -0.009353  0.063292  -0.003183  3.97705  -0.002
C  C183  1  0.94968607  0.55191846  0.07616529  1  -0.029536  6.6e-05  -0.096284  -0.140006  -0.000212  3.980125  0.0
C  C184  1  0.92652377  0.53553217  0.13692825  1  -0.079066  -0.000476  -0.088781  -0.09272  -0.00085  3.991989  0.0
C  C185  1  0.26013446  0.64137953  0.17301437  1  0.978261  -0.002944  0.152446  0.15403  -0.003202  3.967828  -0.002
C  C186  1  0.42114798  0.73592424  0.22827784  1  0.950703  -0.010315  0.160524  0.0856  -0.011886  3.879232  -0.007
C  C187  1  0.02032993  0.30877191  0.35467496  1  0.986855  -0.001411  0.171206  0.100386  -0.002723  3.856858  0.0
C  C188  1  0.87549050  0.27536317  0.41136150  1  0.935959  6.2e-05  0.143328  0.147598  -0.000631  3.978589  0.001
C  C189  1  0.87019583  0.39055349  0.67519251  1  0.977381  -0.003124  0.148512  0.157843  -0.003633  3.964264  -0.002
C  C190  1  0.85933466  0.42614009  0.58504394  1  0.93315  -0.007379  0.159238  0.095513  -0.008593  3.847047  -0.005
C  C191  1  0.35215544  0.85963067  0.28453257  1  0.292436  0.000488  0.089392  0.117136  0.000179  4.054123  0.0
C  C192  1  0.46210513  0.93338119  0.30926548  1  0.020448  -0.00104  -0.091547  -0.153256  -0.001093  4.029172  -0.001
C  C193  1  0.47024460  0.01656574  0.35255639  1  0.018575  0.000145  -0.09974  -0.170502  6e-06  3.994541  0.0
C  C194  1  0.36827092  0.02740300  0.37160459  1  0.277012  -0.000887  0.096504  0.18638  -0.00097  4.039091  -0.001
C  C195  1  0.25820365  0.95101196  0.34765431  1  0.014271  0.000231  -0.095152  -0.16626  7.7e-05  3.986809  0.0
C  C196  1  0.25019937  0.86824706  0.30458808  1  0.03508  -0.000273  -0.084726  -0.139716  -0.000309  4.022153  0.0
C  C197  1  0.10878118  0.20904360  0.39511363  1  0.250726  0.000495  0.092515  0.129556  0.000267  4.020485  0.0
C  C198  1  0.16010977  0.18352000  0.34100758  1  0.009352  3e-05  -0.088744  -0.157618  -3.9e-05  4.008634  0.0
C  C199  1  0.24800415  0.15183130  0.34694676  1  -0.080769  7.8e-05  -0.088657  -0.14905  2.7e-05  3.995493  0.0
C  C200  1  0.28434975  0.14493875  0.40663599  1  0.375238  -0.000297  0.094102  0.175923  -0.000349  4.03508  0.0
C  C201  1  0.23179179  0.17033667  0.46046349  1  -0.040276  0.000178  -0.086177  -0.154411  6.7e-05  3.971484  0.0
C  C202  1  0.14397677  0.20229727  0.45493576  1  0.033057  9.8e-05  -0.079874  -0.130541  3.4e-05  3.976835  0.0
C  C203  1  0.47150222  0.17129256  0.45766313  1  0.278085  -0.000588  0.0891  0.170633  -0.000645  4.047742  0.0
C  C204  1  0.52849289  0.27217443  0.46022514  1  0.013861  4.6e-05  -0.090949  -0.152337  -3.9e-05  3.9767  0.0
C  C205  1  0.62429451  0.33084873  0.50411278  1  -0.002307  -0.000428  -0.084753  -0.141425  -0.000489  3.985902  0.0
C  C206  1  0.66318558  0.28831515  0.54568615  1  0.286324  0.000595  0.095697  0.134844  0.000289  4.016379  0.001
C  C207  1  0.60622593  0.18775335  0.54426893  1  0.055135  -0.000244  -0.089419  -0.146582  -0.000291  3.99  0.0
C  C208  1  0.51036384  0.12974883  0.50038316  1  -0.075838  0.000261  -0.095083  -0.16583  0.000112  4.003708  0.0
C  C209  1  0.47574714  0.55422609  0.27675066  1  1.52099  -0.006806  0.186227  0.535273  -0.00871  4.221312  -0.007
C  C210  1  0.48338912  0.53972718  0.34267258  1  -0.033846  0.002193  -0.022298  -0.03683  0.001107  3.993212  0.002
C  C211  1  0.58375489  0.59735455  0.38455935  1  -0.034267  -0.000866  -0.085338  -0.087865  -0.001174  3.979244  0.0
C  C212  1  0.59015943  0.58137248  0.44554185  1  -0.058686  0.000251  -0.095664  -0.135899  -5.2e-05  3.978559  0.0
C  C213  1  0.49704810  0.50726449  0.46714876  1  -0.021535  -0.002965  -0.009288  0.061713  -0.003181  3.977106  -0.002
C  C214  1  0.39780608  0.44806281  0.42380135  1  -0.032779  6.5e-05  -0.096032  -0.138601  -0.000212  3.980189  0.0
C  C215  1  0.39101808  0.46437286  0.36300908  1  -0.071617  -0.000479  -0.08842  -0.092277  -0.000847  3.991487  0.0
N  N216  1  0.27999127  0.65184244  0.68539962  1  -1.196221  0.040874  -0.341798  -0.315411  0.021411  3.600716  0.04
N  N217  1  0.43302582  0.77458543  0.74016680  1  -0.854416  -0.00037  -0.117938  0.133885  -0.000601  3.787771  0.0
N  N218  1  0.47653447  0.71429953  0.70492075  1  -0.680911  0.004667  -0.218672  -0.264223  0.002446  3.109453  0.004
N  N219  1  0.40102269  0.32905468  0.86710938  1  -1.175129  0.061825  -0.337178  -0.303868  0.03408  3.552676  0.05
N  N220  1  0.22303573  0.24487636  0.88973051  1  -0.852441  0.00278  -0.118321  0.134415  0.001374  3.773923  0.002
N  N221  1  0.29360866  0.22303724  0.92649077  1  -0.680072  0.005035  -0.2323  -0.276689  0.002608  3.081631  0.004
N  N222  1  0.52474195  0.45496951  0.13829512  1  -1.195056  0.040606  -0.345043  -0.324074  0.021698  3.580031  0.038
N  N223  1  0.55707228  0.32356196  0.14812278  1  -0.688135  0.003518  -0.221648  -0.262827  0.001813  3.127291  0.003
N  N224  1  0.58642910  0.34701831  0.09060958  1  -0.855844  0.000391  -0.11725  0.136817  -0.000192  3.754656  0.001
N  N225  1  0.73877079  0.11210306  0.91281987  1  -1.249173  -0.000236  -0.258229  -0.162197  -0.00018  3.691964  0.0
N  N226  1  0.14780628  0.45641895  0.55399013  1  0.820034  -0.010614  0.094284  0.699404  -0.012139  4.408354  -0.011
N  N227  1  0.62803801  0.34815081  0.81460859  1  -1.197046  0.040932  -0.342093  -0.316372  0.021401  3.600947  0.04
N  N228  1  0.65815234  0.22538246  0.75966609  1  -0.85492  -0.000376  -0.1172  0.13439  -0.000605  3.789931  0.0
N  N229  1  0.76200354  0.28557846  0.79484776  1  -0.69086  0.004667  -0.218813  -0.264538  0.002452  3.111441  0.004
N  N230  1  0.07180781  0.67080250  0.63271351  1  -1.181386  0.061827  -0.337311  -0.303543  0.034096  3.552052  0.05
N  N231  1  0.97790480  0.75499350  0.61013146  1  -0.830835  0.002761  -0.118231  0.134657  0.001369  3.772608  0.002
N  N232  1  0.07021587  0.77679409  0.57332466  1  -0.672768  0.005049  -0.232649  -0.277466  0.002614  3.0802  0.004
N  N233  1  0.06953745  0.54495427  0.36181995  1  -1.206929  0.040559  -0.344709  -0.324912  0.021666  3.582881  0.039
N  N234  1  0.23311492  0.67628152  0.35181883  1  -0.69418  0.003514  -0.220834  -0.261778  0.001815  3.128166  0.003
N  N235  1  0.23922003  0.65293668  0.40935272  1  -0.87457  0.000381  -0.119358  0.134589  -0.000205  3.755132  0.001
N  N236  1  0.62623651  0.88771240  0.58719002  1  -1.239707  -0.000236  -0.25869  -0.162318  -0.00018  3.695077  0.0
N  N237  1  0.69127820  0.54356922  0.94605462  1  0.824405  -0.010608  0.093621  0.69767  -0.012117  4.410056  -0.01
N  N238  1  0.72001011  0.34815946  0.31459847  1  -1.196196  0.040872  -0.341876  -0.315571  0.02141  3.600764  0.04
N  N239  1  0.56697171  0.22541355  0.25983040  1  -0.856693  -0.000369  -0.118105  0.133714  -0.000601  3.787728  0.0
N  N240  1  0.52346539  0.28570092  0.29507667  1  -0.680459  0.004668  -0.21857  -0.264061  0.002446  3.109276  0.004
N  N241  1  0.59897466  0.67093914  0.13288894  1  -1.175225  0.061832  -0.337191  -0.303918  0.034079  3.552883  0.05
N  N242  1  0.77696662  0.75512109  0.11027019  1  -0.852527  0.00278  -0.118376  0.134372  0.001373  3.773891  0.002
N  N243  1  0.70639295  0.77695876  0.07350925  1  -0.679812  0.005035  -0.232314  -0.276715  0.002608  3.081601  0.004
N  N244  1  0.47525997  0.54502869  0.86170475  1  -1.195283  0.040602  -0.345137  -0.324203  0.021696  3.580218  0.038
N  N245  1  0.44293537  0.67644132  0.85188015  1  -0.687972  0.003518  -0.221698  -0.262961  0.001813  3.12716  0.003
N  N246  1  0.41357354  0.65298133  0.90939236  1  -0.856261  0.00039  -0.117278  0.136842  -0.000191  3.754475  0.001
N  N247  1  0.26122746  0.88789738  0.08717848  1  -1.24917  -0.000236  -0.258247  -0.162295  -0.00018  3.691909  0.0
N  N248  1  0.85219403  0.54358082  0.44600441  1  0.819751  -0.010614  0.094145  0.699292  -0.012139  4.408653  -0.011
N  N249  1  0.37195519  0.65184747  0.18538712  1  -1.197047  0.040928  -0.342061  -0.316473  0.0214  3.601029  0.04
N  N250  1  0.34184250  0.77461431  0.24033172  1  -0.854852  -0.000375  -0.117335  0.134239  -0.000604  3.789917  0.0
N  N251  1  0.23798882  0.71441974  0.20515258  1  -0.690863  0.004666  -0.218771  -0.264421  0.002451  3.111398  0.004
N  N252  1  0.92819568  0.32919566  0.36728868  1  -1.181257  0.061817  -0.337311  -0.303598  0.03409  3.552059  0.05
N  N253  1  0.02210143  0.24500535  0.38987362  1  -0.830775  0.002761  -0.11835  0.134486  0.001369  3.77244  0.002
N  N254  1  0.92978914  0.22320551  0.42667913  1  -0.672965  0.005048  -0.232664  -0.277469  0.002614  3.080129  0.004
N  N255  1  0.93046299  0.45505052  0.63818088  1  -1.206484  0.040559  -0.344652  -0.324958  0.021666  3.582743  0.039
N  N256  1  0.76688350  0.32372402  0.64818118  1  -0.694452  0.003514  -0.22089  -0.261912  0.001815  3.128319  0.003
N  N257  1  0.76077904  0.34707175  0.59065003  1  -0.873961  0.000381  -0.119269  0.134687  -0.000205  3.755083  0.001
N  N258  1  0.37376511  0.11228359  0.41281047  1  -1.239776  -0.000236  -0.258776  -0.162267  -0.00018  3.694955  0.0
N  N259  1  0.30872220  0.45642753  0.05394412  1  0.824598  -0.01061  0.093547  0.697564  -0.01212  4.409838  -0.01
O  O260  1  0.11457957  0.49800884  0.73970942  1  -1.122031  0.098051  -0.317918  -0.519502  0.050957  2.206523  0.084
O  O261  1  0.05847215  0.61968806  0.75634331  1  -1.144773  0.088176  -0.326065  -0.556244  0.045128  2.149736  0.078
O  O262  1  0.13006875  0.53451010  0.55742985  1  -0.581801  0.071651  -0.188587  -0.456913  0.037641  2.107147  0.064
O  O263  1  0.15010209  0.42953181  0.60596274  1  -0.512033  0.058758  -0.169632  -0.406093  0.03039  1.94545  0.052
O  O264  1  0.16203507  0.41220301  0.50196259  1  -0.516816  0.00669  -0.16726  -0.416125  0.001458  1.997152  0.006
O  O265  1  0.61668627  0.50208596  0.76034238  1  -1.130871  0.098072  -0.317496  -0.519171  0.051047  2.205053  0.084
O  O266  1  0.43874703  0.38068554  0.74371416  1  -1.156512  0.088309  -0.325746  -0.555528  0.045174  2.149771  0.078
O  O267  1  0.59533427  0.46561837  0.94259827  1  -0.581561  0.071595  -0.187925  -0.455519  0.037595  2.106506  0.064
O  O268  1  0.72053650  0.57046054  0.89410146  1  -0.514525  0.058671  -0.16936  -0.405285  0.030309  1.945994  0.052
O  O269  1  0.74978438  0.58765899  0.99808255  1  -0.520261  0.006704  -0.167938  -0.416546  0.001472  1.996328  0.006
O  O270  1  0.88541208  0.50198793  0.26028793  1  -1.122127  0.098051  -0.317902  -0.519567  0.050955  2.206431  0.084
O  O271  1  0.94153166  0.38031390  0.24365154  1  -1.145357  0.088164  -0.326102  -0.556391  0.045123  2.149759  0.078
O  O272  1  0.86993000  0.46548971  0.44256191  1  -0.58169  0.071657  -0.188543  -0.456879  0.037646  2.107254  0.064
O  O273  1  0.84990970  0.57047816  0.39403559  1  -0.512108  0.058758  -0.169571  -0.405984  0.03039  1.945793  0.052
O  O274  1  0.83795710  0.58779160  0.49803260  1  -0.516575  0.006693  -0.167221  -0.416124  0.001459  1.997044  0.006
O  O275  1  0.38331798  0.49791370  0.23965817  1  -1.130783  0.098067  -0.317495  -0.519152  0.051047  2.205105  0.084
O  O276  1  0.56125641  0.61931411  0.25628731  1  -1.156487  0.088304  -0.325689  -0.5555  0.045171  2.149772  0.078
O  O277  1  0.40466736  0.53437765  0.05740036  1  -0.581628  0.071595  -0.187925  -0.455475  0.037594  2.106459  0.064
O  O278  1  0.27946296  0.42953912  0.10589909  1  -0.514585  0.058677  -0.169346  -0.405254  0.030312  1.945978  0.052
O  O279  1  0.25021375  0.41233481  0.00191669  1  -0.520335  0.006701  -0.167882  -0.416479  0.00147  1.996097  0.006
