# generated using pymatgen
data_CuH8C9BrNO3
_symmetry_space_group_name_H-M   'P 1'
_cell_length_a   5.15201307
_cell_length_b   9.13327004
_cell_length_c   11.11396997
_cell_angle_alpha   71.57343467
_cell_angle_beta   85.05920778
_cell_angle_gamma   77.79530728
_symmetry_Int_Tables_number   1
_chemical_formula_structural   CuH8C9BrNO3
_chemical_formula_sum   'Cu2 H16 C18 Br2 N2 O6'
_cell_volume   484.83335198
_cell_formula_units_Z   2
loop_
 _symmetry_equiv_pos_site_id
 _symmetry_equiv_pos_as_xyz
  1  'x, y, z'
loop_
 _atom_site_type_symbol
 _atom_site_label
 _atom_site_symmetry_multiplicity
 _atom_site_fract_x
 _atom_site_fract_y
 _atom_site_fract_z
 _atom_site_occupancy
 _atom_site_hle17_ddec_charge
 _atom_site_hle17_ddec_spin_density
 _atom_site_hle17_ddec_sum_bond_order
 _atom_site_hle17_magmom
 _atom_site_hse06_10hf_ddec_charge
 _atom_site_hse06_10hf_ddec_spin_density
 _atom_site_hse06_10hf_ddec_sum_bond_order
 _atom_site_hse06_10hf_magmom
 _atom_site_hse06_ddec_charge
 _atom_site_hse06_ddec_spin_density
 _atom_site_hse06_ddec_sum_bond_order
 _atom_site_hse06_magmom
 _atom_site_pbe_cm5_charge
 _atom_site_pbe_ddec_charge
 _atom_site_pbe_ddec_spin_density
 _atom_site_pbe_ddec_sum_bond_order
 _atom_site_pbe_magmom
Cu  Cu0  1  0.74819151  0.53052504  0.58248746  1  0.833372  -0.395908  1.904539  -0.291  0.821242  -0.69071  2.324418  -0.546  0.926301  -0.828109  2.239386  -0.673  0.709611  0.747818  -0.364464  2.386649  -0.285
Cu  Cu1  1  0.25182647  0.46945862  0.41752464  1  0.833493  0.395926  1.904536  0.291  0.82142  0.690701  2.324411  0.546  0.926577  0.828129  2.239359  0.673  0.709669  0.747978  0.364461  2.386688  0.285
H  H2  1  0.46790708  0.45014054  0.92410840  1  0.080118  -0.001799  0.950309  -0.002  0.089587  -0.001957  1.022605  -0.002  0.091871  -0.001627  1.016607  -0.002  0.116477  0.087736  -0.001236  1.027283  -0.001
H  H3  1  0.53212255  0.54986460  0.07588329  1  0.080133  0.001796  0.950149  0.002  0.089593  0.001956  1.022443  0.002  0.091884  0.001627  1.01643  0.002  0.116459  0.087734  0.001235  1.02713  0.001
H  H4  1  0.97784765  0.86980534  0.48661313  1  0.112498  0.000132  0.960966  0.0  0.127613  2e-05  1.014303  0.0  0.131173  2.1e-05  1.013447  0.0  0.103847  0.124932  -1e-06  1.015238  0.0
H  H5  1  0.02214055  0.13018519  0.51339401  1  0.112403  -0.000131  0.96073  0.0  0.127538  -2e-05  1.014109  0.0  0.131101  -2e-05  1.013256  0.0  0.103863  0.124863  1e-06  1.015039  0.0
H  H6  1  0.63547743  0.95231620  0.63530268  1  0.106921  -0.000318  0.934294  0.0  0.121354  -0.000316  0.989027  0.0  0.125217  -0.000235  0.9858  0.0  0.104154  0.118785  -0.000214  0.991006  0.0
H  H7  1  0.36451800  0.04768631  0.36468758  1  0.106847  0.000317  0.934295  0.0  0.121343  0.000316  0.988965  0.0  0.125208  0.000235  0.985736  0.0  0.104185  0.118781  0.000214  0.990946  0.0
H  H8  1  0.09465793  0.62962737  0.95124911  1  0.107103  -9.7e-05  0.96374  0.0  0.114154  1e-05  1.034129  0.0  0.117603  1.3e-05  1.031136  0.0  0.097839  0.111324  1.1e-05  1.036888  0.0
H  H9  1  0.90532462  0.37039026  0.04875135  1  0.107095  9.5e-05  0.963673  0.0  0.114076  -9e-06  1.034203  0.0  0.11752  -1.3e-05  1.031207  0.0  0.097824  0.111256  -1.1e-05  1.036957  0.0
H  H10  1  0.81781579  0.18057531  0.72616275  1  0.069393  -7e-05  0.936331  0.0  0.080076  -4.1e-05  1.008831  0.0  0.079896  -1.1e-05  1.008234  0.0  0.101841  0.079728  -2.9e-05  1.010303  0.0
H  H11  1  0.18220633  0.81942381  0.27383712  1  0.069366  7.3e-05  0.936329  0.0  0.080049  4.2e-05  1.008816  0.0  0.07987  1.1e-05  1.008218  0.0  0.101825  0.079703  2.9e-05  1.01029  0.0
H  H12  1  0.04857874  0.10010430  0.85386649  1  0.071218  0.000231  0.944998  0.0  0.081024  0.000536  1.018377  0.001  0.080151  0.000505  1.018584  0.001  0.099376  0.081814  0.000322  1.018625  0.0
H  H13  1  0.95142143  0.89990172  0.14613076  1  0.071209  -0.00023  0.944927  0.0  0.080999  -0.000536  1.018298  -0.001  0.080125  -0.000504  1.018506  -0.001  0.099378  0.081791  -0.000322  1.018555  0.0
H  H14  1  0.29062725  0.16243571  0.65001859  1  0.050588  -0.001548  0.929221  -0.001  0.062163  -0.001742  0.998712  -0.001  0.057779  -0.001461  1.000834  -0.001  0.094636  0.067086  -0.001064  0.995267  -0.001
H  H15  1  0.70937093  0.83757616  0.34998085  1  0.050712  0.001549  0.929245  0.001  0.062276  0.001742  0.998723  0.001  0.057894  0.001461  1.000846  0.001  0.094741  0.067202  0.001065  0.995276  0.001
H  H16  1  0.34407105  0.28159333  0.74159331  1  0.039905  -0.000339  0.960093  0.0  0.049249  -0.000423  1.034664  0.0  0.047812  -0.000363  1.035139  0.0  0.085407  0.050599  -0.000263  1.03388  0.0
H  H17  1  0.65594452  0.71841289  0.25839602  1  0.039924  0.000341  0.960157  0.0  0.049287  0.000422  1.034702  0.0  0.047852  0.000363  1.035182  0.0  0.085428  0.050637  0.000263  1.033916  0.0
C  C18  1  0.47658081  0.50617179  0.82144491  1  0.11391  0.006389  3.704837  0.006  0.063706  0.003356  3.977204  0.002  0.086695  0.004698  3.984039  0.004  0.055388  0.048396  0.001328  3.973588  0.001
C  C19  1  0.52341987  0.49382717  0.17855234  1  0.113907  -0.006368  3.704423  -0.005  0.063807  -0.003358  3.976826  -0.002  0.086797  -0.004703  3.983655  -0.004  0.055429  0.048498  -0.001332  3.97322  -0.001
C  C20  1  0.26612215  0.63358239  0.76513014  1  -0.092522  -0.002896  3.801945  -0.004  -0.072424  -0.001642  4.044547  -0.003  -0.089775  -0.001126  4.073339  -0.002  -0.035228  -0.060819  -0.001178  4.024889  -0.002
C  C21  1  0.73388504  0.36641433  0.23486019  1  -0.092464  0.002876  3.801984  0.004  -0.072306  0.001645  4.044613  0.003  -0.089649  0.001124  4.073409  0.002  -0.035225  -0.060711  0.001179  4.024959  0.002
C  C22  1  0.24141554  0.70731369  0.63049130  1  0.34352  0.002081  3.841098  0.004  0.327635  0.000155  4.106667  0.003  0.349542  0.000905  4.123436  0.003  0.090791  0.31346  -0.000318  4.09436  0.001
C  C23  1  0.75858332  0.29266867  0.36951657  1  0.343388  -0.002067  3.840957  -0.004  0.327338  -0.000156  4.106841  -0.003  0.349236  -0.000901  4.12363  -0.003  0.090851  0.313163  0.000318  4.09453  -0.001
C  C24  1  0.00302713  0.81780753  0.58838517  1  -0.192502  -0.0056  3.728291  -0.007  -0.211884  -0.004671  3.987665  -0.006  -0.221577  -0.003659  4.00476  -0.005  -0.108086  -0.205825  -0.003107  3.97664  -0.004
C  C25  1  0.99693538  0.18218296  0.41160242  1  -0.192363  0.005568  3.728621  0.007  -0.211735  0.004671  3.988124  0.006  -0.221442  0.003653  4.005242  0.005  -0.108186  -0.205672  0.003105  3.97709  0.004
C  C26  1  0.81224704  0.86407357  0.67165487  1  -0.079378  0.002641  3.782222  0.002  -0.107664  0.001352  4.042273  0.001  -0.102657  0.001637  4.059046  0.001  -0.094919  -0.111107  0.000588  4.032196  0.0
C  C27  1  0.18773928  0.13594413  0.32834000  1  -0.079425  -0.002615  3.78267  -0.002  -0.107745  -0.001352  4.042728  -0.001  -0.102733  -0.001635  4.05951  -0.001  -0.094964  -0.1112  -0.000588  4.032661  0.0
C  C28  1  0.84943174  0.79706263  0.80282990  1  0.04635  -0.00124  3.766468  -0.001  0.06207  -9.8e-05  4.040191  0.0  0.058962  -8.2e-05  4.064931  0.0  -0.043564  0.063265  1.1e-05  4.024893  0.0
C  C29  1  0.15058298  0.20293526  0.19716790  1  0.046303  0.001215  3.766481  0.001  0.062014  9.7e-05  4.040233  0.0  0.058899  7.8e-05  4.064975  0.0  -0.043588  0.063223  -1.2e-05  4.024929  0.0
C  C30  1  0.06925672  0.68223588  0.84921661  1  -0.132461  0.00299  3.769651  0.003  -0.169263  0.001717  4.029475  0.002  -0.164479  0.001787  4.049466  0.002  -0.101421  -0.17229  0.00091  4.016531  0.001
C  C31  1  0.93072486  0.31775694  0.15079204  1  -0.13238  -0.002961  3.769836  -0.003  -0.169105  -0.001718  4.029581  -0.002  -0.164322  -0.001784  4.049591  -0.002  -0.101346  -0.17214  -0.000911  4.016639  -0.001
C  C32  1  0.96977458  0.20567303  0.77651087  1  0.016129  0.001278  3.648158  0.001  -0.056035  0.001346  3.934248  0.001  -0.050656  0.001508  3.940197  0.001  -0.080377  -0.059159  0.000574  3.930142  0.001
C  C33  1  0.03023308  0.79433418  0.22349205  1  0.016227  -0.001282  3.647924  -0.001  -0.055902  -0.001349  3.934032  -0.001  -0.050513  -0.001507  3.939987  -0.001  -0.080298  -0.05904  -0.000572  3.929935  -0.001
C  C34  1  0.19452333  0.26031435  0.68716294  1  0.101663  -0.000177  3.742265  0.0  0.050492  -0.000551  4.024894  0.0  0.06469  -0.000239  4.038848  0.0  -0.098369  0.039603  -0.00051  4.012621  0.0
C  C35  1  0.80547507  0.73969158  0.31284251  1  0.101412  0.000165  3.742521  0.0  0.050217  0.00055  4.025207  0.0  0.064406  0.000238  4.039185  0.0  -0.098532  0.039335  0.000507  4.012927  0.0
Br  Br36  1  0.59383544  0.86673995  0.91801500  1  -0.064052  7e-06  1.349469  0.0  -0.049166  0.000112  1.629636  0.0  -0.05249  3.9e-05  1.622373  0.0  0.04596  -0.04708  0.000161  1.635586  0.0
Br  Br37  1  0.40617207  0.13325079  0.08198584  1  -0.064017  -7e-06  1.349416  0.0  -0.049126  -0.000112  1.629582  0.0  -0.052442  -3.9e-05  1.622324  0.0  0.045975  -0.047036  -0.00016  1.63553  0.0
N  N38  1  0.67137942  0.44427519  0.75915555  1  -0.194177  -0.035398  3.222967  -0.046  -0.156095  -0.041757  3.55343  -0.056  -0.181026  -0.040018  3.559403  -0.056  -0.289363  -0.142414  -0.024106  3.552821  -0.032
N  N39  1  0.32860868  0.55570469  0.24085702  1  -0.194231  0.035369  3.222415  0.046  -0.156361  0.041762  3.553072  0.056  -0.181301  0.040012  3.559076  0.056  -0.289491  -0.142703  0.024105  3.552485  0.032
O  O40  1  0.84493912  0.31822905  0.84079666  1  -0.18397  -0.012682  2.196903  -0.016  -0.121459  -0.012652  2.44821  -0.017  -0.137774  -0.010071  2.455232  -0.014  -0.111398  -0.108884  -0.00833  2.443797  -0.011
O  O41  1  0.15508792  0.68178419  0.15920746  1  -0.184055  0.012683  2.196643  0.016  -0.121465  0.012658  2.447921  0.017  -0.137807  0.010076  2.454965  0.014  -0.111432  -0.108858  0.008334  2.443498  0.011
O  O42  1  0.42100939  0.68034101  0.54523218  1  -0.571896  -0.049841  2.120312  -0.067  -0.544159  -0.055051  2.429228  -0.08  -0.588837  -0.047274  2.421776  -0.072  -0.340039  -0.515513  -0.034712  2.436142  -0.049
O  O43  1  0.57897565  0.31964717  0.45477120  1  -0.571807  0.049841  2.120175  0.067  -0.544062  0.055044  2.429211  0.08  -0.588742  0.047269  2.421763  0.072  -0.340078  -0.515425  0.034709  2.436155  0.049
O  O44  1  0.09862499  0.39524171  0.58683361  1  -0.581749  -0.010679  2.21637  -0.015  -0.562221  -0.010355  2.573975  -0.016  -0.628458  -0.008887  2.576541  -0.014  -0.402547  -0.511456  -0.006396  2.569712  -0.009
O  O45  1  0.90137032  0.60476185  0.41317079  1  -0.581656  0.010688  2.216291  0.015  -0.562145  0.010363  2.573906  0.016  -0.62838  0.008882  2.576488  0.014  -0.402506  -0.511379  0.006408  2.569646  0.009
