# generated using pymatgen
data_ZnH8(C2N)6
_symmetry_space_group_name_H-M   'P 1'
_cell_length_a   9.56285266
_cell_length_b   10.17355573
_cell_length_c   12.43134071
_cell_angle_alpha   90.00003810
_cell_angle_beta   90.00002346
_cell_angle_gamma   90.00001606
_symmetry_Int_Tables_number   1
_chemical_formula_structural   ZnH8(C2N)6
_chemical_formula_sum   'Zn4 H32 C48 N24'
_cell_volume   1209.42294057
_cell_formula_units_Z   4
loop_
 _symmetry_equiv_pos_site_id
 _symmetry_equiv_pos_as_xyz
  1  'x, y, z'
loop_
 _atom_site_type_symbol
 _atom_site_label
 _atom_site_symmetry_multiplicity
 _atom_site_fract_x
 _atom_site_fract_y
 _atom_site_fract_z
 _atom_site_occupancy
 _atom_site_hle17_bader_spin_density
 _atom_site_hle17_ddec_charge
 _atom_site_hle17_ddec_spin_density
 _atom_site_hle17_ddec_sum_bond_order
 _atom_site_hle17_magmom
 _atom_site_hse06_10hf_bader_spin_density
 _atom_site_hse06_10hf_ddec_charge
 _atom_site_hse06_10hf_ddec_spin_density
 _atom_site_hse06_10hf_ddec_sum_bond_order
 _atom_site_hse06_10hf_magmom
 _atom_site_hse06_bader_spin_density
 _atom_site_hse06_ddec_charge
 _atom_site_hse06_ddec_spin_density
 _atom_site_hse06_ddec_sum_bond_order
 _atom_site_hse06_magmom
 _atom_site_pbe_bader_spin_density
 _atom_site_pbe_cm5_charge
 _atom_site_pbe_ddec_charge
 _atom_site_pbe_ddec_spin_density
 _atom_site_pbe_ddec_sum_bond_order
 _atom_site_pbe_magmom
Zn  Zn0  1  0.44801497  0.17303312  0.36789929  1  0  0.89826  0  1.997976  0  0  0.695452  0  2.47997  0  0  0.733832  0  2.438256  0  0  0.723379  0.6695  0  2.507627  0
Zn  Zn1  1  0.05198589  0.82696688  0.86789938  1  0  0.898255  0  1.997969  0  0  0.695453  0  2.479965  0  0  0.733837  0  2.438254  0  0  0.723382  0.669504  0  2.507621  0
Zn  Zn2  1  0.55198501  0.67303325  0.13210026  1  0  0.898285  0  1.99795  0  0  0.695469  0  2.479962  0  0  0.733869  0  2.438257  0  0  0.723384  0.669508  0  2.50761  0
Zn  Zn3  1  0.94801441  0.32696669  0.63210020  1  0  0.89828  0  1.997972  0  0  0.695462  0  2.479994  0  0  0.733857  0  2.43829  0  0  0.723389  0.669509  0  2.507649  0
H  H4  1  0.24519794  0.20130943  0.56862179  1  0  0.080143  0  0.968937  0  0  0.085381  0  1.039265  0  0  0.08834  0  1.035621  0  0  0.124711  0.083373  0  1.041446  0
H  H5  1  0.25480277  0.79869033  0.06862117  1  0  0.080158  0  0.9689  0  0  0.085404  0  1.039219  0  0  0.088363  0  1.035573  0  0  0.124721  0.083394  0  1.0414  0
H  H6  1  0.75480232  0.70130985  0.93137773  1  0  0.080148  0  0.968935  0  0  0.085392  0  1.039258  0  0  0.088351  0  1.035615  0  0  0.124714  0.083383  0  1.041439  0
H  H7  1  0.74519725  0.29868935  0.43137925  1  0  0.080167  0  0.968916  0  0  0.085413  0  1.039233  0  0  0.088372  0  1.035587  0  0  0.124732  0.083404  0  1.041415  0
H  H8  1  0.86025077  0.52205859  0.23256570  1  0  0.065054  0  0.957087  0  0  0.072715  0  1.022765  0  0  0.074516  0  1.022254  0  0  0.102684  0.071364  0  1.023199  0
H  H9  1  0.63974974  0.47794144  0.73256562  1  0  0.065063  0  0.957114  0  0  0.072725  0  1.022788  0  0  0.074527  0  1.022278  0  0  0.102695  0.071376  0  1.023223  0
H  H10  1  0.13975021  0.02205928  0.26743458  1  0  0.065029  0  0.957104  0  0  0.072687  0  1.022783  0  0  0.074489  0  1.022275  0  0  0.102676  0.071339  0  1.023218  0
H  H11  1  0.36024955  0.97794163  0.76743484  1  0  0.065045  0  0.95716  0  0  0.072704  0  1.02284  0  0  0.074505  0  1.022333  0  0  0.102683  0.071355  0  1.023274  0
H  H12  1  0.05310454  0.46212363  0.10811558  1  0  0.097203  0  0.948838  0  0  0.109922  0  1.00373  0  0  0.112727  0  1.003761  0  0  0.100643  0.107865  0  1.00407  0
H  H13  1  0.44689618  0.53787616  0.60811564  1  0  0.097199  0  0.948838  0  0  0.109917  0  1.003732  0  0  0.112723  0  1.003761  0  0  0.100643  0.107861  0  1.004072  0
H  H14  1  0.94689552  0.96212407  0.39188413  1  0  0.09721  0  0.948838  0  0  0.10993  0  1.003729  0  0  0.112736  0  1.003757  0  0  0.100646  0.107874  0  1.00407  0
H  H15  1  0.55310403  0.03787608  0.89188459  1  0  0.097243  0  0.9488  0  0  0.109949  0  1.003706  0  0  0.112753  0  1.003738  0  0  0.10066  0.107891  0  1.004046  0
H  H16  1  0.25310449  0.32483933  0.17335874  1  0  0.094377  0  0.985594  0  0  0.103709  0  1.050574  0  0  0.105902  0  1.049958  0  0  0.101016  0.102299  0  1.050833  0
H  H17  1  0.24689523  0.67516051  0.67335881  1  0  0.094379  0  0.985598  0  0  0.10371  0  1.050577  0  0  0.105903  0  1.049961  0  0  0.10102  0.102299  0  1.050841  0
H  H18  1  0.74689554  0.82483967  0.32664089  1  0  0.094369  0  0.985569  0  0  0.103695  0  1.050559  0  0  0.105888  0  1.049943  0  0  0.101005  0.102284  0  1.050819  0
H  H19  1  0.75310502  0.17515945  0.82664149  1  0  0.094342  0  0.985584  0  0  0.103697  0  1.050541  0  0  0.105891  0  1.049925  0  0  0.100993  0.102287  0  1.050803  0
H  H20  1  0.56872589  0.97118862  0.19751887  1  0  0.078566  0  0.98961  0  0  0.079386  0  1.066602  0  0  0.083196  0  1.061814  0  0  0.121393  0.076443  0  1.07043  0
H  H21  1  0.93127565  0.02881138  0.69751864  1  0  0.078527  0  0.989673  0  0  0.079349  0  1.066664  0  0  0.08316  0  1.061874  0  0  0.121365  0.076407  0  1.070492  0
H  H22  1  0.43127523  0.47118844  0.30248084  1  0  0.078553  0  0.98962  0  0  0.079379  0  1.06661  0  0  0.083187  0  1.061822  0  0  0.121384  0.076435  0  1.070438  0
H  H23  1  0.06872560  0.52881053  0.80248077  1  0  0.07856  0  0.98961  0  0  0.079377  0  1.066604  0  0  0.083187  0  1.061816  0  0  0.121395  0.076435  0  1.070431  0
H  H24  1  0.23206388  0.98131496  0.51050035  1  0  0.101906  0  0.967529  0  0  0.10873  0  1.036566  0  0  0.111927  0  1.033444  0  0  0.104099  0.106643  0  1.038409  0
H  H25  1  0.26793575  0.01868574  0.01050012  1  0  0.101912  0  0.967535  0  0  0.108737  0  1.036568  0  0  0.111933  0  1.033445  0  0  0.1041  0.106648  0  1.03841  0
H  H26  1  0.76793541  0.48131600  0.98949932  1  0  0.101948  0  0.967484  0  0  0.108762  0  1.036537  0  0  0.11196  0  1.033411  0  0  0.104101  0.106673  0  1.038379  0
H  H27  1  0.73206314  0.51868424  0.48950015  1  0  0.101906  0  0.967508  0  0  0.108728  0  1.03655  0  0  0.111925  0  1.033425  0  0  0.104093  0.10664  0  1.038391  0
H  H28  1  0.10594982  0.76998865  0.55193667  1  0  0.095931  0  0.970304  0  0  0.107268  0  1.02782  0  0  0.109617  0  1.028511  0  0  0.099459  0.105601  0  1.027516  0
H  H29  1  0.39405088  0.23001110  0.05193821  1  0  0.095988  0  0.970249  0  0  0.10732  0  1.027755  0  0  0.10967  0  1.028447  0  0  0.099481  0.105623  0  1.027486  0
H  H30  1  0.89405046  0.26998870  0.94806288  1  0  0.095932  0  0.9703  0  0  0.107271  0  1.027817  0  0  0.109619  0  1.028511  0  0  0.099459  0.105604  0  1.027513  0
H  H31  1  0.60594912  0.73001052  0.44806218  1  0  0.095946  0  0.970254  0  0  0.107283  0  1.027763  0  0  0.109631  0  1.028455  0  0  0.099467  0.105594  0  1.027482  0
H  H32  1  0.16542783  0.56671849  0.45248235  1  0  0.067594  0  0.965223  0  0  0.075006  0  1.029987  0  0  0.07693  0  1.029597  0  0  0.104419  0.073832  0  1.030036  0
H  H33  1  0.33457203  0.43328257  0.95248311  1  0  0.06756  0  0.965239  0  0  0.074977  0  1.030007  0  0  0.0769  0  1.029618  0  0  0.104404  0.073803  0  1.030055  0
H  H34  1  0.83457317  0.06671918  0.04751795  1  0  0.067577  0  0.965237  0  0  0.07498  0  1.030007  0  0  0.076906  0  1.029609  0  0  0.104421  0.073809  0  1.030053  0
H  H35  1  0.66542934  0.93328168  0.54751652  1  0  0.067596  0  0.965227  0  0  0.074998  0  1.029998  0  0  0.076919  0  1.029619  0  0  0.104417  0.073827  0  1.030045  0
C  C36  1  0.19635790  0.24729332  0.49893502  1  0  0.248168  0  3.727829  0  0  0.194321  0  3.994498  0  0  0.210532  0  4.00638  0  0  0.139796  0.183999  0  3.985651  0
C  C37  1  0.30364199  0.75270680  0.99893595  1  0  0.248122  0  3.727782  0  0  0.194275  0  3.994461  0  0  0.210487  0  4.006341  0  0  0.13977  0.183954  0  3.98561  0
C  C38  1  0.80364211  0.74729439  0.00106458  1  0  0.248147  0  3.727902  0  0  0.194294  0  3.994572  0  0  0.210504  0  4.006455  0  0  0.139781  0.18397  0  3.985723  0
C  C39  1  0.69635828  0.25270545  0.50106440  1  0  0.248115  0  3.727835  0  0  0.194267  0  3.994501  0  0  0.210478  0  4.006383  0  0  0.139778  0.183946  0  3.985653  0
C  C40  1  0.04901273  0.35347442  0.39891605  1  0  0.284788  0  3.857993  0  0  0.268688  0  4.112036  0  0  0.278268  0  4.131474  0  0  0.200636  0.262251  0  4.098295  0
C  C41  1  0.45098710  0.64652561  0.89891616  1  0  0.284891  0  3.857955  0  0  0.268789  0  4.111991  0  0  0.278367  0  4.13143  0  0  0.200679  0.262351  0  4.098251  0
C  C42  1  0.95098730  0.85347463  0.10108361  1  0  0.284867  0  3.857861  0  0  0.268713  0  4.111971  0  0  0.278293  0  4.131408  0  0  0.200635  0.262276  0  4.09823  0
C  C43  1  0.54901314  0.14652529  0.60108413  1  0  0.284999  0  3.857754  0  0  0.268851  0  4.111845  0  0  0.278429  0  4.131282  0  0  0.200708  0.262413  0  4.098108  0
C  C44  1  0.94688496  0.46200094  0.26164623  1  0  0.118349  0  3.747744  0  0  0.091394  0  4.011226  0  0  0.097658  0  4.029541  0  0  0.032251  0.087253  0  3.998961  0
C  C45  1  0.55311557  0.53799812  0.76164616  1  0  0.118355  0  3.747722  0  0  0.091399  0  4.011203  0  0  0.097664  0  4.02952  0  0  0.032241  0.087257  0  3.998943  0
C  C46  1  0.05311511  0.96200103  0.23835429  1  0  0.118412  0  3.747727  0  0  0.091459  0  4.011204  0  0  0.097724  0  4.029519  0  0  0.032275  0.087318  0  3.998942  0
C  C47  1  0.44688359  0.03799887  0.73835407  1  0  0.118333  0  3.747814  0  0  0.091376  0  4.011292  0  0  0.097641  0  4.029606  0  0  0.032235  0.087235  0  3.999028  0
C  C48  1  0.05672691  0.42870172  0.19135760  1  0  -0.129177  0  3.773096  0  0  -0.144331  0  4.027348  0  0  -0.151193  0  4.050414  0  0  -0.097953  -0.140435  0  4.012913  0
C  C49  1  0.44327281  0.57129814  0.69135767  1  0  -0.129175  0  3.77305  0  0  -0.144327  0  4.027302  0  0  -0.15119  0  4.050369  0  0  -0.097948  -0.140433  0  4.012872  0
C  C50  1  0.94327315  0.92870210  0.30864209  1  0  -0.129203  0  3.773116  0  0  -0.144363  0  4.027364  0  0  -0.151223  0  4.050429  0  0  -0.097956  -0.140467  0  4.012932  0
C  C51  1  0.55672636  0.07129897  0.80864257  1  0  -0.129153  0  3.772982  0  0  -0.144293  0  4.027235  0  0  -0.151155  0  4.050303  0  0  -0.097929  -0.140396  0  4.012801  0
C  C52  1  0.16873951  0.35303401  0.22722018  1  0  -0.094257  0  3.748677  0  0  -0.115693  0  3.998453  0  0  -0.114475  0  4.017705  0  0  -0.07911  -0.116758  0  3.985948  0
C  C53  1  0.33126023  0.64696490  0.72721946  1  0  -0.094243  0  3.748695  0  0  -0.115679  0  3.998462  0  0  -0.114462  0  4.017714  0  0  -0.079119  -0.116744  0  3.985958  0
C  C54  1  0.83126052  0.85303432  0.27277947  1  0  -0.094244  0  3.74868  0  0  -0.115669  0  3.998447  0  0  -0.114454  0  4.017698  0  0  -0.079095  -0.116738  0  3.985942  0
C  C55  1  0.66874001  0.14696475  0.77278003  1  0  -0.094291  0  3.748645  0  0  -0.115751  0  3.998408  0  0  -0.114533  0  4.017659  0  0  -0.079135  -0.116816  0  3.985903  0
C  C56  1  0.16599454  0.31635071  0.33531954  1  0  0.100854  0  3.834438  0  0  0.101374  0  4.072892  0  0  0.101345  0  4.097631  0  0  0.082335  0.101555  0  4.055947  0
C  C57  1  0.33400631  0.68364828  0.83531883  1  0  0.100773  0  3.834485  0  0  0.101309  0  4.07293  0  0  0.101281  0  4.097669  0  0  0.08233  0.101492  0  4.055984  0
C  C58  1  0.83400549  0.81635094  0.16468090  1  0  0.100836  0  3.834418  0  0  0.101373  0  4.072873  0  0  0.101346  0  4.097613  0  0  0.082338  0.101555  0  4.055926  0
C  C59  1  0.66599394  0.18364903  0.66468148  1  0  0.100763  0  3.83449  0  0  0.101312  0  4.072942  0  0  0.101284  0  4.09768  0  0  0.082331  0.101494  0  4.055997  0
C  C60  1  0.49538272  0.91992239  0.25022998  1  0  0.250202  0  3.714823  0  0  0.198416  0  3.979902  0  0  0.214621  0  3.99124  0  0  0.140061  0.187578  0  3.972331  0
C  C61  1  0.00461704  0.08007850  0.75023045  1  0  0.250224  0  3.714961  0  0  0.198439  0  3.980029  0  0  0.214643  0  3.991371  0  0  0.140071  0.1876  0  3.972463  0
C  C62  1  0.50461734  0.41992218  0.24977052  1  0  0.250206  0  3.714845  0  0  0.19841  0  3.979927  0  0  0.214617  0  3.991265  0  0  0.140053  0.187574  0  3.972358  0
C  C63  1  0.99538319  0.58007786  0.74976981  1  0  0.25023  0  3.714763  0  0  0.19845  0  3.979844  0  0  0.214654  0  3.991186  0  0  0.140069  0.187612  0  3.972277  0
C  C64  1  0.34662379  0.88830614  0.37978234  1  0  0.0989  0  3.837817  0  0  0.097798  0  4.081096  0  0  0.09778  0  4.105744  0  0  0.081974  0.097278  0  4.064725  0
C  C65  1  0.15337603  0.11169387  0.87978288  1  0  0.098914  0  3.837946  0  0  0.097812  0  4.081231  0  0  0.097797  0  4.10588  0  0  0.081961  0.097292  0  4.06486  0
C  C66  1  0.65337626  0.38830685  0.12021733  1  0  0.098874  0  3.837829  0  0  0.097752  0  4.081132  0  0  0.097734  0  4.105783  0  0  0.081928  0.097231  0  4.06476  0
C  C67  1  0.84662420  0.61169407  0.62021739  1  0  0.098956  0  3.837876  0  0  0.097811  0  4.081151  0  0  0.097801  0  4.105801  0  0  0.081966  0.097292  0  4.06478  0
C  C68  1  0.25191149  0.89194403  0.46502092  1  0  -0.086927  0  3.741483  0  0  -0.110146  0  3.994172  0  0  -0.108162  0  4.011776  0  0  -0.07618  -0.111538  0  3.982214  0
C  C69  1  0.24808942  0.10805606  0.96502068  1  0  -0.086932  0  3.741441  0  0  -0.110157  0  3.994134  0  0  -0.108167  0  4.011736  0  0  -0.076165  -0.11154  0  3.98216  0
C  C70  1  0.74808856  0.39194371  0.03497714  1  0  -0.08696  0  3.74137  0  0  -0.110171  0  3.99406  0  0  -0.108182  0  4.01166  0  0  -0.076169  -0.111558  0  3.982103  0
C  C71  1  0.75191080  0.60805616  0.53497959  1  0  -0.086922  0  3.741426  0  0  -0.110147  0  3.994127  0  0  -0.108157  0  4.011727  0  0  -0.076161  -0.111532  0  3.98216  0
C  C72  1  0.18507786  0.77383979  0.48888797  1  0  -0.141545  0  3.781668  0  0  -0.152385  0  4.032476  0  0  -0.159432  0  4.055359  0  0  -0.099773  -0.147489  0  4.017055  0
C  C73  1  0.31492306  0.22616228  0.98888782  1  0  -0.141619  0  3.781564  0  0  -0.152439  0  4.032374  0  0  -0.159492  0  4.055254  0  0  -0.099824  -0.147525  0  4.016961  0
C  C74  1  0.81492319  0.27383947  0.01111324  1  0  -0.141548  0  3.781645  0  0  -0.152386  0  4.03245  0  0  -0.159437  0  4.055332  0  0  -0.099768  -0.147494  0  4.017029  0
C  C75  1  0.68507720  0.72616136  0.51111251  1  0  -0.141548  0  3.781594  0  0  -0.152367  0  4.032386  0  0  -0.159421  0  4.055269  0  0  -0.099772  -0.147461  0  4.01697  0
C  C76  1  0.21764866  0.65857427  0.43159646  1  0  0.116638  0  3.740614  0  0  0.089932  0  4.003093  0  0  0.096313  0  4.020589  0  0  0.031868  0.085998  0  3.990696  0
C  C77  1  0.28235119  0.34142775  0.93159716  1  0  0.1167  0  3.740463  0  0  0.089976  0  4.002962  0  0  0.096358  0  4.020457  0  0  0.031906  0.086045  0  3.990556  0
C  C78  1  0.78235132  0.15857399  0.06840389  1  0  0.116696  0  3.740516  0  0  0.09  0  4.002995  0  0  0.096383  0  4.020492  0  0  0.031883  0.086064  0  3.990601  0
C  C79  1  0.71764910  0.84142689  0.56840323  1  0  0.116648  0  3.740572  0  0  0.089947  0  4.00306  0  0  0.096327  0  4.020553  0  0  0.031877  0.086014  0  3.990657  0
C  C80  1  0.37080796  0.76709776  0.32591282  1  0  0.285705  0  3.851914  0  0  0.268418  0  4.108319  0  0  0.278142  0  4.127858  0  0  0.201119  0.26203  0  4.094947  0
C  C81  1  0.12919288  0.23290122  0.82591422  1  0  0.28566  0  3.85193  0  0  0.268366  0  4.10835  0  0  0.278087  0  4.127891  0  0  0.201114  0.261975  0  4.094984  0
C  C82  1  0.62919205  0.26709949  0.17408678  1  0  0.285687  0  3.851877  0  0  0.268406  0  4.108283  0  0  0.278128  0  4.127824  0  0  0.201116  0.262019  0  4.094913  0
C  C83  1  0.87080844  0.73290245  0.67408531  1  0  0.285529  0  3.852133  0  0  0.268357  0  4.108419  0  0  0.278065  0  4.127969  0  0  0.201102  0.261965  0  4.095051  0
N  N84  1  0.07076045  0.30726545  0.50231357  1  0  -0.48377  0  3.245373  0  0  -0.40303  0  3.544695  0  0  -0.425367  0  3.553658  0  0  -0.374328  -0.388119  0  3.538185  0
N  N85  1  0.42923918  0.69273426  0.00231296  1  0  -0.483827  0  3.245385  0  0  -0.403089  0  3.544715  0  0  -0.425426  0  3.553677  0  0  -0.374376  -0.388178  0  3.538201  0
N  N86  1  0.92923984  0.80726499  0.99768600  1  0  -0.48385  0  3.245379  0  0  -0.403096  0  3.544712  0  0  -0.425427  0  3.553667  0  0  -0.374371  -0.388186  0  3.538203  0
N  N87  1  0.57076081  0.19273329  0.49768661  1  0  -0.483872  0  3.245313  0  0  -0.403116  0  3.544649  0  0  -0.425447  0  3.553603  0  0  -0.374403  -0.388207  0  3.53814  0
N  N88  1  0.25831637  0.24875000  0.40128909  1  0  -0.452055  0  3.242416  0  0  -0.369704  0  3.537066  0  0  -0.391285  0  3.548835  0  0  -0.372286  -0.355149  0  3.528195  0
N  N89  1  0.24168347  0.75124905  0.90128919  1  0  -0.451991  0  3.242359  0  0  -0.369663  0  3.537026  0  0  -0.391246  0  3.548798  0  0  -0.372275  -0.355111  0  3.528156  0
N  N90  1  0.74168363  0.74875015  0.09871051  1  0  -0.452026  0  3.242402  0  0  -0.369672  0  3.537042  0  0  -0.391258  0  3.548823  0  0  -0.37227  -0.355114  0  3.528166  0
N  N91  1  0.75831576  0.25124878  0.59871115  1  0  -0.452  0  3.242392  0  0  -0.369659  0  3.537042  0  0  -0.391244  0  3.548819  0  0  -0.372276  -0.355104  0  3.528169  0
N  N92  1  0.42745114  0.98356781  0.32967757  1  0  -0.445664  0  3.255061  0  0  -0.363333  0  3.553633  0  0  -0.384403  0  3.563804  0  0  -0.372176  -0.349071  0  3.546384  0
N  N93  1  0.07254970  0.01643413  0.82967722  1  0  -0.445652  0  3.255187  0  0  -0.36332  0  3.553751  0  0  -0.384397  0  3.563927  0  0  -0.372162  -0.349062  0  3.546503  0
N  N94  1  0.57254894  0.48356657  0.17032296  1  0  -0.445655  0  3.255169  0  0  -0.363305  0  3.553732  0  0  -0.384387  0  3.563918  0  0  -0.372144  -0.349042  0  3.546477  0
N  N95  1  0.92745154  0.51643340  0.67032219  1  0  -0.445681  0  3.255072  0  0  -0.363338  0  3.553645  0  0  -0.384418  0  3.563826  0  0  -0.372176  -0.349078  0  3.546395  0
N  N96  1  0.46691421  0.78994030  0.24439549  1  0  -0.486432  0  3.217874  0  0  -0.404055  0  3.516401  0  0  -0.426364  0  3.524657  0  0  -0.373408  -0.389036  0  3.510219  0
N  N97  1  0.03308555  0.21006059  0.74439523  1  0  -0.486414  0  3.217917  0  0  -0.404034  0  3.516447  0  0  -0.426343  0  3.524705  0  0  -0.373396  -0.389018  0  3.510274  0
N  N98  1  0.53308581  0.28994010  0.25560493  1  0  -0.486424  0  3.217869  0  0  -0.404044  0  3.516391  0  0  -0.426349  0  3.524641  0  0  -0.37341  -0.389029  0  3.510216  0
N  N99  1  0.96691471  0.71005994  0.75560348  1  0  -0.486376  0  3.217923  0  0  -0.404045  0  3.516431  0  0  -0.426347  0  3.524687  0  0  -0.373398  -0.389031  0  3.510259  0
N  N100  1  0.93940813  0.42379016  0.36483380  1  0  -0.384862  0  3.075098  0  0  -0.346244  0  3.34246  0  0  -0.35914  0  3.356199  0  0  -0.324468  -0.337091  0  3.332492  0
N  N101  1  0.56059245  0.57620998  0.86483375  1  0  -0.384888  0  3.075091  0  0  -0.346266  0  3.342449  0  0  -0.359163  0  3.356188  0  0  -0.324462  -0.337112  0  3.332481  0
N  N102  1  0.06059193  0.92379016  0.13516670  1  0  -0.384896  0  3.075055  0  0  -0.346254  0  3.34243  0  0  -0.359156  0  3.356175  0  0  -0.324461  -0.337104  0  3.332464  0
N  N103  1  0.43940777  0.07620966  0.63516650  1  0  -0.384885  0  3.075045  0  0  -0.34625  0  3.342421  0  0  -0.359144  0  3.356158  0  0  -0.324448  -0.337096  0  3.332454  0
N  N104  1  0.31072755  0.65231489  0.35084171  1  0  -0.377957  0  3.076665  0  0  -0.338999  0  3.340703  0  0  -0.351841  0  3.354945  0  0  -0.32217  -0.33018  0  3.330569  0
N  N105  1  0.18927225  0.34768609  0.85084158  1  0  -0.377944  0  3.076547  0  0  -0.338978  0  3.340587  0  0  -0.351816  0  3.354831  0  0  -0.322156  -0.330155  0  3.330455  0
N  N106  1  0.68927242  0.15231563  0.14915944  1  0  -0.377965  0  3.076593  0  0  -0.339012  0  3.340624  0  0  -0.351852  0  3.354867  0  0  -0.322161  -0.330189  0  3.330491  0
N  N107  1  0.81072805  0.84768630  0.64915801  1  0  -0.377924  0  3.076647  0  0  -0.339009  0  3.340653  0  0  -0.351842  0  3.354898  0  0  -0.322181  -0.330186  0  3.33052  0
