# generated using pymatgen
data_ZnCu2H24C12(NO6)2
_symmetry_space_group_name_H-M   'P 1'
_cell_length_a   8.23116088
_cell_length_b   12.06237873
_cell_length_c   12.06654556
_cell_angle_alpha   88.35204025
_cell_angle_beta   74.51229831
_cell_angle_gamma   74.43984057
_symmetry_Int_Tables_number   1
_chemical_formula_structural   ZnCu2H24C12(NO6)2
_chemical_formula_sum   'Zn2 Cu4 H48 C24 N4 O24'
_cell_volume   1111.04989897
_cell_formula_units_Z   2
loop_
 _symmetry_equiv_pos_site_id
 _symmetry_equiv_pos_as_xyz
  1  'x, y, z'
loop_
 _atom_site_type_symbol
 _atom_site_label
 _atom_site_symmetry_multiplicity
 _atom_site_fract_x
 _atom_site_fract_y
 _atom_site_fract_z
 _atom_site_occupancy
 _atom_site_hle17_ddec_charge
 _atom_site_hle17_ddec_spin_density
 _atom_site_hle17_ddec_sum_bond_order
 _atom_site_hle17_magmom
 _atom_site_hse06_10hf_bader_charge
 _atom_site_hse06_10hf_bader_spin_density
 _atom_site_hse06_10hf_ddec_charge
 _atom_site_hse06_10hf_ddec_spin_density
 _atom_site_hse06_10hf_ddec_sum_bond_order
 _atom_site_hse06_10hf_magmom
 _atom_site_hse06_ddec_charge
 _atom_site_hse06_ddec_spin_density
 _atom_site_hse06_ddec_sum_bond_order
 _atom_site_hse06_magmom
 _atom_site_pbe_cm5_charge
 _atom_site_pbe_ddec_charge
 _atom_site_pbe_ddec_spin_density
 _atom_site_pbe_ddec_sum_bond_order
 _atom_site_pbe_magmom
Zn  Zn0  1  0.75009484  0.45379535  0.54603109  1  1.051628  7.8e-05  1.77865  0.0  1.240678  -3e-06  0.8788  2.7e-05  2.235106  0.0  0.9211  2e-05  2.183742  0.0  0.673385  0.849198  4.1e-05  2.270287  0.0
Zn  Zn1  1  0.24992347  0.54619872  0.45396553  1  1.051468  -8e-05  1.778823  0.0  1.240669  4e-06  0.878657  -2.6e-05  2.235284  0.0  0.920955  -2e-05  2.183916  0.0  0.673335  0.849051  -4.1e-05  2.270463  0.0
Cu  Cu2  1  0.93644513  0.09873750  0.46274383  1  0.914205  0.681368  1.840275  0.493  1.161412  0.646214  0.907573  0.805884  2.246525  0.642  1.018694  0.892503  2.142262  0.741  0.682425  0.838624  0.710172  2.311249  0.553
Cu  Cu3  1  0.56331415  0.53733982  0.90124556  1  0.913862  0.681471  1.841337  0.493  1.162448  0.646232  0.906959  0.80611  2.247907  0.642  1.018418  0.892628  2.142924  0.74  0.682482  0.837849  0.710198  2.312772  0.553
Cu  Cu4  1  0.06355249  0.90126681  0.53726624  1  0.914028  -0.681332  1.840338  -0.493  1.16158  -0.646211  0.907444  -0.805882  2.246565  -0.642  1.018644  -0.892503  2.142198  -0.741  0.68236  0.838496  -0.71015  2.311185  -0.553
Cu  Cu5  1  0.43667256  0.46265129  0.09874965  1  0.913956  -0.681513  1.841077  -0.494  1.16282  -0.646238  0.907124  -0.806106  2.247498  -0.642  1.018622  -0.892644  2.142574  -0.74  0.682572  0.838166  -0.71023  2.312242  -0.553
H  H6  1  0.43626361  0.82757846  0.17395391  1  0.141582  0.001172  0.933608  0.001  0.076897  0.001837  0.162736  0.000847  0.985175  0.001  0.164584  0.000574  0.985063  0.001  0.101044  0.161235  0.000985  0.985336  0.001
H  H7  1  0.06374404  0.82547102  0.17238553  1  0.141511  0.001176  0.933789  0.001  0.074012  0.001845  0.162689  0.000849  0.985381  0.001  0.164542  0.000576  0.985247  0.001  0.101106  0.161184  0.000988  0.985554  0.001
H  H8  1  0.56372061  0.17243853  0.82603335  1  0.141481  -0.00117  0.933578  -0.001  0.076667  -0.001837  0.162718  -0.000847  0.985042  -0.001  0.164568  -0.000574  0.984924  -0.001  0.100954  0.161213  -0.000985  0.985209  -0.001
H  H9  1  0.93629021  0.17452409  0.82760888  1  0.141538  -0.001173  0.933987  -0.001  0.074175  -0.001843  0.162722  -0.000848  0.985509  -0.001  0.164578  -0.000575  0.985374  -0.001  0.101112  0.161216  -0.000987  0.985682  -0.001
H  H10  1  0.48293130  0.95875079  0.20146510  1  0.137064  -0.000241  0.944485  0.0  0.084073  -0.000311  0.156566  -0.000178  1.003123  0.0  0.158211  -0.000126  1.003253  0.0  0.105354  0.155376  -0.000206  1.002955  0.0
H  H11  1  0.01750518  0.79874073  0.04083594  1  0.137041  -0.000245  0.94376  0.0  0.085254  -0.000318  0.15682  -0.000181  1.002066  0.0  0.158474  -0.000127  1.002178  0.0  0.105659  0.155612  -0.00021  1.001922  0.0
H  H12  1  0.51706899  0.04126730  0.79852987  1  0.137074  0.000244  0.94452  0.0  0.083576  0.000313  0.156582  0.000179  1.003157  0.0  0.158226  0.000126  1.003291  0.0  0.105337  0.155389  0.000207  1.002992  0.0
H  H13  1  0.98248930  0.20125924  0.95917654  1  0.136981  0.000246  0.943869  0.0  0.085625  0.000317  0.156768  0.000181  1.002164  0.0  0.158421  0.000127  1.002277  0.0  0.10559  0.155561  0.000209  1.00202  0.0
H  H14  1  0.33091348  0.96157232  0.12144857  1  0.13836  -0.000931  0.934558  -0.001  0.068934  -0.001363  0.157878  -0.000653  0.989422  -0.001  0.159841  -0.000442  0.988996  0.0  0.102999  0.156293  -0.00076  0.989789  -0.001
H  H15  1  0.16945658  0.87850330  0.03900578  1  0.138202  -0.000928  0.935073  -0.001  0.07252  -0.001363  0.157694  -0.000654  0.990049  -0.001  0.159665  -0.000442  0.989609  0.0  0.102932  0.156112  -0.000761  0.99042  -0.001
H  H16  1  0.66905800  0.03846026  0.87856287  1  0.138454  0.000932  0.934668  0.001  0.06976  0.00136  0.157968  0.000653  0.989515  0.001  0.159935  0.000441  0.989084  0.0  0.103028  0.156382  0.00076  0.989884  0.001
H  H17  1  0.83056713  0.12148386  0.96098262  1  0.138227  0.000931  0.934995  0.001  0.072524  0.001363  0.157693  0.000654  0.990001  0.001  0.159659  0.000442  0.989567  0.0  0.102915  0.156112  0.000762  0.990372  0.001
H  H18  1  0.53037573  0.91188691  0.42826610  1  0.153103  -0.000556  0.938076  -0.001  0.077694  -0.000734  0.172028  -0.000348  0.994686  0.0  0.174055  -0.000218  0.995123  0.0  0.105994  0.170512  -0.000423  0.994363  0.0
H  H19  1  0.96975349  0.57159405  0.08822812  1  0.153641  -0.000553  0.9374  -0.001  0.076334  -0.000726  0.172394  -0.000344  0.994265  0.0  0.174427  -0.000216  0.994681  0.0  0.106027  0.170872  -0.000418  0.993957  0.0
H  H20  1  0.46959172  0.08814656  0.57175602  1  0.153136  0.000556  0.937966  0.001  0.076423  0.000734  0.172002  0.000347  0.994659  0.0  0.174026  0.000217  0.995101  0.0  0.10596  0.170487  0.000423  0.994339  0.0
H  H21  1  0.03022147  0.42842114  0.91176426  1  0.153659  0.00055  0.937596  0.001  0.076498  0.000726  0.17239  0.000345  0.994497  0.0  0.174426  0.000216  0.994915  0.0  0.106024  0.170866  0.000419  0.994189  0.0
H  H22  1  0.69110622  0.77728561  0.39160892  1  0.146207  0.001366  0.953597  0.002  0.100086  0.002031  0.16064  0.000942  1.016368  0.001  0.163005  0.000634  1.01548  0.001  0.100898  0.158659  0.001112  1.017188  0.001
H  H23  1  0.80919466  0.60915878  0.22250759  1  0.146001  0.001368  0.953888  0.002  0.101453  0.002043  0.160756  0.000948  1.016206  0.001  0.16309  0.000637  1.015363  0.001  0.100977  0.158808  0.001117  1.017007  0.001
H  H24  1  0.30884253  0.22273300  0.60842307  1  0.146323  -0.001365  0.953566  -0.002  0.099876  -0.002032  0.160801  -0.000942  1.016241  -0.001  0.163171  -0.000633  1.015361  -0.001  0.100986  0.158823  -0.001112  1.01707  -0.001
H  H25  1  0.19079288  0.39085655  0.77748408  1  0.145877  -0.00137  0.953913  -0.002  0.101271  -0.002043  0.160626  -0.000948  1.016251  -0.001  0.162961  -0.000637  1.015406  -0.001  0.100904  0.158667  -0.001116  1.017061  -0.001
H  H26  1  0.68191329  0.88997851  0.29008513  1  0.127549  -0.000721  0.948287  -0.001  0.031352  -0.000958  0.146845  -0.000441  1.0074  -0.001  0.14862  -0.000298  1.007392  0.0  0.097915  0.145446  -0.000516  1.007421  -0.001
H  H27  1  0.81866059  0.71008834  0.10933871  1  0.127981  -0.000728  0.948635  -0.001  0.030958  -0.000963  0.147194  -0.000444  1.007702  -0.001  0.148939  -0.0003  1.007722  0.0  0.097948  0.145811  -0.000518  1.007713  -0.001
H  H28  1  0.31806248  0.11002996  0.70993719  1  0.127664  0.000722  0.948427  0.001  0.031199  0.00096  0.146978  0.000442  1.007499  0.001  0.148755  0.000299  1.007491  0.0  0.09797  0.145578  0.000517  1.00752  0.001
H  H29  1  0.18130501  0.28992498  0.89064887  1  0.127849  0.000725  0.948592  0.001  0.030968  0.000963  0.147119  0.000444  1.007614  0.001  0.148868  0.0003  1.00763  0.0  0.097945  0.145735  0.000518  1.007625  0.001
H  H30  1  0.02980463  0.21515230  0.20116635  1  0.1382  3.3e-05  0.953203  0.0  0.079898  1.5e-05  0.15595  3.1e-05  1.01396  0.0  0.159994  4e-06  1.011188  0.0  0.092785  0.153075  5.7e-05  1.015922  0.0
H  H31  1  0.47094220  0.79869081  0.78499331  1  0.138662  3e-05  0.952688  0.0  0.081433  1.3e-05  0.156483  2.9e-05  1.013265  0.0  0.160491  2e-06  1.010529  0.0  0.093013  0.153607  5.5e-05  1.015227  0.0
H  H32  1  0.97021095  0.78483659  0.79883677  1  0.138224  -3.3e-05  0.953265  0.0  0.080009  -1.5e-05  0.155985  -3.1e-05  1.013984  0.0  0.160028  -3e-06  1.011211  0.0  0.092789  0.153103  -5.7e-05  1.015954  0.0
H  H33  1  0.52906538  0.20129880  0.21500136  1  0.138721  -3e-05  0.95266  0.0  0.081272  -1.3e-05  0.156545  -2.9e-05  1.013245  0.0  0.160546  -2e-06  1.010519  0.0  0.093045  0.153679  -5.5e-05  1.015198  0.0
H  H34  1  0.04564324  0.35942047  0.17051609  1  0.150083  -0.0001  0.958762  0.0  0.077035  -8.4e-05  0.166755  -8.4e-05  1.020899  0.0  0.17105  -4e-05  1.018346  0.0  0.094999  0.163688  -0.000121  1.022718  0.0
H  H35  1  0.45411897  0.82996490  0.64107767  1  0.150074  -0.000101  0.958799  0.0  0.075319  -8.5e-05  0.166737  -8.5e-05  1.02101  0.0  0.171065  -4.1e-05  1.018434  0.0  0.094773  0.163664  -0.000123  1.022833  0.0
H  H36  1  0.95436605  0.64057087  0.82947404  1  0.150116  9.9e-05  0.958673  0.0  0.077098  8.4e-05  0.166766  8.4e-05  1.020841  0.0  0.171059  4e-05  1.018281  0.0  0.094991  0.163697  0.000121  1.022665  0.0
H  H37  1  0.54589139  0.17002993  0.35891710  1  0.150085  0.000102  0.958807  0.0  0.075238  8.5e-05  0.166759  8.5e-05  1.021003  0.0  0.171088  4.1e-05  1.018435  0.0  0.094792  0.163691  0.000123  1.022826  0.0
H  H38  1  0.85117029  0.32060584  0.17014409  1  0.14224  3.1e-05  0.946451  0.0  0.05643  9e-06  0.162176  8e-06  1.005659  0.0  0.165568  2.1e-05  1.004644  0.0  0.097311  0.159787  -7e-06  1.006352  0.0
H  H39  1  0.64906609  0.82987139  0.67956323  1  0.142159  3.1e-05  0.94628  0.0  0.05489  1.1e-05  0.161901  8e-06  1.005757  0.0  0.165313  2.2e-05  1.004727  0.0  0.096957  0.159508  -7e-06  1.006451  0.0
H  H40  1  0.14883510  0.67938034  0.82985940  1  0.14231  -3.2e-05  0.946428  0.0  0.056427  -1e-05  0.162189  -8e-06  1.005674  0.0  0.16558  -2.1e-05  1.004657  0.0  0.097298  0.159804  7e-06  1.006364  0.0
H  H41  1  0.35094463  0.17011394  0.32043348  1  0.142121  -3.1e-05  0.946245  0.0  0.054923  -1.1e-05  0.161883  -8e-06  1.005715  0.0  0.165301  -2.1e-05  1.004679  0.0  0.096949  0.159492  7e-06  1.006406  0.0
H  H42  1  0.48283829  0.37395157  0.55353282  1  0.348407  -1.2e-05  0.9239  0.0  0.498725  -4e-06  0.329584  -1.1e-05  0.991144  0.0  0.336845  -7e-06  0.985162  0.0  0.284106  0.324344  -1.2e-05  0.995513  0.0
H  H43  1  0.01713332  0.44645564  0.62601506  1  0.348379  -1.1e-05  0.924076  0.0  0.499504  -4e-06  0.329589  -1.1e-05  0.991219  0.0  0.336875  -7e-06  0.985197  0.0  0.28412  0.324333  -1.2e-05  0.995618  0.0
H  H44  1  0.51718301  0.62603562  0.44646433  1  0.348343  1.2e-05  0.924031  0.0  0.498726  4e-06  0.329552  1.1e-05  0.991233  0.0  0.336815  7e-06  0.985247  0.0  0.284025  0.32431  1.2e-05  0.995608  0.0
H  H45  1  0.98289161  0.55352900  0.37398149  1  0.348438  1.2e-05  0.924055  0.0  0.499458  4e-06  0.329658  1.1e-05  0.991172  0.0  0.336946  7e-06  0.985147  0.0  0.284204  0.324404  1.2e-05  0.995568  0.0
H  H46  1  0.47033783  0.42095054  0.68631247  1  0.344947  0.000124  0.921426  0.0  0.486903  4.9e-05  0.329756  0.00013  0.983167  0.0  0.337613  5.9e-05  0.976971  0.0  0.283002  0.324174  0.000187  0.987527  0.0
H  H47  1  0.03018451  0.31338374  0.57934132  1  0.345089  0.000126  0.920876  0.0  0.489729  4.9e-05  0.329483  0.000131  0.983185  0.0  0.337327  6e-05  0.97702  0.0  0.282763  0.323914  0.000189  0.987526  0.0
H  H48  1  0.52968121  0.57904181  0.31368325  1  0.344963  -0.000123  0.92136  0.0  0.486717  -4.9e-05  0.32972  -0.00013  0.983169  0.0  0.337579  -5.9e-05  0.976973  0.0  0.282993  0.324142  -0.000187  0.987526  0.0
H  H49  1  0.96981836  0.68660242  0.42066264  1  0.344959  -0.000125  0.921061  0.0  0.489937  -4.9e-05  0.329499  -0.000131  0.983168  0.0  0.337341  -6e-05  0.977001  0.0  0.282719  0.323927  -0.000189  0.987511  0.0
H  H50  1  0.61198848  0.29658901  0.62707981  1  0.34157  7.7e-05  0.913489  0.0  0.47217  4.2e-05  0.330483  9.3e-05  0.968736  0.0  0.338276  3.4e-05  0.962457  0.0  0.284559  0.324926  0.000142  0.973235  0.0
H  H51  1  0.88820920  0.37292380  0.70335423  1  0.341905  7.6e-05  0.912908  0.0  0.469996  4.2e-05  0.33051  9.2e-05  0.968584  0.0  0.338287  3.4e-05  0.962317  0.0  0.284739  0.324963  0.000141  0.973073  0.0
H  H52  1  0.38803365  0.70340514  0.37292107  1  0.341713  -7.7e-05  0.913222  0.0  0.472372  -4.2e-05  0.330554  -9.3e-05  0.968591  0.0  0.338345  -3.4e-05  0.962313  0.0  0.284608  0.324994  -0.000142  0.973089  0.0
H  H53  1  0.11180049  0.62707280  0.29664723  1  0.341862  -7.6e-05  0.912934  0.0  0.469985  -4.2e-05  0.330481  -9.2e-05  0.968597  0.0  0.338259  -3.4e-05  0.962326  0.0  0.284722  0.324934  -0.000141  0.973091  0.0
C  C54  1  0.23555295  0.94581778  0.30432533  1  0.724087  -0.000601  3.830033  -0.001  1.602601  -0.00013  0.69337  -8e-06  4.135508  0.0  0.733618  -2.8e-05  4.130323  0.0  0.214387  0.66574  -5e-06  4.138908  0.0
C  C55  1  0.26457657  0.69542613  0.05412987  1  0.722158  -0.000573  3.832479  -0.001  1.601955  -0.000111  0.691609  -2e-06  4.137393  0.0  0.731876  -2.2e-05  4.132204  0.0  0.213619  0.663959  -0.0  4.140821  0.0
C  C56  1  0.76443541  0.05419587  0.69567370  1  0.724081  0.000611  3.830057  0.001  1.602405  0.000128  0.693339  1e-05  4.135538  0.0  0.733588  2.9e-05  4.130359  0.0  0.214368  0.665717  9e-06  4.138935  0.0
C  C57  1  0.73541445  0.30455815  0.94587224  1  0.722605  0.000581  3.831723  0.001  1.601476  0.000112  0.691698  0.0  4.137195  0.0  0.731964  1.9e-05  4.132009  0.0  0.213658  0.66405  -3e-06  4.140623  0.0
C  C58  1  0.37988356  0.92042020  0.19256983  1  -0.437971  0.000838  3.645427  0.001  -0.121483  0.000322  -0.513935  0.000259  3.875374  0.0  -0.522871  0.000155  3.879442  0.0  -0.235037  -0.506621  0.000301  3.871992  0.0
C  C59  1  0.12035667  0.80727511  0.07960283  1  -0.437163  0.000808  3.646882  0.001  -0.121664  0.000309  -0.513439  0.000253  3.876712  0.0  -0.522348  0.000151  3.880743  0.0  -0.234908  -0.506142  0.000298  3.873371  0.0
C  C60  1  0.62010225  0.07959952  0.80743444  1  -0.437962  -0.000852  3.645326  -0.001  -0.121644  -0.000323  -0.514005  -0.000261  3.875176  0.0  -0.522943  -0.000156  3.87924  0.0  -0.234938  -0.506693  -0.000304  3.871802  0.0
C  C61  1  0.87967237  0.19270868  0.92039133  1  -0.437255  -0.00083  3.646676  -0.001  -0.122141  -0.000317  -0.513403  -0.000257  3.876664  0.0  -0.522317  -0.000152  3.8807  0.0  -0.234825  -0.506109  -0.000303  3.873325  0.0
C  C62  1  0.78860628  0.91869291  0.42593628  1  0.728437  -0.000557  3.817899  -0.001  1.575027  -0.000121  0.698122  -6.3e-05  4.118903  0.0  0.738889  -9.7e-05  4.11275  0.0  0.216311  0.670159  -2.4e-05  4.122902  0.0
C  C63  1  0.71140899  0.57430392  0.08136468  1  0.729863  -0.00056  3.815087  -0.001  1.575566  -0.000108  0.699324  -5.5e-05  4.116514  0.0  0.740008  -9.3e-05  4.110488  0.0  0.21627  0.671412  -1.7e-05  4.120441  0.0
C  C64  1  0.21137870  0.08131733  0.57407678  1  0.728224  0.000559  3.818176  0.001  1.575138  0.000121  0.697896  6.3e-05  4.119229  0.0  0.738661  9.6e-05  4.113081  0.0  0.216249  0.669932  2.6e-05  4.123224  0.0
C  C65  1  0.28857651  0.42568721  0.91863573  1  0.729763  0.000553  3.815658  0.001  1.575376  0.00011  0.699246  5.6e-05  4.117087  0.0  0.739932  9.2e-05  4.111068  0.0  0.216436  0.671332  1.6e-05  4.121008  0.0
C  C66  1  0.66633930  0.87014151  0.38099810  1  -0.442377  0.000491  3.622541  0.0  -0.065166  0.000131  -0.517836  0.000159  3.853206  0.0  -0.527254  8.8e-05  3.856624  0.0  -0.240707  -0.510185  0.000206  3.850399  0.0
C  C67  1  0.83388604  0.61927363  0.12966817  1  -0.443497  0.000536  3.622974  0.0  -0.067934  0.000151  -0.519097  0.000175  3.853981  0.0  -0.52851  0.000102  3.857448  0.0  -0.240994  -0.511451  0.000223  3.851143  0.0
C  C68  1  0.33362736  0.12987640  0.61902723  1  -0.442587  -0.000497  3.622602  0.0  -0.063753  -0.000132  -0.518018  -0.000159  3.853273  0.0  -0.527446  -8.9e-05  3.856697  0.0  -0.240775  -0.510373  -0.000207  3.850473  0.0
C  C69  1  0.16609432  0.38074075  0.87032405  1  -0.443167  -0.000528  3.623006  0.0  -0.068005  -0.000161  -0.518793  -0.000182  3.853879  0.0  -0.528216  -0.000103  3.857356  0.0  -0.240915  -0.511134  -0.00023  3.851037  0.0
C  C70  1  0.87780301  0.34011295  0.33754140  1  0.766649  -0.000528  3.805358  -0.001  1.571854  -0.000536  0.733303  -0.000396  4.082997  0.0  0.769207  -0.000313  4.073815  0.0  0.216441  0.708882  -0.000444  4.088184  -0.001
C  C71  1  0.62221533  0.66246723  0.65974626  1  0.767347  -0.000525  3.803814  -0.001  1.568275  -0.00053  0.733669  -0.000391  4.081842  0.0  0.769473  -0.000309  4.072773  0.0  0.215912  0.709267  -0.000438  4.087009  -0.001
C  C72  1  0.12222813  0.65988646  0.66245343  1  0.766636  0.000528  3.805167  0.001  1.571962  0.000535  0.733413  0.000395  4.082624  0.0  0.769313  0.000312  4.073449  0.0  0.216411  0.708996  0.000444  4.08781  0.001
C  C73  1  0.37777333  0.33753077  0.34024087  1  0.766768  0.000525  3.804527  0.001  1.568439  0.000529  0.733352  0.00039  4.082193  0.0  0.769168  0.00031  4.073115  0.0  0.215885  0.708966  0.000438  4.087346  0.001
C  C74  1  0.95860918  0.30671141  0.21161401  1  -0.464274  -9.7e-05  3.647076  0.0  -0.071938  -7.3e-05  -0.536671  -7.8e-05  3.869383  0.0  -0.54561  -3e-05  3.86873  0.0  -0.25208  -0.530289  -0.000128  3.869559  0.0
C  C75  1  0.54163730  0.78847532  0.69343902  1  -0.465065  -9.4e-05  3.645569  0.0  -0.069724  -7.6e-05  -0.537402  -7.9e-05  3.868249  0.0  -0.546382  -3e-05  3.867646  0.0  -0.252012  -0.530998  -0.00013  3.868435  0.0
C  C76  1  0.04140323  0.69328175  0.78838541  1  -0.464373  0.0001  3.647011  0.0  -0.072181  7.4e-05  -0.536734  7.8e-05  3.869285  0.0  -0.545666  3.2e-05  3.868629  0.0  -0.252033  -0.53037  0.000128  3.86947  0.0
C  C77  1  0.45838066  0.21151353  0.30655206  1  -0.464957  9.2e-05  3.645421  0.0  -0.069823  7.7e-05  -0.537402  7.9e-05  3.868117  0.0  -0.546386  2.8e-05  3.867507  0.0  -0.252043  -0.53101  0.000131  3.868285  0.0
N  N78  1  0.55335574  0.37970818  0.61086073  1  -0.903185  0.000775  2.934323  0.001  -1.313873  0.000578  -0.854932  0.000319  3.172231  0.001  -0.876735  0.000109  3.150659  0.0  -0.785739  -0.839687  0.000508  3.187122  0.001
N  N79  1  0.94691182  0.38895767  0.62030084  1  -0.903636  0.000771  2.933495  0.001  -1.315495  0.000574  -0.854855  0.000316  3.172437  0.001  -0.876628  0.000108  3.150855  0.0  -0.785519  -0.839628  0.000505  3.187321  0.001
N  N80  1  0.44666457  0.62028418  0.38913557  1  -0.903243  -0.000773  2.934258  -0.001  -1.313739  -0.000577  -0.854921  -0.000319  3.172304  -0.001  -0.876726  -0.000109  3.150728  0.0  -0.785688  -0.839678  -0.000507  3.187195  -0.001
N  N81  1  0.05310173  0.61103292  0.37970012  1  -0.903522  -0.000771  2.933758  -0.001  -1.315718  -0.000574  -0.854894  -0.000316  3.17242  -0.001  -0.876668  -0.000108  3.150841  0.0  -0.785546  -0.839671  -0.000505  3.187302  -0.001
O  O82  1  0.12500949  0.04415665  0.31600773  1  -0.588827  0.077657  2.064233  0.103  -1.15699  0.081465  -0.568473  0.052264  2.334272  0.076  -0.615523  0.040945  2.326006  0.063  -0.30916  -0.538158  0.055252  2.339286  0.077
O  O83  1  0.37489668  0.68382305  0.95587757  1  -0.588137  0.077254  2.068729  0.102  -1.157321  0.081139  -0.567699  0.052069  2.339062  0.076  -0.614728  0.040825  2.330613  0.063  -0.309523  -0.537395  0.055082  2.344143  0.077
O  O84  1  0.87495172  0.95584980  0.68399585  1  -0.588842  -0.077659  2.064709  -0.103  -1.156612  -0.081463  -0.568466  -0.052265  2.334764  -0.076  -0.615532  -0.040946  2.326491  -0.063  -0.309114  -0.538138  -0.055254  2.339718  -0.077
O  O85  1  0.62507391  0.31615830  0.04410943  1  -0.588346  -0.07724  2.068494  -0.102  -1.157091  -0.081122  -0.567764  -0.052058  2.338976  -0.076  -0.614801  -0.040813  2.330535  -0.063  -0.309557  -0.537489  -0.055064  2.344051  -0.077
O  O86  1  0.23797504  0.86847896  0.37891380  1  -0.597903  -0.069699  2.05964  -0.092  -1.158526  -0.076206  -0.566416  -0.049199  2.322286  -0.071  -0.612055  -0.038965  2.314227  -0.06  -0.305995  -0.536887  -0.051744  2.327154  -0.072
O  O87  1  0.26221194  0.62071719  0.13136538  1  -0.597048  -0.069683  2.060905  -0.092  -1.159618  -0.076122  -0.565279  -0.049183  2.323714  -0.071  -0.610942  -0.038969  2.315566  -0.06  -0.306047  -0.535778  -0.051738  2.328648  -0.072
O  O88  1  0.76205886  0.13154650  0.62109198  1  -0.597806  0.06969  2.059423  0.092  -1.158568  0.076208  -0.566366  0.049193  2.322206  0.071  -0.611974  0.038964  2.314114  0.06  -0.306  -0.536833  0.051735  2.327087  0.072
O  O89  1  0.73781561  0.37927005  0.86862893  1  -0.597232  0.069691  2.060618  0.092  -1.159492  0.076124  -0.565393  0.049186  2.323674  0.071  -0.611039  0.038973  2.315496  0.06  -0.306048  -0.535856  0.051746  2.328597  0.072
O  O90  1  0.77809976  0.02518712  0.41208384  1  -0.587843  0.079144  2.07019  0.105  -1.149332  0.081306  -0.567173  0.052191  2.342746  0.076  -0.613593  0.040686  2.333158  0.062  -0.312532  -0.537337  0.055967  2.348644  0.078
O  O91  1  0.72163974  0.58816403  0.97495356  1  -0.588734  0.079361  2.067833  0.105  -1.148861  0.081617  -0.567852  0.052383  2.340149  0.076  -0.614374  0.040847  2.330627  0.063  -0.312586  -0.537962  0.056082  2.34597  0.078
O  O92  1  0.22186588  0.97482481  0.58795434  1  -0.587695  -0.079151  2.070315  -0.105  -1.149183  -0.081317  -0.567043  -0.052194  2.3429  -0.076  -0.613484  -0.040685  2.333323  -0.062  -0.312458  -0.537209  -0.055971  2.348773  -0.078
O  O93  1  0.27833719  0.41184080  0.02503966  1  -0.588582  -0.079359  2.068344  -0.105  -1.148952  -0.081627  -0.567792  -0.052391  2.340721  -0.076  -0.614317  -0.040851  2.331209  -0.063  -0.312658  -0.537947  -0.056085  2.34655  -0.078
O  O94  1  0.89365216  0.84967890  0.47404207  1  -0.600196  -0.071144  2.107412  -0.095  -1.160512  -0.075851  -0.569308  -0.048804  2.375648  -0.071  -0.616494  -0.038468  2.368664  -0.059  -0.306523  -0.538773  -0.05208  2.379708  -0.073
O  O95  1  0.60667115  0.52615510  0.15038575  1  -0.6005  -0.071146  2.103218  -0.094  -1.159743  -0.075905  -0.569843  -0.048858  2.371402  -0.071  -0.617073  -0.038517  2.364472  -0.059  -0.306316  -0.539307  -0.052059  2.375412  -0.073
O  O96  1  0.10636641  0.15032289  0.52594178  1  -0.600117  0.071145  2.107522  0.095  -1.160453  0.075859  -0.569205  0.048808  2.375734  0.071  -0.616392  0.038472  2.368794  0.059  -0.306525  -0.538668  0.052082  2.37981  0.073
O  O97  1  0.39334101  0.47382676  0.84960668  1  -0.600619  0.071161  2.103373  0.095  -1.159477  0.075912  -0.569979  0.048861  2.371583  0.071  -0.617217  0.038523  2.36466  0.059  -0.306444  -0.539389  0.05207  2.375552  0.073
O  O98  1  0.83672116  0.26711745  0.40894950  1  -0.661494  -0.001017  2.035409  0.0  -1.231406  -0.001549  -0.608826  -0.000701  2.286295  0.0  -0.641452  -0.000756  2.268273  0.0  -0.339329  -0.587051  -0.000605  2.297162  0.0
O  O99  1  0.66265340  0.59069477  0.73266118  1  -0.661524  -0.001029  2.035494  0.0  -1.229959  -0.001562  -0.608655  -0.000711  2.286517  0.0  -0.641418  -0.000765  2.268643  0.0  -0.338517  -0.586813  -0.000615  2.29728  0.0
O  O100  1  0.16331853  0.73288299  0.59105612  1  -0.661346  0.001014  2.035323  0.0  -1.231311  0.001548  -0.608806  0.0007  2.286242  0.0  -0.641444  0.000755  2.268215  0.0  -0.339349  -0.587012  0.000605  2.297027  0.0
O  O101  1  0.33733049  0.40929110  0.26733145  1  -0.661219  0.001029  2.035893  0.0  -1.230177  0.001562  -0.608527  0.000711  2.286903  0.0  -0.641296  0.000766  2.269028  0.0  -0.338502  -0.586709  0.000615  2.297645  0.0
O  O102  1  0.84587010  0.44685696  0.37072299  1  -0.684093  -0.000102  2.004013  0.0  -1.211945  -0.000256  -0.599203  -0.000145  2.243656  0.0  -0.626684  -0.000141  2.229147  0.0  -0.329856  -0.580149  -0.000126  2.253109  0.0
O  O103  1  0.65446888  0.62951003  0.55295290  1  -0.6848  -0.000103  2.001981  0.0  -1.210184  -0.000259  -0.599497  -0.000147  2.241158  0.0  -0.626828  -0.000142  2.226604  0.0  -0.32985  -0.580473  -0.000128  2.250619  0.0
O  O104  1  0.15414505  0.55314139  0.62927075  1  -0.684161  0.000101  2.003898  0.0  -1.212115  0.000256  -0.599238  0.000145  2.243442  0.0  -0.626707  0.000141  2.228924  0.0  -0.329821  -0.580188  0.000126  2.252891  0.0
O  O105  1  0.34555762  0.37048235  0.44703478  1  -0.684543  0.000103  2.002075  0.0  -1.209897  0.00026  -0.599366  0.000147  2.241227  0.0  -0.626696  0.000142  2.226662  0.0  -0.329876  -0.580343  0.000129  2.250673  0.0
