# generated using pymatgen
data_ZnH19C22N5O4
_symmetry_space_group_name_H-M   'P 1'
_cell_length_a   11.53791904
_cell_length_b   11.85304127
_cell_length_c   14.22700000
_cell_angle_alpha   112.47049130
_cell_angle_beta   90.00000000
_cell_angle_gamma   119.12432892
_symmetry_Int_Tables_number   1
_chemical_formula_structural   ZnH19C22N5O4
_chemical_formula_sum   'Zn2 H38 C44 N10 O8'
_cell_volume   1528.35861420
_cell_formula_units_Z   2
loop_
 _symmetry_equiv_pos_site_id
 _symmetry_equiv_pos_as_xyz
  1  'x, y, z'
loop_
 _atom_site_type_symbol
 _atom_site_label
 _atom_site_symmetry_multiplicity
 _atom_site_fract_x
 _atom_site_fract_y
 _atom_site_fract_z
 _atom_site_occupancy
 _atom_site_hle17_bader_spin_density
 _atom_site_hle17_ddec_charge
 _atom_site_hle17_ddec_spin_density
 _atom_site_hle17_ddec_sum_bond_order
 _atom_site_hle17_magmom
 _atom_site_hse06_10hf_bader_spin_density
 _atom_site_hse06_10hf_ddec_charge
 _atom_site_hse06_10hf_ddec_spin_density
 _atom_site_hse06_10hf_ddec_sum_bond_order
 _atom_site_hse06_10hf_magmom
 _atom_site_hse06_bader_spin_density
 _atom_site_hse06_ddec_charge
 _atom_site_hse06_ddec_spin_density
 _atom_site_hse06_ddec_sum_bond_order
 _atom_site_hse06_magmom
 _atom_site_pbe_bader_charge
 _atom_site_pbe_bader_spin_density
 _atom_site_pbe_cm5_charge
 _atom_site_pbe_ddec_charge
 _atom_site_pbe_ddec_spin_density
 _atom_site_pbe_ddec_sum_bond_order
 _atom_site_pbe_magmom
Zn  Zn0  1  0.37270970  0.71690930  0.75719828  1  0  0.996077  0  1.903118  0  0  0.803267  0  2.391343  0  0  0.848846  0  2.33701  0  1.253236  0  0.692727  0.771371  0  2.428946  0
Zn  Zn1  1  0.34419969  0.71690823  0.25720005  1  0  0.996122  0  1.903155  0  0  0.803286  0  2.391384  0  0  0.848864  0  2.337053  0  1.252564  0  0.69273  0.771393  0  2.428989  0
H  H2  1  0.90782638  0.44427270  0.15938978  1  0  0.105739  0  0.958536  0  0  0.115293  0  1.021402  0  0  0.119922  0  1.018104  0  0.073009  0  0.099441  0.11208  0  1.02381  0
H  H3  1  0.53644138  0.44427270  0.65939259  1  0  0.105761  0  0.958531  0  0  0.115289  0  1.021429  0  0  0.119916  0  1.018136  0  0.060623  0  0.099424  0.112086  0  1.023824  0
H  H4  1  0.04949843  0.18514092  0.95995698  1  0  0.103752  0  0.9497  0  0  0.112013  0  1.010029  0  0  0.116582  0  1.007421  0  0.081805  0  0.097717  0.108729  0  1.011956  0
H  H5  1  0.13564460  0.18513878  0.45995138  1  0  0.103806  0  0.94978  0  0  0.112112  0  1.010062  0  0  0.116678  0  1.007448  0  0.084118  0  0.097753  0.108829  0  1.011992  0
H  H6  1  0.80708761  0.99712962  0.85647770  1  0  0.093235  0  0.953471  0  0  0.10474  0  1.012061  0  0  0.108507  0  1.008658  0  0.08268  0  0.099037  0.102138  0  1.014428  0
H  H7  1  0.19004566  0.99712962  0.35647559  1  0  0.093217  0  0.953543  0  0  0.104714  0  1.012132  0  0  0.108467  0  1.008786  0  0.087615  0  0.099031  0.102114  0  1.014496  0
H  H8  1  0.14771433  0.54618184  0.54191113  1  0  0.111858  0  0.946731  0  0  0.120296  0  1.010066  0  0  0.123343  0  1.006005  0  0.21135  0  0.138299  0.117966  0  1.013043  0
H  H9  1  0.39846645  0.54617969  0.04190904  1  0  0.111777  0  0.946697  0  0  0.120223  0  1.010029  0  0  0.123269  0  1.00597  0  0.162619  0  0.138271  0.117895  0  1.013004  0
H  H10  1  0.42470906  0.98939984  0.72340689  1  0  0.114426  0  0.953207  0  0  0.124593  0  1.008358  0  0  0.127318  0  1.006941  0  0.141984  0  0.119898  0.122677  0  1.009371  0
H  H11  1  0.56469357  0.98939984  0.22341392  1  0  0.114319  0  0.95318  0  0  0.12456  0  1.008265  0  0  0.127284  0  1.006847  0  0.144903  0  0.119887  0.122621  0  1.009306  0
H  H12  1  0.27011011  0.95150384  0.55043711  1  0  0.117038  0  0.965682  0  0  0.12684  0  1.026109  0  0  0.128483  0  1.027037  0  0.144304  0  0.122978  0.125444  0  1.025886  0
H  H13  1  0.68139493  0.95150921  0.05044163  1  0  0.11703  0  0.96565  0  0  0.126858  0  1.026047  0  0  0.128495  0  1.026969  0  0.148847  0  0.122968  0.125465  0  1.025817  0
H  H14  1  0.10823337  0.70475346  0.37242357  1  0  0.107741  0  0.924952  0  0  0.118911  0  0.99095  0  0  0.1211  0  0.988274  0  0.120574  0  0.117134  0.117227  0  0.992978  0
H  H15  1  0.59652123  0.70476312  0.87242735  1  0  0.107728  0  0.92494  0  0  0.1189  0  0.990938  0  0  0.121065  0  0.988293  0  0.1157  0  0.117148  0.117216  0  0.992966  0
H  H16  1  0.03030635  0.54563516  0.39045076  1  0  0.093759  0  0.89967  0  0  0.111849  0  0.952831  0  0  0.112815  0  0.952041  0  0.069251  0  0.121305  0.111023  0  0.95353  0
H  H17  1  0.51533010  0.54563945  0.89044650  1  0  0.093809  0  0.899692  0  0  0.111892  0  0.952844  0  0  0.112863  0  0.952045  0  0.067489  0  0.121323  0.111066  0  0.953542  0
H  H18  1  0.86054532  0.50878096  0.50649410  1  0  0.092843  0  0.948202  0  0  0.102097  0  1.00971  0  0  0.105242  0  1.008235  0  0.056878  0  0.100064  0.099758  0  1.010974  0
H  H19  1  0.64823642  0.50878741  0.00649334  1  0  0.092914  0  0.948185  0  0  0.10215  0  1.009704  0  0  0.105294  0  1.008231  0  0.072553  0  0.100095  0.099812  0  1.010966  0
H  H20  1  0.68910319  0.56297533  0.57846767  1  0  0.088954  0  0.975527  0  0  0.098989  0  1.041024  0  0  0.101126  0  1.040575  0  0.075931  0  0.098031  0.097206  0  1.041861  0
H  H21  1  0.87387176  0.56297963  0.07846412  1  0  0.089026  0  0.975443  0  0  0.09905  0  1.040953  0  0  0.10119  0  1.040506  0  0.051452  0  0.098088  0.097267  0  1.041791  0
H  H22  1  0.85545749  0.92605046  0.50684380  1  0  0.094506  0  0.937155  0  0  0.108334  0  0.990242  0  0  0.111003  0  0.989429  0  0.057334  0  0.104907  0.106386  0  0.990938  0
H  H23  1  0.07059445  0.92604938  0.00683784  1  0  0.094453  0  0.937245  0  0  0.108298  0  0.990318  0  0  0.110967  0  0.989505  0  0.063953  0  0.104899  0.106348  0  0.991013  0
H  H24  1  0.02770024  0.87248332  0.43507559  1  0  0.092238  0  0.966651  0  0  0.103839  0  1.027513  0  0  0.105772  0  1.027349  0  0.084574  0  0.100509  0.102094  0  1.028288  0
H  H25  1  0.84478647  0.87248761  0.93507063  1  0  0.092271  0  0.966542  0  0  0.103858  0  1.027424  0  0  0.105791  0  1.027264  0  0.070299  0  0.100492  0.102113  0  1.028199  0
H  H26  1  0.60885792  0.72901360  0.64150463  1  0  0.108732  0  0.925653  0  0  0.120062  0  0.990663  0  0  0.12223  0  0.988099  0  0.125027  0  0.117538  0.1184  0  0.992618  0
H  H27  1  0.12015108  0.72901360  0.14150182  1  0  0.108696  0  0.925695  0  0  0.12005  0  0.99071  0  0  0.122219  0  0.988144  0  0.11879  0  0.117545  0.118387  0  0.992663  0
H  H28  1  0.68512671  0.88857870  0.62400771  1  0  0.092746  0  0.900856  0  0  0.109954  0  0.954973  0  0  0.110977  0  0.954101  0  0.026334  0  0.120643  0.109133  0  0.955684  0
H  H29  1  0.20345341  0.88858085  0.12400698  1  0  0.092748  0  0.900903  0  0  0.11  0  0.954994  0  0  0.110997  0  0.954151  0  0.061568  0  0.120652  0.109175  0  0.955707  0
H  H30  1  0.56700779  0.88684414  0.47237995  1  0  0.106948  0  0.957595  0  0  0.114118  0  1.023376  0  0  0.117556  0  1.018894  0  0.213332  0  0.135734  0.111512  0  1.026711  0
H  H31  1  0.31983766  0.88684951  0.97238306  1  0  0.106928  0  0.95758  0  0  0.114101  0  1.023363  0  0  0.117538  0  1.018884  0  0.20978  0  0.135729  0.111494  0  1.026698  0
H  H32  1  0.29351191  0.44351336  0.28977566  1  0  0.116536  0  0.951363  0  0  0.127573  0  1.004993  0  0  0.130118  0  1.00383  0  0.147316  0  0.12106  0.125748  0  1.00585  0
H  H33  1  0.15000724  0.44351766  0.78977141  1  0  0.11652  0  0.951311  0  0  0.127568  0  1.004933  0  0  0.130113  0  1.003769  0  0.139472  0  0.121086  0.125743  0  1.00579  0
H  H34  1  0.44830714  0.48213648  0.46310139  1  0  0.116519  0  0.97052  0  0  0.126401  0  1.030974  0  0  0.128012  0  1.031903  0  0.145032  0  0.12234  0.124995  0  1.030835  0
H  H35  1  0.03383152  0.48213541  0.96309754  1  0  0.116577  0  0.970514  0  0  0.126459  0  1.030943  0  0  0.128068  0  1.031896  0  0.145613  0  0.122361  0.125052  0  1.030809  0
H  H36  1  0.55080099  0.18805798  0.01700733  1  0  0.331457  0  0.933897  0  0  0.314592  0  0.997153  0  0  0.323267  0  0.989053  0  0.505021  0  0.292169  0.308457  0  1.00279  0
H  H37  1  0.63725798  0.18805691  0.51700909  1  0  0.331461  0  0.933707  0  0  0.314618  0  0.996951  0  0  0.323289  0  0.988847  0  0.529566  0  0.292152  0.308482  0  1.002592  0
H  H38  1  0.66370230  0.34803443  0.12987615  1  0  0.312537  0  0.893969  0  0  0.309572  0  0.935489  0  0  0.315154  0  0.932355  0  0.437265  0  0.310688  0.305704  0  0.937625  0
H  H39  1  0.68432854  0.34803336  0.62987933  1  0  0.312578  0  0.89389  0  0  0.309632  0  0.935373  0  0  0.315214  0  0.932234  0  0.457747  0  0.310714  0.305764  0  0.93751  0
C  C40  1  0.58029508  0.99583756  0.88914352  1  0  0.632116  0  3.939404  0  0  0.58211  0  4.234921  0  0  0.616745  0  4.227678  0  1.50966  0  0.191082  0.558428  0  4.239502  0
C  C41  1  0.41554808  0.99583971  0.38914842  1  0  0.632219  0  3.939263  0  0  0.582239  0  4.23476  0  0  0.61632  0  4.227457  0  1.516062  0  0.19113  0.558554  0  4.239345  0
C  C42  1  0.72171059  0.11457514  0.94845029  1  0  -0.200391  0  3.736278  0  0  -0.179356  0  3.972679  0  0  -0.192523  0  3.995092  0  0.008966  0  -0.039916  -0.170428  0  3.957565  0
C  C43  1  0.39286673  0.11457622  0.44845204  1  0  -0.20035  0  3.736319  0  0  -0.179392  0  3.972694  0  0  -0.19054  0  3.992501  0  0.019677  0  -0.039915  -0.170455  0  3.957579  0
C  C44  1  0.74854850  0.24376566  0.03407584  1  0  0.321324  0  3.848195  0  0  0.308295  0  4.102376  0  0  0.321162  0  4.122434  0  0.433734  0  0.10388  0.299666  0  4.088572  0
C  C45  1  0.49521752  0.24376351  0.53407726  1  0  0.321278  0  3.84841  0  0  0.308399  0  4.102389  0  0  0.320678  0  4.122249  0  0.381557  0  0.103878  0.299764  0  4.088588  0
C  C46  1  0.88429804  0.34545784  0.09236981  1  0  -0.224671  0  3.72509  0  0  -0.251336  0  3.97895  0  0  -0.257711  0  3.996632  0  -0.046802  0  -0.110799  -0.24724  0  3.967138  0
C  C47  1  0.46115761  0.34545784  0.59237332  1  0  -0.22477  0  3.725036  0  0  -0.251468  0  3.978856  0  0  -0.257894  0  3.996724  0  0.00367  0  -0.110862  -0.247377  0  3.967037  0
C  C48  1  0.99073803  0.32454867  0.06587755  1  0  -0.028078  0  3.806512  0  0  -0.007928  0  4.041717  0  0  -0.009491  0  4.06273  0  -0.057118  0  -0.022799  -0.006588  0  4.027336  0
C  C49  1  0.33380914  0.32454652  0.56587265  1  0  -0.028026  0  3.806585  0  0  -0.007856  0  4.041776  0  0  -0.009426  0  4.062811  0  -0.061414  0  -0.022747  -0.006511  0  4.027394  0
C  C50  1  0.96451972  0.19866186  0.97996571  1  0  -0.133798  0  3.797869  0  0  -0.158775  0  4.054018  0  0  -0.164589  0  4.0755  0  0.021067  0  -0.113133  -0.154523  0  4.039207  0
C  C51  1  0.23413845  0.19866186  0.47996290  1  0  -0.133908  0  3.797968  0  0  -0.158949  0  4.05412  0  0  -0.164805  0  4.075762  0  -0.034459  0  -0.113212  -0.154703  0  4.039316  0
C  C52  1  0.83130501  0.09631560  0.92323544  1  0  -0.063743  0  3.811926  0  0  -0.089079  0  4.069162  0  0  -0.085195  0  4.087821  0  -0.14074  0  -0.096179  -0.09168  0  4.056494  0
C  C53  1  0.26501357  0.09631130  0.42323197  1  0  -0.063717  0  3.811922  0  0  -0.089029  0  4.069176  0  0  -0.085758  0  4.087391  0  -0.089936  0  -0.096163  -0.091635  0  4.056512  0
C  C54  1  0.13495865  0.44019999  0.12572627  1  0  0.621799  0  3.942266  0  0  0.576028  0  4.23504  0  0  0.608627  0  4.227703  0  1.55391  0  0.19364  0.553685  0  4.239641  0
C  C55  1  0.30524585  0.44019999  0.62572135  1  0  0.621751  0  3.941875  0  0  0.576011  0  4.23461  0  0  0.608608  0  4.22727  0  1.562199  0  0.193621  0.553665  0  4.239208  0
C  C56  1  0.20230921  0.66151847  0.56762365  1  0  0.161075  0  3.645218  0  0  0.096793  0  3.909558  0  0  0.110831  0  3.92248  0  0.920714  0  0.144291  0.087892  0  3.900309  0
C  C57  1  0.45921136  0.66151954  0.06762469  1  0  0.161103  0  3.645238  0  0  0.096809  0  3.909583  0  0  0.110847  0  3.922506  0  0.997159  0  0.144293  0.087907  0  3.900337  0
C  C58  1  0.34512420  0.89226369  0.65894720  1  0  -0.002516  0  3.753628  0  0  -0.035594  0  4.013943  0  0  -0.033904  0  4.034122  0  0.414933  0  -0.003396  -0.036682  0  4.000158  0
C  C59  1  0.54714288  0.89225939  0.15894794  1  0  -0.002353  0  3.754047  0  0  -0.03551  0  4.014349  0  0  -0.03382  0  4.034531  0  0.367033  0  -0.003376  -0.036579  0  4.000578  0
C  C60  1  0.26923135  0.87494069  0.57473839  1  0  -0.058884  0  3.673306  0  0  -0.098899  0  3.929546  0  0  -0.098485  0  3.950988  0  0.275612  0  0.001828  -0.099025  0  3.915179  0
C  C61  1  0.60570430  0.87493854  0.07474403  1  0  -0.05894  0  3.673738  0  0  -0.098968  0  3.929972  0  0  -0.09854  0  3.951431  0  0.285884  0  0.001815  -0.099092  0  3.915598  0
C  C62  1  0.06727758  0.66072906  0.42830290  1  0  -0.046002  0  3.631373  0  0  -0.11497  0  3.887003  0  0  -0.109774  0  3.895381  0  0.281678  0  -0.043678  -0.118207  0  3.881297  0
C  C63  1  0.59345119  0.66073228  0.92830322  1  0  -0.04609  0  3.631451  0  0  -0.115047  0  3.887063  0  0  -0.109835  0  3.895442  0  0.287915  0  -0.04371  -0.118285  0  3.881357  0
C  C64  1  0.95599584  0.68692782  0.46536263  1  0  0.063074  0  3.764123  0  0  0.081132  0  4.005947  0  0  0.079572  0  4.031785  0  -0.015588  0  -0.015267  0.082114  0  3.988399  0
C  C65  1  0.73093508  0.68693426  0.96535906  1  0  0.063184  0  3.764286  0  0  0.081238  0  4.006095  0  0  0.079679  0  4.031927  0  -0.027008  0  -0.015255  0.082218  0  3.988548  0
C  C66  1  0.86033124  0.60076823  0.50642887  1  0  -0.112336  0  3.764937  0  0  -0.132447  0  4.012594  0  0  -0.135131  0  4.034636  0  -0.01104  0  -0.092953  -0.130555  0  3.997801  0
C  C67  1  0.74043709  0.60077360  0.00642636  1  0  -0.112484  0  3.764868  0  0  -0.132575  0  4.012526  0  0  -0.135257  0  4.034571  0  0.013489  0  -0.093035  -0.130683  0  3.997735  0
C  C68  1  0.76411133  0.63163042  0.54771415  1  0  -0.112288  0  3.762983  0  0  -0.130841  0  4.007513  0  0  -0.133541  0  4.030405  0  -0.072973  0  -0.092825  -0.129071  0  3.99246  0
C  C69  1  0.86752108  0.63163794  0.04771373  1  0  -0.112329  0  3.763039  0  0  -0.13087  0  4.007546  0  0  -0.133572  0  4.030437  0  -0.07571  0  -0.092836  -0.129101  0  3.992495  0
C  C70  1  0.76111857  0.74871234  0.54865523  1  0  0.064471  0  3.764605  0  0  0.082824  0  4.005595  0  0  0.081267  0  4.031521  0  -0.039763  0  -0.01435  0.083789  0  3.988077  0
C  C71  1  0.98759257  0.74871557  0.04865345  1  0  0.064358  0  3.76476  0  0  0.082713  0  4.00578  0  0  0.081158  0  4.031701  0  -0.035843  0  -0.014415  0.083678  0  3.98826  0
C  C72  1  0.85647466  0.83458946  0.50726148  1  0  -0.11075  0  3.763029  0  0  -0.130664  0  4.007741  0  0  -0.133604  0  4.030546  0  -0.013922  0  -0.090161  -0.128647  0  3.992301  0
C  C73  1  0.97811499  0.83459054  0.00725549  1  0  -0.110528  0  3.763117  0  0  -0.13044  0  4.007793  0  0  -0.13338  0  4.030604  0  -0.01359  0  -0.090047  -0.128422  0  3.99235  0
C  C74  1  0.95291475  0.80389375  0.46603834  1  0  -0.113066  0  3.762542  0  0  -0.130592  0  4.006071  0  0  -0.133443  0  4.029383  0  -0.100201  0  -0.091301  -0.128618  0  3.990706  0
C  C75  1  0.85097923  0.80389482  0.96603588  1  0  -0.113227  0  3.762775  0  0  -0.130751  0  4.006327  0  0  -0.133603  0  4.029646  0  -0.091233  0  -0.091323  -0.128777  0  3.990962  0
C  C76  1  0.64935907  0.77379626  0.58591736  1  0  -0.045568  0  3.632586  0  0  -0.113272  0  3.886148  0  0  -0.108169  0  3.894652  0  0.328134  0  -0.042917  -0.116489  0  3.880428  0
C  C77  1  0.12443847  0.77379949  0.08591698  1  0  -0.045437  0  3.632535  0  0  -0.113247  0  3.886176  0  0  -0.108123  0  3.894669  0  0.311284  0  -0.042903  -0.116462  0  3.880453  0
C  C78  1  0.51343760  0.77167613  0.44663537  1  0  0.160613  0  3.654281  0  0  0.095054  0  3.921661  0  0  0.108991  0  3.934215  0  0.918097  0  0.142132  0.086189  0  3.912736  0
C  C79  1  0.25823874  0.77167721  0.94663571  1  0  0.160551  0  3.654343  0  0  0.094993  0  3.921734  0  0  0.108933  0  3.934287  0  0.93282  0  0.142124  0.086128  0  3.912804  0
C  C80  1  0.37246359  0.54076122  0.35457176  1  0  -0.003228  0  3.749726  0  0  -0.035421  0  4.007915  0  0  -0.033901  0  4.028387  0  0.39751  0  -0.002843  -0.036353  0  3.993909  0
C  C81  1  0.16830207  0.54076659  0.85457136  1  0  -0.003178  0  3.749796  0  0  -0.035371  0  4.007979  0  0  -0.033847  0  4.028451  0  0.40388  0  -0.002828  -0.036304  0  3.993973  0
C  C82  1  0.44851340  0.55848482  0.43892782  1  0  -0.059786  0  3.673826  0  0  -0.099926  0  3.929819  0  0  -0.099621  0  3.951458  0  0.293306  0  0.001468  -0.099982  0  3.915417  0
C  C83  1  0.10997456  0.55848590  0.93892394  1  0  -0.060023  0  3.6739  0  0  -0.10016  0  3.929903  0  0  -0.099866  0  3.951545  0  0.257225  0  0.001334  -0.100217  0  3.915502  0
N  N84  1  0.30233726  0.75827012  0.65355717  1  0  -0.38109  0  3.328488  0  0  -0.298984  0  3.632596  0  0  -0.319098  0  3.64448  0  -1.231594  0  -0.35956  -0.285119  0  3.624066  0
N  N85  1  0.45593601  0.75827012  0.15356068  1  0  -0.381099  0  3.328536  0  0  -0.298974  0  3.63264  0  0  -0.319087  0  3.644522  0  -1.243596  0  -0.359552  -0.285109  0  3.624103  0
N  N86  1  0.18003872  0.72859043  0.51769869  1  0  -0.054496  0  3.565316  0  0  0.03966  0  3.786512  0  0  0.024391  0  3.813713  0  -1.215946  0  -0.237449  0.049787  0  3.767835  0
N  N87  1  0.54855219  0.72859365  0.01770253  1  0  -0.054431  0  3.565347  0  0  0.03972  0  3.786539  0  0  0.024452  0  3.813736  0  -1.209409  0  -0.237426  0.049847  0  3.767864  0
N  N88  1  0.41406688  0.67471719  0.36037085  1  0  -0.381124  0  3.329408  0  0  -0.299295  0  3.634175  0  0  -0.319322  0  3.645927  0  -1.23609  0  -0.360088  -0.285473  0  3.625714  0
N  N89  1  0.26065488  0.67472149  0.86037082  1  0  -0.380948  0  3.329378  0  0  -0.299144  0  3.634159  0  0  -0.319173  0  3.645914  0  -1.228564  0  -0.360032  -0.28532  0  3.625692  0
N  N90  1  0.53646304  0.70499082  0.49643322  1  0  -0.055028  0  3.568572  0  0  0.038479  0  3.790249  0  0  0.023301  0  3.817427  0  -1.220723  0  -0.238327  0.048557  0  3.771605  0
N  N91  1  0.16852916  0.70499404  0.99643214  1  0  -0.05499  0  3.568548  0  0  0.038536  0  3.790236  0  0  0.023364  0  3.817403  0  -1.214927  0  -0.23832  0.048614  0  3.771591  0
N  N92  1  0.64744477  0.27110397  0.05855896  1  0  -0.670121  0  3.140352  0  0  -0.634528  0  3.356127  0  0  -0.655283  0  3.355061  0  -1.278842  0  -0.593088  -0.619918  0  3.356413  0
N  N93  1  0.62365766  0.27110504  0.55856351  1  0  -0.670088  0  3.140217  0  0  -0.634567  0  3.355895  0  0  -0.655367  0  3.355019  0  -1.32514  0  -0.593032  -0.619957  0  3.356187  0
O  O94  1  0.48017242  0.01237495  0.90368823  1  0  -0.630571  0  1.923025  0  0  -0.579563  0  2.139078  0  0  -0.601625  0  2.127629  0  -1.183749  0  -0.326698  -0.564298  0  2.146802  0
O  O95  1  0.53220734  0.01237925  0.40369382  1  0  -0.630608  0  1.92296  0  0  -0.579646  0  2.139056  0  0  -0.601743  0  2.127827  0  -1.185637  0  -0.326746  -0.564379  0  2.146781  0
O  O96  1  0.56634049  0.87526505  0.82443611  1  0  -0.653216  0  2.039555  0  0  -0.583441  0  2.316918  0  0  -0.611065  0  2.301115  0  -1.182343  0  -0.341013  -0.564089  0  2.327196  0
O  O97  1  0.30892732  0.87526290  0.32444175  1  0  -0.653287  0  2.03961  0  0  -0.583494  0  2.316939  0  0  -0.611185  0  2.301414  0  -1.183042  0  -0.341006  -0.564143  0  2.32722  0
O  O98  1  0.15065316  0.56213759  0.19043961  1  0  -0.659757  0  2.044722  0  0  -0.588512  0  2.320232  0  0  -0.616208  0  2.304851  0  -1.183259  0  -0.344163  -0.569041  0  2.330269  0
O  O99  1  0.41147654  0.56213222  0.69043368  1  0  -0.659589  0  2.044942  0  0  -0.588402  0  2.320498  0  0  -0.616099  0  2.305115  0  -1.188929  0  -0.344112  -0.56894  0  2.330549  0
O  O100  1  0.23009722  0.41752189  0.11051160  1  0  -0.621634  0  1.884966  0  0  -0.58029  0  2.095682  0  0  -0.600578  0  2.084971  0  -1.178836  0  -0.337633  -0.566131  0  2.10283  0
O  O101  1  0.18741225  0.41751222  0.61050431  1  0  -0.621754  0  1.88422  0  0  -0.58041  0  2.094913  0  0  -0.600699  0  2.084201  0  -1.176721  0  -0.337695  -0.566246  0  2.102062  0
