# generated using pymatgen
data_Ni3P4H34C34(N4O7)2
_symmetry_space_group_name_H-M   'P 1'
_cell_length_a   8.84661577
_cell_length_b   10.58600518
_cell_length_c   15.22719247
_cell_angle_alpha   76.71994844
_cell_angle_beta   78.19714772
_cell_angle_gamma   80.03848210
_symmetry_Int_Tables_number   1
_chemical_formula_structural   Ni3P4H34C34(N4O7)2
_chemical_formula_sum   'Ni3 P4 H34 C34 N8 O14'
_cell_volume   1346.61917871
_cell_formula_units_Z   1
loop_
 _symmetry_equiv_pos_site_id
 _symmetry_equiv_pos_as_xyz
  1  'x, y, z'
loop_
 _atom_site_type_symbol
 _atom_site_label
 _atom_site_symmetry_multiplicity
 _atom_site_fract_x
 _atom_site_fract_y
 _atom_site_fract_z
 _atom_site_occupancy
 _atom_site_pbe_bader_charge
 _atom_site_pbe_bader_spin_density
 _atom_site_pbe_cm5_charge
 _atom_site_pbe_ddec_charge
 _atom_site_pbe_ddec_spin_density
 _atom_site_pbe_ddec_sum_bond_order
 _atom_site_pbe_magmom
Ni  Ni0  1  0.80488396  0.92595261  0.62899318  1  1.19089  1.584462  0.673431  0.834951  1.783559  2.461069  1.57
Ni  Ni1  1  0.19513383  0.07404900  0.37100665  1  1.190949  1.584461  0.673437  0.834934  1.78355  2.461072  1.57
Ni  Ni2  1  0.00000656  0.49999835  0.50000188  1  1.237066  1.594864  0.699544  0.937038  1.799246  2.473775  1.582
P  P3  1  0.71483614  0.72757531  0.53797038  1  3.293374  0.006424  0.34352  1.208536  0.007947  5.370669  0.005
P  P4  1  0.03530224  0.81363922  0.46948150  1  3.320525  0.008985  0.321218  1.204937  0.01155  5.446136  0.009
P  P5  1  0.28516636  0.27242823  0.46202633  1  3.29352  0.006422  0.343556  1.208627  0.007946  5.370628  0.005
P  P6  1  0.96470264  0.18635649  0.53051881  1  3.319892  0.008984  0.321228  1.204911  0.011548  5.446156  0.009
H  H7  1  0.87345470  0.95896560  0.32023818  1  0.101197  0.000144  0.116198  0.105015  1.7e-05  0.996634  0.0
H  H8  1  0.87527608  0.78868756  0.32876069  1  0.068315  0.001551  0.11613  0.102673  0.000604  0.997861  0.001
H  H9  1  0.56152603  0.07663853  0.38329988  1  0.196556  0.000841  0.139939  0.126016  0.000259  1.009362  0.001
H  H10  1  0.34656026  0.82976651  0.27972096  1  0.121127  0.000823  0.116338  0.116232  0.000199  1.017753  0.001
H  H11  1  0.65836980  0.72409633  0.28341816  1  0.127557  0.000898  0.112242  0.113846  0.000366  1.052884  0.001
H  H12  1  0.50294467  0.73622961  0.48115745  1  0.638296  -0.000145  0.337503  0.398047  -8.9e-05  0.868599  0.0
H  H13  1  0.84385993  0.04190725  0.46234934  1  0.630449  -0.000351  0.297508  0.352866  -0.00019  0.968675  0.0
H  H14  1  0.80459513  0.41735953  0.39488326  1  0.164188  0.001916  0.130157  0.118878  0.000679  0.9769  0.001
H  H15  1  0.75292409  0.47470398  0.23317190  1  0.068548  0.001225  0.113088  0.122747  0.000573  0.977531  0.0
H  H16  1  0.15632653  0.68218773  0.16023227  1  0.045831  0.001264  0.104159  0.109948  0.000584  1.001907  0.0
H  H17  1  0.18914419  0.61372323  0.32500760  1  0.126978  0.001908  0.127646  0.113069  0.000647  0.98084  0.001
H  H18  1  0.83348855  0.57233053  0.07334903  1  0.059416  0.000143  0.105257  0.104464  0.000111  0.995438  0.0
H  H19  1  0.02907598  0.79663850  0.04682115  1  0.052939  0.000143  0.1  0.096245  0.000132  1.012715  0.0
H  H20  1  0.97677079  0.97370776  0.91779892  1  0.052625  0.001147  0.100889  0.102149  0.000566  1.018708  0.0
H  H21  1  0.90525369  0.04385729  0.76061908  1  0.144173  0.001873  0.119013  0.094686  0.000608  1.03645  0.001
H  H22  1  0.80541184  0.67694269  0.76401139  1  0.162951  0.00196  0.121652  0.10979  0.000633  1.012914  0.001
H  H23  1  0.86201723  0.59085363  0.92282479  1  0.062285  0.001016  0.100958  0.104266  0.000438  1.03029  0.0
H  H24  1  0.12654967  0.04102619  0.67976085  1  0.101422  0.000144  0.116189  0.10499  1.7e-05  0.99666  0.0
H  H25  1  0.12473019  0.21131402  0.67123654  1  0.068272  0.001551  0.11616  0.102752  0.000604  0.9978  0.001
H  H26  1  0.43848493  0.92335524  0.61670201  1  0.196673  0.000841  0.139925  0.126052  0.000259  1.009306  0.001
H  H27  1  0.65344782  0.17024582  0.72026711  1  0.121108  0.000823  0.116419  0.116325  0.000199  1.017659  0.001
H  H28  1  0.34163421  0.27590522  0.71657343  1  0.127456  0.000898  0.112186  0.11374  0.000366  1.052992  0.001
H  H29  1  0.49705752  0.26377588  0.51883962  1  0.6384  -0.000145  0.337496  0.398008  -8.9e-05  0.868645  0.0
H  H30  1  0.15614275  0.95809529  0.53764487  1  0.630518  -0.00035  0.297533  0.352892  -0.00019  0.968649  0.0
H  H31  1  0.19541112  0.58264895  0.60512272  1  0.164006  0.001915  0.13013  0.118903  0.000679  0.976715  0.001
H  H32  1  0.24707343  0.52528687  0.76683793  1  0.068309  0.001225  0.113068  0.122675  0.000574  0.977424  0.0
H  H33  1  0.84365779  0.31782072  0.83977626  1  0.045633  0.001264  0.104115  0.109902  0.000584  1.001849  0.0
H  H34  1  0.81085709  0.38628034  0.67499778  1  0.126874  0.001907  0.127646  0.113036  0.000646  0.980859  0.001
H  H35  1  0.16651368  0.42765248  0.92666086  1  0.06002  0.000143  0.105302  0.104585  0.000111  0.995166  0.0
H  H36  1  0.97090533  0.20336012  0.95318275  1  0.052715  0.000143  0.099984  0.09618  0.000132  1.012781  0.0
H  H37  1  0.02324503  0.02627720  0.08220383  1  0.053038  0.001147  0.100905  0.102126  0.000566  1.018566  0.0
H  H38  1  0.09476963  0.95613848  0.23938433  1  0.144105  0.001872  0.119066  0.094832  0.000607  1.036423  0.001
H  H39  1  0.19457374  0.32305882  0.23597776  1  0.163338  0.00196  0.121741  0.109843  0.000633  1.01282  0.001
H  H40  1  0.13794188  0.40914691  0.07717613  1  0.062371  0.001015  0.101013  0.104278  0.000438  1.030272  0.0
C  C41  1  0.82374234  0.85394171  0.45750945  1  -0.399176  0.001679  0.04066  -0.215049  -0.000292  3.889303  0.0
C  C42  1  0.81378906  0.87428166  0.35619219  1  0.301335  0.003164  -0.050204  -0.090021  0.002111  3.922075  0.002
C  C43  1  0.54447202  0.99861821  0.35240051  1  0.957608  -0.002154  0.146247  0.114614  -0.002783  3.845983  -0.001
C  C44  1  0.43881027  0.86676968  0.29913052  1  0.410967  -0.000813  -0.010037  -0.037436  -0.001388  4.04072  0.0
C  C45  1  0.59082743  0.81253623  0.30201841  1  0.238438  0.00336  -0.018981  -0.148632  0.001799  3.989177  0.002
C  C46  1  0.87754517  0.47651636  0.34002069  1  0.476572  -0.005075  0.061636  0.117925  -0.005905  3.898139  -0.003
C  C47  1  0.85041332  0.50927491  0.25030478  1  0.018007  0.002948  -0.083111  -0.188307  0.001274  3.946424  0.003
C  C48  1  0.94632870  0.58886478  0.18277671  1  -0.121741  -0.006624  -0.003426  0.125814  -0.007074  4.07586  -0.004
C  C49  1  0.07322777  0.62525167  0.20971403  1  0.04254  0.00425  -0.090743  -0.194081  0.002271  3.956188  0.003
C  C50  1  0.09439386  0.58661283  0.30032451  1  0.457717  -0.003653  0.053277  0.097137  -0.004289  3.938663  -0.003
C  C51  1  0.91151436  0.62945250  0.09026867  1  0.009848  -0.006149  -0.08582  -0.130062  -0.006737  3.99592  -0.003
C  C52  1  0.96052779  0.73382144  0.02756558  1  -0.097796  -0.002738  -0.087698  -0.130483  -0.00318  3.985586  -0.001
C  C53  1  0.92338350  0.77548609  0.93564894  1  -0.043443  -0.010314  -0.001983  0.139242  -0.011104  4.051464  -0.006
C  C54  1  0.93738315  0.90434429  0.88710597  1  -0.014651  0.00536  -0.090851  -0.184915  0.002756  3.959551  0.004
C  C55  1  0.89945880  0.94436212  0.80002852  1  0.442399  -0.007526  0.042783  0.081641  -0.008335  3.950485  -0.005
C  C56  1  0.84153509  0.73862871  0.80219309  1  0.4456  -0.005848  0.051045  0.097284  -0.006483  3.915063  -0.004
C  C57  1  0.87266365  0.69271959  0.89046182  1  -0.004172  0.004972  -0.087569  -0.180476  0.002608  3.945093  0.004
C  C58  1  0.17625947  0.14605889  0.54248911  1  -0.399175  0.001677  0.040656  -0.21519  -0.000293  3.88963  0.0
C  C59  1  0.18621568  0.12571503  0.64380667  1  0.301121  0.003164  -0.050219  -0.09009  0.002111  3.92204  0.002
C  C60  1  0.45553184  0.00137655  0.64760401  1  0.95768  -0.00215  0.146327  0.114534  -0.00278  3.845959  -0.001
C  C61  1  0.56119569  0.13324165  0.70085401  1  0.410815  -0.000813  -0.010107  -0.037476  -0.001388  4.041012  0.0
C  C62  1  0.40918331  0.18747412  0.69796506  1  0.238327  0.003359  -0.019004  -0.148691  0.001798  3.989474  0.002
C  C63  1  0.12245625  0.52348624  0.65998679  1  0.476711  -0.005072  0.06166  0.11794  -0.005903  3.8983  -0.003
C  C64  1  0.14958557  0.49071492  0.74969718  1  0.018331  0.002948  -0.083091  -0.188183  0.001273  3.946573  0.003
C  C65  1  0.05366741  0.41112798  0.81722575  1  -0.122394  -0.006624  -0.003421  0.125852  -0.007073  4.076089  -0.004
C  C66  1  0.92676431  0.37475187  0.79028783  1  0.043313  0.004251  -0.090646  -0.19399  0.002271  3.956164  0.003
C  C67  1  0.90560267  0.41339170  0.69967798  1  0.457536  -0.003652  0.053236  0.097214  -0.00429  3.938586  -0.003
C  C68  1  0.08847075  0.37054416  0.90973313  1  0.009402  -0.006143  -0.085917  -0.130357  -0.006731  3.995995  -0.003
C  C69  1  0.03945933  0.26617717  0.97243370  1  -0.097819  -0.002738  -0.087617  -0.130277  -0.00318  3.985434  -0.001
C  C70  1  0.07660041  0.22450371  0.06435279  1  -0.043457  -0.010311  -0.002062  0.139197  -0.011101  4.051307  -0.006
C  C71  1  0.06263075  0.09565245  0.11290035  1  -0.014981  0.005357  -0.090911  -0.18498  0.002754  3.960002  0.004
C  C72  1  0.10055332  0.05563165  0.19997258  1  0.442389  -0.007523  0.042745  0.081412  -0.008331  3.950789  -0.005
C  C73  1  0.15844412  0.26136891  0.19780596  1  0.445301  -0.005843  0.050952  0.097156  -0.00648  3.914954  -0.004
C  C74  1  0.12730690  0.30728880  0.10953847  1  -0.00407  0.004973  -0.087598  -0.180421  0.002608  3.944579  0.004
N  N75  1  0.65625249  0.89723992  0.33570828  1  -1.232955  0.002721  -0.249981  0.038254  0.001126  3.785839  0.002
N  N76  1  0.41156197  0.98216632  0.33090243  1  -1.178082  0.077241  -0.353762  -0.28627  0.044075  3.603946  0.068
N  N77  1  0.99603111  0.51629343  0.36490361  1  -1.19654  0.065818  -0.320503  -0.212935  0.037812  3.556436  0.059
N  N78  1  0.85446792  0.86284186  0.75702013  1  -1.180918  0.070844  -0.319575  -0.200258  0.040572  3.55216  0.064
N  N79  1  0.34375411  0.10275970  0.66428726  1  -1.232766  0.002721  -0.249992  0.038392  0.001126  3.785778  0.002
N  N80  1  0.58844313  0.01783528  0.66909756  1  -1.177906  0.077238  -0.353746  -0.286191  0.044073  3.603954  0.068
N  N81  1  0.00396451  0.48371696  0.63509476  1  -1.196247  0.065822  -0.320518  -0.213112  0.037816  3.556525  0.059
N  N82  1  0.14554082  0.13715876  0.24297763  1  -1.181134  0.070834  -0.319531  -0.200052  0.040568  3.552212  0.064
O  O83  1  0.76911493  0.59628633  0.51082216  1  -1.424375  0.065602  -0.36415  -0.735676  0.035271  2.307373  0.056
O  O84  1  0.72679534  0.74789632  0.63164697  1  -1.421838  0.054651  -0.365579  -0.719535  0.028742  2.272972  0.045
O  O85  1  0.53161230  0.76651229  0.53075980  1  -1.374165  0.010715  -0.379261  -0.608461  0.005495  2.2061  0.008
O  O86  1  0.09355433  0.67010290  0.46895877  1  -1.427785  0.070618  -0.368539  -0.737755  0.037945  2.39301  0.06
O  O87  1  0.03735439  0.85573190  0.56043950  1  -1.419172  0.053019  -0.371497  -0.732746  0.027899  2.261076  0.044
O  O88  1  0.11752823  0.90093569  0.38448312  1  -1.419859  0.077874  -0.379155  -0.738041  0.041876  2.394995  0.067
O  O89  1  0.76589046  0.97469044  0.48977642  1  -1.091227  0.062392  -0.359818  -0.448676  0.035121  2.436296  0.056
O  O90  1  0.23088885  0.40371624  0.48917783  1  -1.424402  0.065606  -0.364196  -0.735714  0.035273  2.307374  0.056
O  O91  1  0.27321723  0.25210919  0.36834956  1  -1.422033  0.054658  -0.365543  -0.719526  0.028744  2.273073  0.045
O  O92  1  0.46839205  0.23349418  0.46923621  1  -1.374305  0.010716  -0.379312  -0.608468  0.005496  2.206018  0.008
O  O93  1  0.90645642  0.32989187  0.53104758  1  -1.427682  0.070614  -0.368519  -0.737727  0.037942  2.392984  0.06
O  O94  1  0.96264728  0.14426967  0.43955761  1  -1.418757  0.053012  -0.371545  -0.732749  0.027896  2.261008  0.044
O  O95  1  0.88246925  0.09906296  0.61551890  1  -1.419572  0.07788  -0.379118  -0.737969  0.041878  2.395032  0.067
O  O96  1  0.23410891  0.02531112  0.51021899  1  -1.091273  0.062394  -0.359851  -0.448626  0.035122  2.436368  0.056
