# generated using pymatgen
data_Cu3H34C36(NO7)2
_symmetry_space_group_name_H-M   'P 1'
_cell_length_a   9.57588853
_cell_length_b   10.19939059
_cell_length_c   10.54935055
_cell_angle_alpha   110.27500981
_cell_angle_beta   97.23230753
_cell_angle_gamma   110.19259619
_symmetry_Int_Tables_number   1
_chemical_formula_structural   Cu3H34C36(NO7)2
_chemical_formula_sum   'Cu3 H34 C36 N2 O14'
_cell_volume   871.11055629
_cell_formula_units_Z   1
loop_
 _symmetry_equiv_pos_site_id
 _symmetry_equiv_pos_as_xyz
  1  'x, y, z'
loop_
 _atom_site_type_symbol
 _atom_site_label
 _atom_site_symmetry_multiplicity
 _atom_site_fract_x
 _atom_site_fract_y
 _atom_site_fract_z
 _atom_site_occupancy
 _atom_site_hle17_ddec_charge
 _atom_site_hle17_ddec_spin_density
 _atom_site_hle17_ddec_sum_bond_order
 _atom_site_hle17_magmom
 _atom_site_hse06_10hf_ddec_charge
 _atom_site_hse06_10hf_ddec_spin_density
 _atom_site_hse06_10hf_ddec_sum_bond_order
 _atom_site_hse06_10hf_magmom
 _atom_site_hse06_ddec_charge
 _atom_site_hse06_ddec_spin_density
 _atom_site_hse06_ddec_sum_bond_order
 _atom_site_hse06_magmom
 _atom_site_pbe_cm5_charge
 _atom_site_pbe_ddec_charge
 _atom_site_pbe_ddec_spin_density
 _atom_site_pbe_ddec_sum_bond_order
 _atom_site_pbe_magmom
Cu  Cu0  1  0.00000849  0.99999634  0.00000493  1  0.867758  -0.688764  1.742675  -0.495  0.852331  -0.776255  2.117711  -0.61  0.94317  -0.84327  2.048233  -0.69  0.745003  0.796329  -0.728991  2.167887  -0.559
Cu  Cu1  1  0.00477726  0.63287391  0.57836064  1  0.908427  -0.663181  1.78903  -0.48  0.905998  -0.797431  2.187534  -0.631  1.020761  -0.883898  2.078568  -0.729  0.675828  0.837806  -0.698085  2.248253  -0.54
Cu  Cu2  1  0.99522649  0.36713493  0.42164602  1  0.90855  0.694484  1.788778  0.48  0.906067  0.82148  2.187264  0.631  1.020791  0.917295  2.078492  0.73  0.675787  0.837798  0.71363  2.248128  0.539
H  H3  1  0.21131968  0.88855455  0.92471305  1  0.106035  0.000321  0.96357  0.0  0.107819  0.00031  1.039435  0.0  0.111341  0.00031  1.034994  0.0  0.105211  0.105199  0.000285  1.042731  0.0
H  H4  1  0.78866844  0.11143685  0.07529340  1  0.106103  0.000327  0.963492  0.0  0.107811  0.000307  1.039483  0.0  0.111345  0.000298  1.035008  0.0  0.105223  0.105212  0.000289  1.042763  0.0
H  H5  1  0.65592055  0.28166939  0.12433570  1  0.104034  -0.000107  0.950562  0.0  0.113814  -4.2e-05  1.010332  0.0  0.11751  -4.9e-05  1.007962  0.0  0.106029  0.111503  -3.5e-05  1.011271  0.0
H  H6  1  0.34406743  0.71832447  0.87566593  1  0.104021  1.9e-05  0.950611  0.0  0.113808  1.8e-05  1.010379  0.0  0.117505  2.3e-05  1.008003  0.0  0.106037  0.111507  -3e-06  1.011297  0.0
H  H7  1  0.09707455  0.33995774  0.11574294  1  0.136824  -7.2e-05  0.949499  0.0  0.14489  -0.000151  1.009988  0.0  0.148318  -0.000135  1.007856  0.0  0.128506  0.142126  -0.000183  1.012059  -0.001
H  H8  1  0.90292218  0.66004394  0.88426995  1  0.136904  -0.000154  0.949477  0.0  0.14497  -0.000295  1.009934  0.0  0.148401  -0.000187  1.007798  0.0  0.128529  0.142175  -0.000384  1.012042  -0.001
H  H9  1  0.21097709  0.62624268  0.20761073  1  0.086858  -4e-06  0.9856  0.0  0.102065  6e-06  1.044014  0.0  0.103916  -5e-06  1.043999  0.0  0.10045  0.100179  1.7e-05  1.045741  0.0
H  H10  1  0.78901763  0.37376110  0.79236953  1  0.086935  3.3e-05  0.985413  0.0  0.10214  -9e-06  1.043842  0.0  0.103983  4e-06  1.043848  0.0  0.100449  0.100256  -1.2e-05  1.045571  0.0
H  H11  1  0.33398576  0.90992659  0.29849234  1  0.090518  -0.000125  0.959526  0.0  0.101922  -0.00016  1.019887  0.0  0.104867  -0.000101  1.01867  0.0  0.100477  0.099995  -0.000212  1.020656  0.0
H  H12  1  0.66601165  0.09007809  0.70149704  1  0.090436  -9.1e-05  0.959547  0.0  0.101834  -0.000103  1.019906  0.0  0.104778  -6.4e-05  1.018694  0.0  0.10045  0.099907  -0.000159  1.020669  0.0
H  H13  1  0.62115550  0.04717842  0.33893882  1  0.104652  0.000191  0.981768  0.0  0.115013  0.000145  1.04246  0.0  0.118958  6.9e-05  1.040468  0.0  0.100754  0.11147  0.000198  1.045154  0.0
H  H14  1  0.37884744  0.95282346  0.66106715  1  0.104644  -0.000153  0.981779  0.0  0.115016  -0.000131  1.042462  0.0  0.118961  -6.3e-05  1.040468  0.0  0.10074  0.111471  -0.000191  1.045157  0.0
H  H15  1  0.77750621  0.89716113  0.28819620  1  0.09474  2.6e-05  0.95065  0.0  0.111053  1e-05  1.000589  0.0  0.1125  1.1e-05  1.00161  0.0  0.105254  0.110059  -1.1e-05  0.999694  0.0
H  H16  1  0.22249063  0.10283394  0.71180387  1  0.094709  1.5e-05  0.950624  0.0  0.11107  1e-05  1.000514  0.0  0.112517  9e-06  1.001535  0.0  0.105247  0.11007  -7e-06  0.999619  0.0
H  H17  1  0.65352339  0.61234303  0.20200094  1  0.087649  -7e-06  0.990587  0.0  0.099769  -2.8e-05  1.052159  0.0  0.102986  -1.8e-05  1.050006  0.0  0.098583  0.096679  -4.8e-05  1.05513  0.0
H  H18  1  0.34646603  0.38765007  0.79798633  1  0.087774  -4.9e-05  0.99037  0.0  0.099827  -6.6e-05  1.052029  0.0  0.103048  -5.1e-05  1.049865  0.0  0.098588  0.096691  -7.6e-05  1.055059  0.0
H  H19  1  0.92576110  0.49641748  0.06145032  1  0.128862  -0.001072  0.968753  -0.001  0.147036  -0.000739  1.030513  -0.001  0.148521  -0.000519  1.030949  -0.001  0.095215  0.145617  -0.000872  1.030751  -0.001
H  H20  1  0.07421064  0.50357526  0.93855031  1  0.128912  0.001129  0.96867  0.001  0.14701  0.000758  1.030521  0.001  0.148491  0.000536  1.030959  0.001  0.095158  0.145591  0.000883  1.030762  0.001
H  H21  1  0.81499005  0.59327448  0.13702263  1  0.137384  0.000595  0.970936  0.001  0.154111  0.00042  1.033194  0.0  0.155849  0.000289  1.033745  0.0  0.098397  0.15173  0.000388  1.03451  0.0
H  H22  1  0.18502288  0.40676064  0.86300105  1  0.137352  -0.000557  0.970964  -0.001  0.154087  -0.0004  1.033225  0.0  0.155821  -0.000274  1.033779  0.0  0.098371  0.151712  -0.000371  1.034536  0.0
H  H23  1  0.01358009  0.70135703  0.16942013  1  0.155272  0.000619  0.938356  0.001  0.174213  0.000329  0.995698  0.0  0.177181  0.000241  0.994543  0.0  0.104416  0.171634  0.000331  0.997284  0.001
H  H24  1  0.98643339  0.29864051  0.83057483  1  0.155217  -0.000862  0.938333  -0.001  0.174186  -0.000635  0.995647  -0.001  0.177157  -0.000418  0.994485  0.0  0.104406  0.171609  -0.00079  0.997222  -0.001
H  H25  1  0.88743767  0.84895803  0.50077402  1  0.14394  -0.001243  0.977815  -0.002  0.157432  -0.000945  1.043329  -0.001  0.159629  -0.000582  1.043131  -0.001  0.09468  0.15578  -0.001306  1.043755  -0.002
H  H26  1  0.11259084  0.15107323  0.49922129  1  0.143906  -0.001324  0.977771  -0.002  0.157403  -0.001011  1.043247  -0.001  0.159604  -0.00068  1.043044  -0.001  0.094689  0.155747  -0.001315  1.043674  -0.002
H  H27  1  0.91120613  0.04468803  0.58746263  1  0.14233  0.000481  0.945438  0.001  0.162775  0.00014  1.003542  0.0  0.16616  0.000105  1.001851  0.0  0.099468  0.160403  0.000186  1.004582  0.0
H  H28  1  0.08879502  0.95532605  0.41256465  1  0.142398  0.000373  0.945221  0.0  0.162794  2.7e-05  1.003384  0.0  0.166179  5.3e-05  1.001695  0.0  0.099451  0.160414  -2.8e-05  1.004434  0.0
H  H29  1  0.74073090  0.89193574  0.57081089  1  0.131125  0.000455  0.966757  0.001  0.151802  0.000172  1.027565  0.0  0.154562  0.000139  1.02715  0.0  0.096744  0.149796  0.000213  1.027992  0.0
H  H30  1  0.25928736  0.10804773  0.42918796  1  0.131022  0.000447  0.966682  0.001  0.151768  0.000145  1.027427  0.0  0.154527  0.000121  1.027013  0.0  0.096711  0.149754  0.000126  1.027863  0.0
H  H31  1  0.51900569  0.80586120  0.65635361  1  0.134003  0.001536  0.951393  0.002  0.151044  0.001077  1.013318  0.001  0.152051  0.000746  1.014071  0.001  0.097209  0.149965  0.001113  1.013016  0.001
H  H32  1  0.48100375  0.19414677  0.34364284  1  0.133979  -0.001412  0.951473  -0.002  0.151049  -0.001013  1.013349  -0.001  0.152056  -0.000688  1.0141  -0.001  0.097207  0.149976  -0.001053  1.013042  -0.001
H  H33  1  0.49660190  0.69334089  0.47584066  1  0.135615  -0.000431  0.966968  0.0  0.152785  -0.000275  1.029583  0.0  0.153866  -0.00018  1.031678  0.0  0.09875  0.15204  -0.000293  1.027957  0.0
H  H34  1  0.50339183  0.30666487  0.52415160  1  0.135722  0.000467  0.966882  0.0  0.152861  0.000297  1.02952  0.0  0.15394  0.000196  1.031616  0.0  0.098781  0.15211  0.000321  1.027912  0.0
H  H35  1  0.51851316  0.61811316  0.60089935  1  0.148444  -0.001161  0.931876  -0.001  0.166855  -0.000904  0.988652  -0.001  0.169348  -0.000631  0.987778  0.0  0.100854  0.164312  -0.000822  0.990636  -0.001
H  H36  1  0.48149260  0.38189377  0.39909258  1  0.148486  0.001228  0.931912  0.001  0.166953  0.000941  0.988611  0.001  0.169448  0.000663  0.987736  0.0  0.100863  0.164408  0.00085  0.990591  0.001
C  C37  1  0.33726012  0.93787957  0.96055432  1  -0.055465  0.000839  3.686338  0.001  -0.077251  0.000487  3.941008  0.0  -0.077863  0.000539  3.960041  0.0  -0.072291  -0.077649  0.000469  3.927531  0.0
C  C38  1  0.66272957  0.06211290  0.03945551  1  -0.055392  0.00093  3.686411  0.001  -0.077144  0.000554  3.941042  0.001  -0.077752  0.000593  3.960081  0.001  -0.072311  -0.077561  0.000543  3.927553  0.0
C  C39  1  0.42399918  0.09809031  0.03015361  1  -0.026031  0.000483  3.812996  0.0  -0.013759  0.000305  4.055833  0.0  -0.017769  0.000234  4.078041  0.0  -0.005757  -0.01206  0.000258  4.039787  0.0
C  C40  1  0.57599040  0.90190454  0.96985422  1  -0.026185  -0.000191  3.813097  -0.001  -0.013852  0.000111  4.055966  0.0  -0.017864  0.000101  4.078166  0.0  -0.005729  -0.012151  0.000247  4.039929  0.0
C  C41  1  0.58726733  0.15827482  0.06885160  1  -0.067736  0.001027  3.70005  0.001  -0.093278  0.000364  3.954337  0.0  -0.092622  0.00038  3.971788  0.0  -0.078733  -0.090429  0.000371  3.940149  0.0
C  C42  1  0.41272225  0.84172003  0.93115623  1  -0.067609  0.001004  3.700159  0.001  -0.093182  0.000525  3.954468  0.0  -0.09252  0.000557  3.971909  0.001  -0.078752  -0.090332  0.000416  3.940282  0.0
C  C43  1  0.35039651  0.20306490  0.06280700  1  0.384987  0.005379  3.677375  0.005  0.353468  0.000409  3.953118  0.0  0.375944  0.001448  3.96086  0.001  0.22683  0.339394  -0.000378  3.946752  -0.001
C  C44  1  0.64959611  0.79693232  0.93719914  1  0.38519  0.005102  3.677254  0.005  0.35344  0.000446  3.953189  0.0  0.375955  0.00151  3.96091  0.002  0.226773  0.339355  -0.000331  3.946841  -0.001
C  C45  1  0.20249617  0.32531483  0.10493475  1  -0.028152  0.003611  3.656404  0.004  -0.067518  0.000883  3.929539  0.001  -0.066276  0.001316  3.948048  0.002  0.008796  -0.068671  0.000411  3.917458  0.001
C  C46  1  0.79749584  0.67468580  0.89507446  1  -0.028459  0.002283  3.656869  0.002  -0.067764  0.000647  3.929988  0.001  -0.066517  0.001258  3.948481  0.002  0.00872  -0.068888  0.000316  3.917924  0.001
C  C47  1  0.35087621  0.43427626  0.14182032  1  0.177694  -0.003259  3.707164  -0.003  0.161344  -0.001635  3.972635  -0.002  0.169168  -0.001699  3.98792  -0.002  0.085789  0.156341  -0.001869  3.962613  -0.002
C  C48  1  0.64911875  0.56572483  0.85817227  1  0.177849  -0.004689  3.707234  -0.005  0.161309  -0.002061  3.972862  -0.002  0.169157  -0.001944  3.988151  -0.002  0.085643  0.156307  -0.001861  3.962835  -0.002
C  C49  1  0.42371368  0.60012449  0.19623984  1  0.006051  5.8e-05  3.869827  0.0  0.021418  -0.000132  4.108626  0.0  0.020205  -4.4e-05  4.131652  0.0  -0.018018  0.021993  -0.0002  4.09285  0.0
C  C50  1  0.57627709  0.39987445  0.80374682  1  0.006  0.000364  3.869682  0.0  0.021384  -0.000106  4.108543  0.0  0.020179  -2.1e-05  4.131559  0.0  -0.017996  0.021956  -0.000204  4.092762  0.0
C  C51  1  0.33485042  0.68589227  0.22506267  1  -0.099074  -0.000596  3.729714  -0.001  -0.116926  -7.2e-05  3.965651  0.0  -0.11925  -0.000115  3.987958  0.0  -0.088434  -0.117303  -4.9e-05  3.953286  0.0
C  C52  1  0.66514501  0.31410789  0.77492203  1  -0.099169  -0.00104  3.729422  -0.001  -0.117019  -0.000238  3.965372  0.0  -0.119341  -0.000215  3.98766  0.0  -0.088452  -0.11739  -0.000117  3.952995  0.0
C  C53  1  0.40502803  0.84558356  0.27722313  1  -0.067536  0.000188  3.769032  0.0  -0.076721  -3.3e-05  4.013715  0.0  -0.079128  1.8e-05  4.036052  0.0  -0.087317  -0.074834  -6.8e-05  3.999489  0.0
C  C54  1  0.59496902  0.15441753  0.72276966  1  -0.067465  0.000425  3.769001  0.0  -0.07663  1.3e-05  4.013689  0.0  -0.079038  6.5e-05  4.036029  0.0  -0.087314  -0.074745  -6.9e-05  3.999458  0.0
C  C55  1  0.56461439  0.92234866  0.30010878  1  -0.064955  2.2e-05  3.728009  0.0  -0.081591  0.000151  3.974346  0.0  -0.084149  -2.5e-05  3.996541  0.0  -0.087158  -0.080266  0.00015  3.959641  0.0
C  C56  1  0.43538589  0.07765226  0.69988994  1  -0.064929  -0.001239  3.727997  -0.001  -0.081587  -0.000303  3.974337  0.0  -0.084148  -0.000256  3.996541  0.0  -0.08713  -0.080263  -0.000307  3.959631  0.0
C  C57  1  0.65338041  0.83759047  0.27120784  1  -0.059094  -5.3e-05  3.762224  0.0  -0.068609  -2.9e-05  4.012285  0.0  -0.071415  1.8e-05  4.035741  0.0  -0.087492  -0.066418  -9.6e-05  3.993515  0.0
C  C58  1  0.34661533  0.16240471  0.72878837  1  -0.059073  0.000278  3.762225  0.0  -0.068619  0.0  4.012279  0.0  -0.071425  6.2e-05  4.035734  0.0  -0.087489  -0.066417  -0.000113  3.99349  0.0
C  C59  1  0.58422968  0.67819262  0.22109779  1  -0.104559  -0.000444  3.731416  0.0  -0.135699  -0.000288  3.989024  0.0  -0.136625  -0.000272  4.007486  0.0  -0.093757  -0.131232  -0.000341  3.974295  0.0
C  C60  1  0.41576279  0.32180283  0.77888873  1  -0.104628  -0.001035  3.731307  -0.001  -0.13572  -0.000392  3.988914  0.0  -0.136645  -0.000341  4.007369  0.0  -0.093716  -0.131213  -0.000341  3.974204  0.0
C  C61  1  0.92813852  0.58890872  0.15459207  1  -0.454925  -0.000112  3.64092  0.0  -0.534573  5.8e-05  3.873323  0.0  -0.543966  8.6e-05  3.876111  0.0  -0.244663  -0.526459  0.000122  3.873096  0.0
C  C62  1  0.07186314  0.41110010  0.84541533  1  -0.454916  0.000104  3.640739  0.0  -0.534543  -0.000178  3.87317  -0.001  -0.543929  -0.000109  3.875958  0.0  -0.244597  -0.526431  -0.000284  3.872942  -0.001
C  C63  1  0.95858890  0.55875801  0.28367437  1  0.725039  0.000487  3.82166  0.001  0.695189  9.2e-05  4.120402  0.0  0.735862  0.000177  4.114311  0.0  0.211873  0.666771  0.000119  4.126362  0.0
C  C64  1  0.04141488  0.44124863  0.71632770  1  0.725043  -0.000111  3.82161  -0.001  0.695285  8.7e-05  4.120231  0.0  0.73596  8e-06  4.11414  0.0  0.211952  0.666875  -8e-06  4.126203  0.0
C  C65  1  0.86607338  0.92978707  0.58705762  1  -0.462502  -0.008645  3.657019  -0.009  -0.539067  -0.00538  3.884883  -0.006  -0.547989  -0.003648  3.886661  -0.004  -0.250208  -0.532767  -0.006555  3.883379  -0.007
C  C66  1  0.13393883  0.07021737  0.41293972  1  -0.46241  -0.008797  3.656792  -0.009  -0.539018  -0.005567  3.884611  -0.006  -0.547941  -0.003794  3.886387  -0.004  -0.250161  -0.5327  -0.00677  3.883118  -0.007
C  C67  1  0.93734930  0.93707381  0.72629013  1  0.735605  0.005521  3.82117  0.009  0.707651  0.001158  4.115501  0.004  0.746509  0.001563  4.106982  0.004  0.20016  0.681507  0.000693  4.120497  0.004
C  C68  1  0.06266590  0.06290519  0.27370207  1  0.735365  0.005095  3.821786  0.008  0.707563  0.000807  4.115829  0.004  0.746422  0.001291  4.107306  0.003  0.200079  0.681425  0.000269  4.120823  0.003
C  C69  1  0.46842543  0.68927999  0.57252213  1  -0.438712  0.000283  3.614521  0.0  -0.514878  9.1e-05  3.844277  0.0  -0.523346  2.7e-05  3.847108  0.0  -0.240711  -0.507125  -0.000332  3.841776  -0.001
C  C70  1  0.53157625  0.31072451  0.42747328  1  -0.438885  -4.8e-05  3.61454  0.0  -0.515076  6.1e-05  3.844269  0.0  -0.523546  0.000107  3.847102  0.0  -0.240779  -0.507324  0.000476  3.841764  0.001
C  C71  1  0.29411926  0.61737835  0.54293100  1  0.734392  -0.000163  3.809423  0.0  0.704682  -9.6e-05  4.110172  0.0  0.745646  -0.000133  4.10434  0.0  0.213479  0.676597  -0.000154  4.113651  0.0
C  C72  1  0.70588370  0.38262137  0.45706944  1  0.734398  0.000515  3.8093  0.0  0.704676  0.000251  4.110079  0.0  0.745638  0.00029  4.104253  0.0  0.213486  0.676595  0.000277  4.113555  0.0
N  N73  1  0.20407427  0.18137597  0.05492046  1  -0.380441  -0.063159  3.268786  -0.079  -0.340513  -0.048416  3.569679  -0.064  -0.36996  -0.041275  3.586561  -0.058  -0.35668  -0.322369  -0.052271  3.559614  -0.067
N  N74  1  0.79591993  0.81862445  0.94509646  1  -0.380417  -0.063408  3.268795  -0.08  -0.34039  -0.048415  3.569656  -0.064  -0.369836  -0.041283  3.586529  -0.058  -0.356567  -0.322247  -0.052244  3.559581  -0.067
O  O75  1  0.44418412  0.35605906  0.11494924  1  -0.245304  -0.004216  2.363247  -0.005  -0.170994  -0.003356  2.581723  -0.005  -0.188916  -0.002502  2.585982  -0.004  -0.10227  -0.160851  -0.003986  2.580109  -0.005
O  O76  1  0.55580571  0.64393750  0.88503932  1  -0.245408  -0.004127  2.363161  -0.005  -0.170869  -0.00338  2.5816  -0.005  -0.188868  -0.002519  2.585905  -0.004  -0.102173  -0.160723  -0.003997  2.579987  -0.005
O  O77  1  0.97475164  0.66352466  0.40113584  1  -0.586287  -0.074128  2.06074  -0.098  -0.558463  -0.052529  2.328308  -0.076  -0.604418  -0.041755  2.318676  -0.064  -0.310511  -0.529706  -0.05408  2.335042  -0.075
O  O78  1  0.02525102  0.33648427  0.59886790  1  -0.586333  0.077586  2.060809  0.098  -0.558555  0.054024  2.328349  0.076  -0.6045  0.043365  2.318741  0.064  -0.310583  -0.529803  0.055177  2.335111  0.075
O  O79  1  0.96430046  0.43004803  0.26377226  1  -0.594382  0.072362  2.062489  0.092  -0.564584  0.051444  2.33465  0.072  -0.611176  0.041437  2.326066  0.061  -0.310362  -0.535174  0.053348  2.340301  0.072
O  O80  1  0.03570172  0.56995972  0.73623195  1  -0.5943  -0.069225  2.062306  -0.092  -0.56462  -0.05013  2.334535  -0.072  -0.611226  -0.040003  2.325922  -0.061  -0.310395  -0.535231  -0.052451  2.34015  -0.073
O  O81  1  0.00603442  0.85362729  0.73569947  1  -0.642972  0.00082  1.971297  -0.002  -0.609614  0.001336  2.229496  0.0  -0.643553  0.002105  2.212081  0.001  -0.323876  -0.587918  0.000452  2.240417  -0.001
O  O82  1  0.99395467  0.14632999  0.26427954  1  -0.64305  -0.001391  1.970992  -0.002  -0.60974  -0.000406  2.229164  -0.001  -0.64367  0.000258  2.211767  0.0  -0.323983  -0.588055  -0.001022  2.240103  -0.002
O  O83  1  0.92271236  0.03394339  0.83605302  1  -0.611964  -0.112189  1.976699  -0.148  -0.589706  -0.070225  2.248256  -0.101  -0.633321  -0.054716  2.240758  -0.084  -0.337544  -0.560634  -0.079992  2.253281  -0.111
O  O84  1  0.07732124  0.96603875  0.16395155  1  -0.611866  -0.111913  1.977056  -0.148  -0.589591  -0.070224  2.248527  -0.102  -0.633187  -0.054785  2.241027  -0.084  -0.337431  -0.560591  -0.079894  2.253587  -0.111
O  O85  1  0.23097720  0.70623265  0.59867979  1  -0.594498  -0.074745  2.079444  -0.099  -0.568002  -0.051601  2.352786  -0.075  -0.615698  -0.040807  2.34417  -0.063  -0.311508  -0.537309  -0.054834  2.357779  -0.076
O  O86  1  0.76902465  0.29376934  0.40132231  1  -0.59441  0.078408  2.079475  0.099  -0.567942  0.053232  2.352842  0.075  -0.61563  0.042471  2.344258  0.063  -0.311461  -0.537237  0.056135  2.357858  0.076
O  O87  1  0.22449752  0.47379169  0.46387740  1  -0.589833  0.081469  2.034097  0.102  -0.568594  0.054088  2.303531  0.075  -0.615831  0.043191  2.296284  0.063  -0.318879  -0.537825  0.05763  2.307922  0.078
O  O88  1  0.77550488  0.52621132  0.53612986  1  -0.589826  -0.077691  2.033846  -0.102  -0.568591  -0.052432  2.30329  -0.075  -0.615841  -0.041512  2.296019  -0.063  -0.318908  -0.537842  -0.056244  2.307664  -0.078
