# generated using pymatgen
data_ZnH18C20(N2O)6
_symmetry_space_group_name_H-M   'P 1'
_cell_length_a   9.66354133
_cell_length_b   10.20427547
_cell_length_c   11.22535398
_cell_angle_alpha   89.99998159
_cell_angle_beta   95.35508637
_cell_angle_gamma   89.99998867
_symmetry_Int_Tables_number   1
_chemical_formula_structural   ZnH18C20(N2O)6
_chemical_formula_sum   'Zn2 H36 C40 N24 O12'
_cell_volume   1102.09458852
_cell_formula_units_Z   2
loop_
 _symmetry_equiv_pos_site_id
 _symmetry_equiv_pos_as_xyz
  1  'x, y, z'
loop_
 _atom_site_type_symbol
 _atom_site_label
 _atom_site_symmetry_multiplicity
 _atom_site_fract_x
 _atom_site_fract_y
 _atom_site_fract_z
 _atom_site_occupancy
 _atom_site_hle17_bader_spin_density
 _atom_site_hle17_ddec_charge
 _atom_site_hle17_ddec_spin_density
 _atom_site_hle17_ddec_sum_bond_order
 _atom_site_hle17_magmom
 _atom_site_hse06_10hf_bader_spin_density
 _atom_site_hse06_10hf_ddec_charge
 _atom_site_hse06_10hf_ddec_spin_density
 _atom_site_hse06_10hf_ddec_sum_bond_order
 _atom_site_hse06_10hf_magmom
 _atom_site_hse06_bader_spin_density
 _atom_site_hse06_ddec_charge
 _atom_site_hse06_ddec_spin_density
 _atom_site_hse06_ddec_sum_bond_order
 _atom_site_hse06_magmom
 _atom_site_pbe_bader_spin_density
 _atom_site_pbe_cm5_charge
 _atom_site_pbe_ddec_charge
 _atom_site_pbe_ddec_spin_density
 _atom_site_pbe_ddec_sum_bond_order
 _atom_site_pbe_magmom
Zn  Zn0  1  0.99999926  0.50000004  0.50000057  1  0  0.941367  0  1.880201  0  0  0.74962  0  2.316016  0  0  0.793554  0  2.272627  0  0  0.705235  0.718961  0  2.345691  0
Zn  Zn1  1  0.49999949  0.99999924  0.99999955  1  0  0.941389  0  1.880171  0  0  0.749642  0  2.315973  0  0  0.793589  0  2.272584  0  0  0.705242  0.718989  0  2.345632  0
H  H2  1  0.25623769  0.40291822  0.67515365  1  0  0.100076  0  0.956294  0  0  0.102609  0  1.032024  0  0  0.106065  0  1.027188  0  0  0.134418  0.099981  0  1.035643  0
H  H3  1  0.24376311  0.90291646  0.82484616  1  0  0.100096  0  0.956273  0  0  0.102635  0  1.032003  0  0  0.106095  0  1.027158  0  0  0.134431  0.100012  0  1.035616  0
H  H4  1  0.74376287  0.59708195  0.32484536  1  0  0.100073  0  0.956272  0  0  0.102608  0  1.032014  0  0  0.106067  0  1.027171  0  0  0.134417  0.099987  0  1.035632  0
H  H5  1  0.75623640  0.09708175  0.17515366  1  0  0.100071  0  0.956281  0  0  0.102598  0  1.032022  0  0  0.10606  0  1.027174  0  0  0.13441  0.099976  0  1.035628  0
H  H6  1  0.25497377  0.67270029  0.38948489  1  0  0.106484  0  0.968716  0  0  0.110825  0  1.038289  0  0  0.113289  0  1.036906  0  0  0.117996  0.108896  0  1.039667  0
H  H7  1  0.24502543  0.17270012  0.11051448  1  0  0.106493  0  0.968722  0  0  0.110825  0  1.038305  0  0  0.113288  0  1.036928  0  0  0.118006  0.108897  0  1.039682  0
H  H8  1  0.74502471  0.32730086  0.61051484  1  0  0.10647  0  0.968753  0  0  0.110805  0  1.038333  0  0  0.113272  0  1.036943  0  0  0.117999  0.108879  0  1.039707  0
H  H9  1  0.75497616  0.82730104  0.88948551  1  0  0.106448  0  0.968812  0  0  0.110792  0  1.038383  0  0  0.11325  0  1.037001  0  0  0.117992  0.108865  0  1.039757  0
H  H10  1  0.50122753  0.70000350  0.53534883  1  0  0.121956  0  0.96709  0  0  0.129429  0  1.033702  0  0  0.131734  0  1.033152  0  0  0.122494  0.128031  0  1.033541  0
H  H11  1  0.99877129  0.20000316  0.96465139  1  0  0.121943  0  0.967072  0  0  0.129414  0  1.033691  0  0  0.13172  0  1.033139  0  0  0.122487  0.128015  0  1.033535  0
H  H12  1  0.49877094  0.29999765  0.46465179  1  0  0.121939  0  0.967081  0  0  0.12941  0  1.033703  0  0  0.131716  0  1.03315  0  0  0.122483  0.128014  0  1.03354  0
H  H13  1  0.00122823  0.79999604  0.03534842  1  0  0.121954  0  0.967073  0  0  0.129425  0  1.033691  0  0  0.131733  0  1.033136  0  0  0.122495  0.128034  0  1.03353  0
H  H14  1  0.60870421  0.56230529  0.71859155  1  0  0.103825  0  0.898817  0  0  0.116719  0  0.959065  0  0  0.117677  0  0.95806  0  0  0.142341  0.115824  0  0.960054  0
H  H15  1  0.89129569  0.06230405  0.78140701  1  0  0.103846  0  0.898827  0  0  0.116727  0  0.959061  0  0  0.117684  0  0.958056  0  0  0.142347  0.115832  0  0.960051  0
H  H16  1  0.39129531  0.43769488  0.28140827  1  0  0.103825  0  0.898832  0  0  0.11671  0  0.959072  0  0  0.117666  0  0.958067  0  0  0.142337  0.115817  0  0.960058  0
H  H17  1  0.10870382  0.93769514  0.21859191  1  0  0.103836  0  0.898818  0  0  0.116734  0  0.959063  0  0  0.117691  0  0.958058  0  0  0.142351  0.115836  0  0.960046  0
H  H18  1  0.50720476  0.42962268  0.76714018  1  0  0.1021  0  0.933006  0  0  0.107307  0  1.006514  0  0  0.108603  0  1.005803  0  0  0.134776  0.106257  0  1.007149  0
H  H19  1  0.99279505  0.92962286  0.73285827  1  0  0.102107  0  0.933003  0  0  0.107279  0  1.00653  0  0  0.108576  0  1.005818  0  0  0.134766  0.106224  0  1.007178  0
H  H20  1  0.49279475  0.57037652  0.23285874  1  0  0.102099  0  0.933013  0  0  0.107292  0  1.006515  0  0  0.108589  0  1.005803  0  0  0.134771  0.106238  0  1.007162  0
H  H21  1  0.00720446  0.07037732  0.26714154  1  0  0.10211  0  0.932983  0  0  0.107305  0  1.006507  0  0  0.108601  0  1.005795  0  0  0.134786  0.106248  0  1.007151  0
H  H22  1  0.29308493  0.38862515  0.89162917  1  0  0.123786  0  0.977668  0  0  0.130453  0  1.044779  0  0  0.133721  0  1.043295  0  0  0.10582  0.128091  0  1.045805  0
H  H23  1  0.20691588  0.88862445  0.60836796  1  0  0.123758  0  0.977748  0  0  0.130462  0  1.044806  0  0  0.133727  0  1.043332  0  0  0.105838  0.128098  0  1.045829  0
H  H24  1  0.70691355  0.61137502  0.10836966  1  0  0.123742  0  0.977745  0  0  0.130445  0  1.04481  0  0  0.133713  0  1.043328  0  0  0.105808  0.128089  0  1.045834  0
H  H25  1  0.79308572  0.11137474  0.39163202  1  0  0.123765  0  0.977719  0  0  0.130465  0  1.044785  0  0  0.13373  0  1.043308  0  0  0.10583  0.128099  0  1.045807  0
H  H26  1  0.13902964  0.41347372  0.05760239  1  0  0.100028  0  0.982597  0  0  0.10848  0  1.046434  0  0  0.111565  0  1.044904  0  0  0.100493  0.106365  0  1.047195  0
H  H27  1  0.36097158  0.91347484  0.44239529  1  0  0.099981  0  0.982604  0  0  0.10843  0  1.046453  0  0  0.111516  0  1.044922  0  0  0.10048  0.106316  0  1.047212  0
H  H28  1  0.86097091  0.58652547  0.94239751  1  0  0.09998  0  0.982502  0  0  0.108435  0  1.046354  0  0  0.11152  0  1.044824  0  0  0.100471  0.106326  0  1.047111  0
H  H29  1  0.63902897  0.08652534  0.55760372  1  0  0.099986  0  0.982614  0  0  0.108438  0  1.046462  0  0  0.111523  0  1.044932  0  0  0.100479  0.106324  0  1.047221  0
H  H30  1  0.13468436  0.61475698  0.17466473  1  0  0.097382  0  0.969537  0  0  0.100071  0  1.043624  0  0  0.10373  0  1.041151  0  0  0.098467  0.097421  0  1.045364  0
H  H31  1  0.36531589  0.11475867  0.32533384  1  0  0.097355  0  0.969542  0  0  0.100044  0  1.043629  0  0  0.103705  0  1.041153  0  0  0.098443  0.097392  0  1.045358  0
H  H32  1  0.86531411  0.38524319  0.82533499  1  0  0.097352  0  0.969462  0  0  0.100051  0  1.043549  0  0  0.103707  0  1.041077  0  0  0.098454  0.097402  0  1.04528  0
H  H33  1  0.63468467  0.88524150  0.67466605  1  0  0.097375  0  0.969536  0  0  0.100057  0  1.043631  0  0  0.103714  0  1.04116  0  0  0.098463  0.097406  0  1.045364  0
H  H34  1  0.28600049  0.80754969  0.13275273  1  0  0.112523  0  0.966329  0  0  0.11775  0  1.03484  0  0  0.121025  0  1.032837  0  0  0.10612  0.115225  0  1.036499  0
H  H35  1  0.21399867  0.30755139  0.36724659  1  0  0.112514  0  0.966301  0  0  0.117739  0  1.034822  0  0  0.121015  0  1.032818  0  0  0.106112  0.115213  0  1.036482  0
H  H36  1  0.71399799  0.19245048  0.86724610  1  0  0.112506  0  0.966287  0  0  0.117732  0  1.034803  0  0  0.121008  0  1.032799  0  0  0.106119  0.115209  0  1.036457  0
H  H37  1  0.78600188  0.69244878  0.63275331  1  0  0.112483  0  0.966302  0  0  0.117708  0  1.034822  0  0  0.120983  0  1.032818  0  0  0.106105  0.115182  0  1.036481  0
C  C38  1  0.28559437  0.47999377  0.61600721  1  0  0.187388  0  3.647786  0  0  0.117955  0  3.927476  0  0  0.133729  0  3.93683  0  0  0.145657  0.107342  0  3.921268  0
C  C39  1  0.21440536  0.97999297  0.88399338  1  0  0.187326  0  3.647813  0  0  0.11788  0  3.927508  0  0  0.133656  0  3.936858  0  0  0.145631  0.107264  0  3.921294  0
C  C40  1  0.71440619  0.52000641  0.38399091  1  0  0.187353  0  3.647677  0  0  0.117898  0  3.927401  0  0  0.133676  0  3.936747  0  0  0.145639  0.10728  0  3.921195  0
C  C41  1  0.78559415  0.02000623  0.11600733  1  0  0.187406  0  3.647778  0  0  0.117976  0  3.927469  0  0  0.13375  0  3.936822  0  0  0.145666  0.10736  0  3.921253  0
C  C42  1  0.29130421  0.62068090  0.47038392  1  0  0.018489  0  3.706355  0  0  -0.016254  0  3.975897  0  0  -0.014182  0  3.994991  0  0  -0.000813  -0.017555  0  3.962952  0
C  C43  1  0.20869500  0.12067978  0.02961457  1  0  0.018493  0  3.706466  0  0  -0.016244  0  3.976006  0  0  -0.014174  0  3.995102  0  0  -0.00081  -0.017557  0  3.963077  0
C  C44  1  0.70869530  0.37932025  0.52961590  1  0  0.018488  0  3.706475  0  0  -0.016253  0  3.976021  0  0  -0.014184  0  3.995122  0  0  -0.000814  -0.017557  0  3.963072  0
C  C45  1  0.79130452  0.87932039  0.97038346  1  0  0.018525  0  3.70644  0  0  -0.016221  0  3.976002  0  0  -0.014141  0  3.995092  0  0  -0.000791  -0.017517  0  3.963052  0
C  C46  1  0.41259225  0.63663301  0.54255915  1  0  -0.043096  0  3.630064  0  0  -0.08629  0  3.893088  0  0  -0.084065  0  3.910962  0  0  0.002928  -0.087456  0  3.880302  0
C  C47  1  0.08740861  0.13663177  0.95744073  1  0  -0.043108  0  3.630053  0  0  -0.086299  0  3.893087  0  0  -0.084073  0  3.91096  0  0  0.00292  -0.087462  0  3.880306  0
C  C48  1  0.58740830  0.36336814  0.45744163  1  0  -0.043086  0  3.629988  0  0  -0.086278  0  3.893015  0  0  -0.084053  0  3.910891  0  0  0.002945  -0.087438  0  3.880221  0
C  C49  1  0.91259194  0.86336743  0.04255917  1  0  -0.043049  0  3.630017  0  0  -0.086244  0  3.893038  0  0  -0.084017  0  3.910911  0  0  0.002939  -0.087419  0  3.880266  0
C  C50  1  0.50485478  0.53258736  0.73927650  1  0  0.089804  0  3.611026  0  0  0.010122  0  3.861319  0  0  0.019457  0  3.869143  0  0  0.071608  0.003891  0  3.856252  0
C  C51  1  0.99514513  0.03258611  0.76072296  1  0  0.089724  0  3.61108  0  0  0.010133  0  3.861253  0  0  0.019468  0  3.869077  0  0  0.0716  0.003892  0  3.856198  0
C  C52  1  0.49514473  0.46741379  0.26072331  1  0  0.089749  0  3.61105  0  0  0.01013  0  3.861249  0  0  0.019466  0  3.869073  0  0  0.071598  0.003892  0  3.856188  0
C  C53  1  0.00485439  0.96741308  0.23927686  1  0  0.089737  0  3.610999  0  0  0.010032  0  3.861328  0  0  0.019369  0  3.869152  0  0  0.071521  0.003819  0  3.856231  0
C  C54  1  0.37196196  0.58855506  0.91872650  1  0  0.103024  0  3.782724  0  0  0.084238  0  4.038837  0  0  0.08925  0  4.060465  0  0  0.103554  0.08086  0  4.024117  0
C  C55  1  0.12804099  0.08855492  0.58127358  1  0  0.103122  0  3.782385  0  0  0.084214  0  4.03867  0  0  0.089226  0  4.060298  0  0  0.103551  0.080842  0  4.023943  0
C  C56  1  0.62803859  0.41144511  0.08127429  1  0  0.103189  0  3.782597  0  0  0.084345  0  4.038793  0  0  0.089356  0  4.060421  0  0  0.103615  0.080974  0  4.024079  0
C  C57  1  0.87196060  0.91144427  0.41872641  1  0  0.10316  0  3.782565  0  0  0.084284  0  4.038793  0  0  0.089294  0  4.060422  0  0  0.103569  0.08091  0  4.024067  0
C  C58  1  0.28966222  0.47991335  0.94159989  1  0  -0.145846  0  3.71308  0  0  -0.167774  0  3.973823  0  0  -0.172269  0  3.994231  0  0  -0.096674  -0.164907  0  3.960099  0
C  C59  1  0.21033856  0.97991365  0.55839899  1  0  -0.145983  0  3.713149  0  0  -0.167903  0  3.973924  0  0  -0.172401  0  3.994333  0  0  -0.096754  -0.165032  0  3.960191  0
C  C60  1  0.71033729  0.52008682  0.05839903  1  0  -0.145939  0  3.713173  0  0  -0.167872  0  3.97393  0  0  -0.17237  0  3.99434  0  0  -0.096703  -0.16501  0  3.960215  0
C  C61  1  0.78966200  0.02008653  0.44160091  1  0  -0.14598  0  3.713073  0  0  -0.167909  0  3.973842  0  0  -0.172406  0  3.99425  0  0  -0.096729  -0.165039  0  3.960107  0
C  C62  1  0.20499268  0.49432610  0.03412825  1  0  -0.034035  0  3.709899  0  0  -0.052594  0  3.961244  0  0  -0.053115  0  3.982488  0  0  -0.083691  -0.052356  0  3.946606  0
C  C63  1  0.29500852  0.99432624  0.46587119  1  0  -0.033874  0  3.709799  0  0  -0.052425  0  3.961132  0  0  -0.052947  0  3.982378  0  0  -0.083636  -0.052193  0  3.946493  0
C  C64  1  0.79500579  0.50567407  0.96587237  1  0  -0.033906  0  3.70978  0  0  -0.052476  0  3.961147  0  0  -0.052998  0  3.982387  0  0  -0.083654  -0.052246  0  3.946519  0
C  C65  1  0.70499307  0.00567295  0.53412969  1  0  -0.033861  0  3.709823  0  0  -0.052418  0  3.961166  0  0  -0.05294  0  3.98241  0  0  -0.08364  -0.052182  0  3.946519  0
C  C66  1  0.20259149  0.61103306  0.10233960  1  0  -0.073758  0  3.744308  0  0  -0.087149  0  3.997659  0  0  -0.090621  0  4.019248  0  0  -0.091086  -0.084708  0  3.982941  0
C  C67  1  0.29740876  0.11103473  0.39766076  1  0  -0.073772  0  3.744344  0  0  -0.087165  0  3.997688  0  0  -0.090634  0  4.019269  0  0  -0.091069  -0.084718  0  3.982954  0
C  C68  1  0.79740698  0.38896712  0.89766101  1  0  -0.073797  0  3.74432  0  0  -0.08719  0  3.997674  0  0  -0.090668  0  4.019283  0  0  -0.091084  -0.084742  0  3.982942  0
C  C69  1  0.70259283  0.88896642  0.60234012  1  0  -0.073843  0  3.7444  0  0  -0.087227  0  3.997761  0  0  -0.090702  0  4.019359  0  0  -0.091103  -0.084781  0  3.983027  0
C  C70  1  0.28490289  0.71794314  0.08007383  1  0  -0.128884  0  3.731554  0  0  -0.150519  0  3.985765  0  0  -0.152144  0  4.006597  0  0  -0.09103  -0.149157  0  3.971604  0
C  C71  1  0.21509837  0.21794287  0.41992658  1  0  -0.128844  0  3.731641  0  0  -0.150474  0  3.985843  0  0  -0.152097  0  4.006672  0  0  -0.090995  -0.149117  0  3.971691  0
C  C72  1  0.71509662  0.28205801  0.91992687  1  0  -0.128809  0  3.731566  0  0  -0.150434  0  3.985759  0  0  -0.152058  0  4.006585  0  0  -0.091005  -0.149073  0  3.971605  0
C  C73  1  0.78490322  0.78205731  0.58007340  1  0  -0.12879  0  3.731583  0  0  -0.150412  0  3.98577  0  0  -0.152034  0  4.006594  0  0  -0.091004  -0.149061  0  3.971626  0
C  C74  1  0.37041088  0.70547173  0.98601030  1  0  0.109418  0  3.807374  0  0  0.105883  0  4.058782  0  0  0.105534  0  4.082628  0  0  0.092069  0.105901  0  4.042682  0
C  C75  1  0.12959100  0.20547357  0.51398965  1  0  0.109396  0  3.807306  0  0  0.105887  0  4.058745  0  0  0.105538  0  4.082592  0  0  0.092059  0.105894  0  4.042661  0
C  C76  1  0.62958967  0.29452746  0.01398959  1  0  0.109387  0  3.807438  0  0  0.105856  0  4.058849  0  0  0.105508  0  4.082696  0  0  0.092064  0.105859  0  4.042768  0
C  C77  1  0.87040955  0.79452660  0.48601025  1  0  0.109369  0  3.807425  0  0  0.105852  0  4.058843  0  0  0.105503  0  4.082689  0  0  0.092058  0.105863  0  4.042751  0
N  N78  1  0.21290281  0.52323939  0.51757856  1  0  -0.388798  0  3.325225  0  0  -0.308273  0  3.610073  0  0  -0.329294  0  3.625654  0  0  -0.359317  -0.293852  0  3.59895  0
N  N79  1  0.28709600  0.02323908  0.98242030  1  0  -0.388793  0  3.325275  0  0  -0.308256  0  3.610103  0  0  -0.329281  0  3.625689  0  0  -0.359325  -0.293834  0  3.598971  0
N  N80  1  0.78709774  0.47676078  0.48242134  1  0  -0.388792  0  3.325237  0  0  -0.308258  0  3.610082  0  0  -0.329279  0  3.625665  0  0  -0.359317  -0.293833  0  3.598957  0
N  N81  1  0.71290247  0.97676110  0.01757943  1  0  -0.38882  0  3.325232  0  0  -0.308309  0  3.610097  0  0  -0.329332  0  3.62568  0  0  -0.359331  -0.293886  0  3.598968  0
N  N82  1  0.40734972  0.54617679  0.63403369  1  0  -0.08759  0  3.584779  0  0  0.002099  0  3.812041  0  0  -0.013539  0  3.837125  0  0  -0.244508  0.01255  0  3.795025  0
N  N83  1  0.09265012  0.04617558  0.86596614  1  0  -0.087505  0  3.584725  0  0  0.002158  0  3.811973  0  0  -0.013479  0  3.837055  0  0  -0.244482  0.012611  0  3.794964  0
N  N84  1  0.59264979  0.45382338  0.36596524  1  0  -0.087509  0  3.58454  0  0  0.002162  0  3.811797  0  0  -0.013475  0  3.836878  0  0  -0.244487  0.012623  0  3.794777  0
N  N85  1  0.90734940  0.95382361  0.13403367  1  0  -0.08761  0  3.584754  0  0  0.002098  0  3.811991  0  0  -0.013541  0  3.837076  0  0  -0.244481  0.012548  0  3.794973  0
N  N86  1  0.46598855  0.61388269  0.83709043  1  0  -0.021965  0  3.514479  0  0  0.054422  0  3.752599  0  0  0.041234  0  3.776728  0  0  -0.126166  0.062909  0  3.736349  0
N  N87  1  0.03401232  0.11388254  0.66290857  1  0  -0.02198  0  3.514396  0  0  0.054426  0  3.752524  0  0  0.041239  0  3.776652  0  0  -0.126179  0.062916  0  3.736274  0
N  N88  1  0.53401097  0.38611749  0.16290938  1  0  -0.022011  0  3.514432  0  0  0.054375  0  3.752561  0  0  0.041188  0  3.77669  0  0  -0.126196  0.062859  0  3.736319  0
N  N89  1  0.96598719  0.88611764  0.33709035  1  0  -0.02197  0  3.514402  0  0  0.054463  0  3.752521  0  0  0.041275  0  3.776652  0  0  -0.12614  0.062945  0  3.736269  0
N  N90  1  0.51697174  0.73695168  0.85053321  1  0  -0.046884  0  2.857207  0  0  -0.048339  0  3.132183  0  0  -0.041332  0  3.141914  0  0  -0.060956  -0.052617  0  3.125611  0
N  N91  1  0.98302915  0.23695047  0.64946716  1  0  -0.046879  0  2.857306  0  0  -0.048334  0  3.132276  0  0  -0.041331  0  3.14201  0  0  -0.060937  -0.052615  0  3.125705  0
N  N92  1  0.48302777  0.26304947  0.14946660  1  0  -0.046871  0  2.857262  0  0  -0.04834  0  3.132255  0  0  -0.041338  0  3.14199  0  0  -0.060935  -0.052613  0  3.125671  0
N  N93  1  0.01697037  0.76304872  0.35053265  1  0  -0.046863  0  2.857249  0  0  -0.048327  0  3.132224  0  0  -0.041324  0  3.141959  0  0  -0.060947  -0.052605  0  3.125656  0
N  N94  1  0.46167939  0.79200213  0.93989424  1  0  -0.234648  0  3.137655  0  0  -0.18288  0  3.426418  0  0  -0.193153  0  3.438601  0  0  -0.186579  -0.175947  0  3.41809  0
N  N95  1  0.03832143  0.29200201  0.56010559  1  0  -0.234662  0  3.137708  0  0  -0.182887  0  3.426462  0  0  -0.193158  0  3.438644  0  0  -0.186583  -0.175948  0  3.418138  0
N  N96  1  0.53832117  0.20799805  0.06010566  1  0  -0.23468  0  3.137704  0  0  -0.182892  0  3.426445  0  0  -0.193163  0  3.438627  0  0  -0.186585  -0.175946  0  3.418104  0
N  N97  1  0.96167808  0.70799718  0.43989422  1  0  -0.234676  0  3.137688  0  0  -0.182902  0  3.426456  0  0  -0.193172  0  3.438639  0  0  -0.18658  -0.175966  0  3.418131  0
N  N98  1  0.04206213  0.66288965  0.74415715  1  0  0.694772  0  4.146863  0  0  0.724329  0  4.448306  0  0  0.750449  0  4.453956  0  0  0.09871  0.705324  0  4.444443  0
N  N99  1  0.45793665  0.16288939  0.75584255  1  0  0.694803  0  4.146803  0  0  0.724358  0  4.448252  0  0  0.750479  0  4.453898  0  0  0.098705  0.705359  0  4.444385  0
N  N100  1  0.95793739  0.33711052  0.25584355  1  0  0.694736  0  4.146822  0  0  0.724409  0  4.448125  0  0  0.75055  0  4.453766  0  0  0.098671  0.705403  0  4.444267  0
N  N101  1  0.54206287  0.83710980  0.24415637  1  0  0.694445  0  4.147167  0  0  0.724308  0  4.448264  0  0  0.750451  0  4.453906  0  0  0.098595  0.705303  0  4.444403  0
O  O102  1  0.98932966  0.55767779  0.69507388  1  0  -0.504446  0  1.810889  0  0  -0.479746  0  2.056515  0  0  -0.497049  0  2.047774  0  0  -0.207792  -0.467051  0  2.062251  0
O  O103  1  0.51067023  0.05767661  0.80492557  1  0  -0.50445  0  1.810853  0  0  -0.479743  0  2.056465  0  0  -0.49705  0  2.047725  0  0  -0.207779  -0.467053  0  2.062198  0
O  O104  1  0.01067089  0.44232336  0.30492691  1  0  -0.504498  0  1.810859  0  0  -0.47981  0  2.056407  0  0  -0.497125  0  2.047666  0  0  -0.207796  -0.467113  0  2.062148  0
O  O105  1  0.48933136  0.94232258  0.19507263  1  0  -0.504375  0  1.810915  0  0  -0.47975  0  2.056424  0  0  -0.497068  0  2.047686  0  0  -0.207766  -0.467053  0  2.062152  0
O  O106  1  0.14893437  0.71404174  0.70719577  1  0  -0.466954  0  1.78141  0  0  -0.463568  0  2.007572  0  0  -0.476061  0  2.003775  0  0  -0.19384  -0.454125  0  2.009984  0
O  O107  1  0.35106439  0.21404050  0.79280392  1  0  -0.466992  0  1.781425  0  0  -0.463584  0  2.007561  0  0  -0.476078  0  2.003764  0  0  -0.193844  -0.454148  0  2.009981  0
O  O108  1  0.85106618  0.28595942  0.29280502  1  0  -0.466896  0  1.781489  0  0  -0.463522  0  2.007558  0  0  -0.476024  0  2.003758  0  0  -0.193792  -0.454081  0  2.009978  0
O  O109  1  0.64893409  0.78595673  0.20719403  1  0  -0.46681  0  1.781567  0  0  -0.463523  0  2.0076  0  0  -0.476027  0  2.0038  0  0  -0.193787  -0.45409  0  2.010025  0
O  O110  1  0.98387758  0.71416413  0.82840963  1  0  -0.464811  0  1.777588  0  0  -0.454106  0  2.000694  0  0  -0.467004  0  1.99635  0  0  -0.187616  -0.444608  0  2.003534  0
O  O111  1  0.51612124  0.21416496  0.67158969  1  0  -0.464811  0  1.777543  0  0  -0.454116  0  2.000656  0  0  -0.467015  0  1.99631  0  0  -0.187621  -0.444623  0  2.003498  0
O  O112  1  0.01612193  0.28583604  0.17159018  1  0  -0.464816  0  1.777572  0  0  -0.454164  0  2.000641  0  0  -0.467071  0  1.996297  0  0  -0.187619  -0.444661  0  2.003482  0
O  O113  1  0.48387931  0.78583815  0.32841021  1  0  -0.464704  0  1.777665  0  0  -0.454109  0  2.000663  0  0  -0.467015  0  1.996317  0  0  -0.187588  -0.444614  0  2.003504  0
