# generated using pymatgen
data_AgH8C12(NO)2
_symmetry_space_group_name_H-M   'P 1'
_cell_length_a   6.77901466
_cell_length_b   13.25295624
_cell_length_c   14.14857173
_cell_angle_alpha   117.93683015
_cell_angle_beta   100.21442405
_cell_angle_gamma   89.97531120
_symmetry_Int_Tables_number   1
_chemical_formula_structural   AgH8C12(NO)2
_chemical_formula_sum   'Ag4 H32 C48 N8 O8'
_cell_volume   1100.20042421
_cell_formula_units_Z   4
loop_
 _symmetry_equiv_pos_site_id
 _symmetry_equiv_pos_as_xyz
  1  'x, y, z'
loop_
 _atom_site_type_symbol
 _atom_site_label
 _atom_site_symmetry_multiplicity
 _atom_site_fract_x
 _atom_site_fract_y
 _atom_site_fract_z
 _atom_site_occupancy
 _atom_site_hle17_bader_spin_density
 _atom_site_hle17_ddec_charge
 _atom_site_hle17_ddec_spin_density
 _atom_site_hle17_ddec_sum_bond_order
 _atom_site_hle17_magmom
 _atom_site_hse06_10hf_bader_spin_density
 _atom_site_hse06_10hf_ddec_charge
 _atom_site_hse06_10hf_ddec_spin_density
 _atom_site_hse06_10hf_ddec_sum_bond_order
 _atom_site_hse06_10hf_magmom
 _atom_site_hse06_bader_spin_density
 _atom_site_hse06_ddec_charge
 _atom_site_hse06_ddec_spin_density
 _atom_site_hse06_ddec_sum_bond_order
 _atom_site_hse06_magmom
 _atom_site_pbe_bader_spin_density
 _atom_site_pbe_cm5_charge
 _atom_site_pbe_ddec_charge
 _atom_site_pbe_ddec_spin_density
 _atom_site_pbe_ddec_sum_bond_order
 _atom_site_pbe_magmom
Ag  Ag0  1  0.89067142  0.39494877  0.92386883  1  0  0.511554  0  1.554678  0  0  0.387176  0  2.052633  0  0  0.423578  0  1.983513  0  0  0.398524  0.362458  0  2.100199  0
Ag  Ag1  1  0.60950940  0.47108416  0.07612290  1  0  0.511964  0  1.553636  0  0  0.387527  0  2.051303  0  0  0.423893  0  1.982328  0  0  0.398494  0.362828  0  2.098762  0
Ag  Ag2  1  0.10932336  0.60505507  0.07613013  1  0  0.51157  0  1.554647  0  0  0.387194  0  2.052599  0  0  0.423602  0  1.983478  0  0  0.398516  0.362471  0  2.100163  0
Ag  Ag3  1  0.39048714  0.52891284  0.92387608  1  0  0.511912  0  1.553705  0  0  0.387454  0  2.051414  0  0  0.423822  0  1.982435  0  0  0.398467  0.362754  0  2.098867  0
H  H4  1  0.65980276  0.48975180  0.67040135  1  0  0.106836  0  0.971945  0  0  0.109147  0  1.049839  0  0  0.113181  0  1.045759  0  0  0.105918  0.106269  0  1.052715  0
H  H5  1  0.83992657  0.81944428  0.32960819  1  0  0.106372  0  0.973354  0  0  0.108726  0  1.051055  0  0  0.112821  0  1.04681  0  0  0.105828  0.105805  0  1.054023  0
H  H6  1  0.34019878  0.51024774  0.32959564  1  0  0.106841  0  0.971938  0  0  0.109158  0  1.049839  0  0  0.113195  0  1.045749  0  0  0.105907  0.106268  0  1.052725  0
H  H7  1  0.16007177  0.18055351  0.67038351  1  0  0.106347  0  0.973507  0  0  0.108687  0  1.051207  0  0  0.112771  0  1.046975  0  0  0.105857  0.105788  0  1.05415  0
H  H8  1  0.53109455  0.77260140  0.60842113  1  0  0.086464  0  0.978383  0  0  0.094938  0  1.047636  0  0  0.09853  0  1.04431  0  0  0.097617  0.092319  0  1.050125  0
H  H9  1  0.96865459  0.16424450  0.39161111  1  0  0.08667  0  0.978817  0  0  0.095411  0  1.047697  0  0  0.099089  0  1.044271  0  0  0.097804  0.092743  0  1.05024  0
H  H10  1  0.46891828  0.22739290  0.39156542  1  0  0.086426  0  0.978312  0  0  0.094925  0  1.047545  0  0  0.098518  0  1.044221  0  0  0.097594  0.092302  0  1.050037  0
H  H11  1  0.03134206  0.83575154  0.60837403  1  0  0.086766  0  0.978699  0  0  0.095468  0  1.0476  0  0  0.099146  0  1.044176  0  0  0.097796  0.092807  0  1.050138  0
H  H12  1  0.69057273  0.91082233  0.80283072  1  0  0.088526  0  0.952403  0  0  0.102495  0  1.00647  0  0  0.104843  0  1.006562  0  0  0.100524  0.100734  0  1.006569  0
H  H13  1  0.80921726  0.10803457  0.19717378  1  0  0.089167  0  0.950825  0  0  0.102697  0  1.005303  0  0  0.105178  0  1.005261  0  0  0.100644  0.100874  0  1.005467  0
H  H14  1  0.30943772  0.08917540  0.19715568  1  0  0.088517  0  0.95239  0  0  0.102528  0  1.006417  0  0  0.104855  0  1.006533  0  0  0.100499  0.100799  0  1.006481  0
H  H15  1  0.19077590  0.89195892  0.80281277  1  0  0.089132  0  0.95076  0  0  0.102699  0  1.005217  0  0  0.105163  0  1.005194  0  0  0.100612  0.100876  0  1.005382  0
H  H16  1  0.84193077  0.83352892  0.92825890  1  0  0.099957  0  0.946468  0  0  0.110752  0  1.005262  0  0  0.114206  0  1.002927  0  0  0.105157  0.108187  0  1.007034  0
H  H17  1  0.65786529  0.90537172  0.07174972  1  0  0.100147  0  0.94572  0  0  0.110984  0  1.004663  0  0  0.114389  0  1.002385  0  0  0.105492  0.108497  0  1.006367  0
H  H18  1  0.15807915  0.16647484  0.07173290  1  0  0.099933  0  0.946406  0  0  0.11078  0  1.005162  0  0  0.114246  0  1.002812  0  0  0.105176  0.108234  0  1.006913  0
H  H19  1  0.34212653  0.09462262  0.92823638  1  0  0.10024  0  0.945687  0  0  0.111094  0  1.004621  0  0  0.114503  0  1.002334  0  0  0.105526  0.108606  0  1.00632  0
H  H20  1  0.64212720  0.34059914  0.69448311  1  0  0.087255  0  0.958069  0  0  0.09634  0  1.020995  0  0  0.099309  0  1.018163  0  0  0.114706  0.094118  0  1.023154  0
H  H21  1  0.85798405  0.64608627  0.30548060  1  0  0.08712  0  0.95799  0  0  0.096347  0  1.020797  0  0  0.099335  0  1.017955  0  0  0.114345  0.094059  0  1.023047  0
H  H22  1  0.35786739  0.65940385  0.30551758  1  0  0.087251  0  0.958033  0  0  0.096359  0  1.020931  0  0  0.099327  0  1.018099  0  0  0.114709  0.094134  0  1.023091  0
H  H23  1  0.14201117  0.35391157  0.69451650  1  0  0.087129  0  0.957947  0  0  0.09637  0  1.02074  0  0  0.099358  0  1.017897  0  0  0.114347  0.094061  0  1.023008  0
H  H24  1  0.48417310  0.18510482  0.51144047  1  0  0.091004  0  0.984287  0  0  0.102117  0  1.047118  0  0  0.105223  0  1.045449  0  0  0.100831  0.09985  0  1.048561  0
H  H25  1  0.01585320  0.67364245  0.48855609  1  0  0.091582  0  0.983654  0  0  0.102711  0  1.046708  0  0  0.105833  0  1.045005  0  0  0.100967  0.100437  0  1.048152  0
H  H26  1  0.51582749  0.81489817  0.48856005  1  0  0.091011  0  0.984306  0  0  0.102135  0  1.047117  0  0  0.105242  0  1.045447  0  0  0.100845  0.099868  0  1.048565  0
H  H27  1  0.98415676  0.32635363  0.51143946  1  0  0.091552  0  0.983759  0  0  0.102668  0  1.046827  0  0  0.105789  0  1.045127  0  0  0.100923  0.100394  0  1.048274  0
H  H28  1  0.62728516  0.94608973  0.63631176  1  0  0.091385  0  0.977981  0  0  0.104276  0  1.039175  0  0  0.10651  0  1.039131  0  0  0.102212  0.102686  0  1.039363  0
H  H29  1  0.87280805  0.30978110  0.36372410  1  0  0.091814  0  0.977452  0  0  0.104791  0  1.038515  0  0  0.107004  0  1.038474  0  0  0.10243  0.103223  0  1.038681  0
H  H30  1  0.37271681  0.05391238  0.36368709  1  0  0.091443  0  0.977967  0  0  0.104341  0  1.039146  0  0  0.106576  0  1.0391  0  0  0.102268  0.102759  0  1.039321  0
H  H31  1  0.12719756  0.69021584  0.63627142  1  0  0.091829  0  0.977481  0  0  0.104807  0  1.038536  0  0  0.107021  0  1.038492  0  0  0.102488  0.103237  0  1.038702  0
H  H32  1  0.77492083  0.11270606  0.81385390  1  0  0.080713  0  0.916845  0  0  0.093105  0  0.973309  0  0  0.095633  0  0.971515  0  0  0.117989  0.091186  0  0.974783  0
H  H33  1  0.72528733  0.29885494  0.18614815  1  0  0.080653  0  0.917316  0  0  0.092605  0  0.974174  0  0  0.095126  0  0.972376  0  0  0.117803  0.09076  0  0.975556  0
H  H34  1  0.22508113  0.88729606  0.18614566  1  0  0.080678  0  0.91685  0  0  0.093064  0  0.97332  0  0  0.095597  0  0.97152  0  0  0.117967  0.09114  0  0.974796  0
H  H35  1  0.27471676  0.70114202  0.81384866  1  0  0.08067  0  0.917305  0  0  0.092628  0  0.974171  0  0  0.095148  0  0.972374  0  0  0.117813  0.090783  0  0.975554  0
C  C36  1  0.84473101  0.60982652  0.88184998  1  0  0.641349  0  3.925154  0  0  0.583495  0  4.216309  0  0  0.619575  0  4.212868  0  0  0.200596  0.55902  0  4.2177  0
C  C37  1  0.65523898  0.72801114  0.11815398  1  0  0.640601  0  3.9237  0  0  0.582693  0  4.215124  0  0  0.618837  0  4.211629  0  0  0.20011  0.55818  0  4.216535  0
C  C38  1  0.15526857  0.39017902  0.11814944  1  0  0.641285  0  3.925425  0  0  0.583422  0  4.216603  0  0  0.61951  0  4.213146  0  0  0.200586  0.558933  0  4.218012  0
C  C39  1  0.34475585  0.27198411  0.88183984  1  0  0.640811  0  3.923479  0  0  0.582943  0  4.214849  0  0  0.619088  0  4.211345  0  0  0.200195  0.558433  0  4.216263  0
C  C40  1  0.75820972  0.65728901  0.80704586  1  0  -0.041038  0  3.737196  0  0  -0.012154  0  3.96635  0  0  -0.020136  0  3.988941  0  0  -0.00947  -0.007252  0  3.951657  0
C  C41  1  0.74167169  0.85030629  0.19295309  1  0  -0.041897  0  3.736343  0  0  -0.012934  0  3.965742  0  0  -0.021176  0  3.988711  0  0  -0.01009  -0.007951  0  3.950948  0
C  C42  1  0.24178767  0.34271223  0.19294938  1  0  -0.041213  0  3.737212  0  0  -0.012303  0  3.966378  0  0  -0.020322  0  3.989032  0  0  -0.009538  -0.007402  0  3.951696  0
C  C43  1  0.25831914  0.14969152  0.80703866  1  0  -0.041938  0  3.736101  0  0  -0.012968  0  3.965457  0  0  -0.021215  0  3.988433  0  0  -0.010034  -0.007985  0  3.950673  0
C  C44  1  0.66954271  0.58165222  0.69920565  1  0  -0.117493  0  3.689722  0  0  -0.1518  0  3.934108  0  0  -0.152333  0  3.95558  0  0  -0.075306  -0.151339  0  3.919979  0
C  C45  1  0.83024227  0.88253486  0.30080750  1  0  -0.116622  0  3.689248  0  0  -0.150805  0  3.933333  0  0  -0.151343  0  3.954993  0  0  -0.074866  -0.150322  0  3.919115  0
C  C46  1  0.33046048  0.41834817  0.30079186  1  0  -0.117447  0  3.68975  0  0  -0.151801  0  3.934112  0  0  -0.152327  0  3.955577  0  0  -0.075308  -0.151328  0  3.919985  0
C  C47  1  0.16974558  0.11746295  0.69918327  1  0  -0.116573  0  3.68914  0  0  -0.150749  0  3.933318  0  0  -0.151279  0  3.954983  0  0  -0.074913  -0.150284  0  3.919094  0
C  C48  1  0.59270460  0.62354365  0.62704583  1  0  0.142063  0  3.839844  0  0  0.151385  0  4.087765  0  0  0.149721  0  4.113139  0  0  0.080156  0.152426  0  4.070681  0
C  C49  1  0.90711522  0.99657487  0.37298637  1  0  0.1422  0  3.838651  0  0  0.151736  0  4.08657  0  0  0.150067  0  4.111957  0  0  0.080174  0.152775  0  4.069494  0
C  C50  1  0.40729792  0.37645243  0.37294621  1  0  0.142034  0  3.839921  0  0  0.151453  0  4.087705  0  0  0.149783  0  4.1131  0  0  0.0802  0.152494  0  4.070613  0
C  C51  1  0.09288058  0.00342550  0.62700552  1  0  0.142237  0  3.838783  0  0  0.151713  0  4.086752  0  0  0.150044  0  4.112139  0  0  0.080192  0.152757  0  4.069686  0
C  C52  1  0.59919136  0.74238769  0.66514432  1  0  -0.120666  0  3.727968  0  0  -0.145547  0  3.980716  0  0  -0.147561  0  4.002226  0  0  -0.084019  -0.143916  0  3.965951  0
C  C53  1  0.90062496  0.07730562  0.33487576  1  0  -0.122088  0  3.727973  0  0  -0.147229  0  3.980566  0  0  -0.149324  0  4.002098  0  0  -0.084787  -0.14554  0  3.965751  0
C  C54  1  0.40081597  0.25761009  0.33484818  1  0  -0.120526  0  3.727852  0  0  -0.145455  0  3.980551  0  0  -0.147467  0  4.002056  0  0  -0.083961  -0.143825  0  3.96579  0
C  C55  1  0.09936986  0.92268873  0.66511060  1  0  -0.122136  0  3.727701  0  0  -0.147216  0  3.980322  0  0  -0.149309  0  4.001844  0  0  -0.084757  -0.145545  0  3.965541  0
C  C56  1  0.68686597  0.81850515  0.77339576  1  0  -0.086025  0  3.80526  0  0  -0.096402  0  4.055684  0  0  -0.100616  0  4.080194  0  0  -0.096597  -0.093451  0  4.038817  0
C  C57  1  0.81299530  0.04515096  0.22661820  1  0  -0.085564  0  3.803544  0  0  -0.095385  0  4.053818  0  0  -0.099701  0  4.07829  0  0  -0.096282  -0.092386  0  4.036971  0
C  C58  1  0.31314296  0.18149259  0.22659193  1  0  -0.086103  0  3.804983  0  0  -0.096517  0  4.055473  0  0  -0.10071  0  4.079979  0  0  -0.096673  -0.093587  0  4.038599  0
C  C59  1  0.18699681  0.95484511  0.77336937  1  0  -0.085645  0  3.803232  0  0  -0.095515  0  4.05354  0  0  -0.099818  0  4.078013  0  0  -0.096316  -0.092516  0  4.03669  0
C  C60  1  0.76919698  0.77616189  0.84389998  1  0  -0.057075  0  3.70647  0  0  -0.08238  0  3.950741  0  0  -0.082111  0  3.970896  0  0  -0.076004  -0.082294  0  3.937049  0
C  C61  1  0.73067799  0.93231851  0.15610093  1  0  -0.057266  0  3.705932  0  0  -0.082888  0  3.950858  0  0  -0.082519  0  3.970994  0  0  -0.076008  -0.082903  0  3.937137  0
C  C62  1  0.23080647  0.22383932  0.15609225  1  0  -0.056972  0  3.706164  0  0  -0.082362  0  3.950507  0  0  -0.082096  0  3.970644  0  0  -0.075954  -0.0823  0  3.936829  0
C  C63  1  0.26930901  0.06767414  0.84388541  1  0  -0.057295  0  3.706106  0  0  -0.082943  0  3.951037  0  0  -0.082573  0  3.971166  0  0  -0.076042  -0.082957  0  3.937318  0
C  C64  1  0.63548397  0.25117838  0.67708697  1  0  0.127601  0  3.691454  0  0  0.102624  0  3.935277  0  0  0.108444  0  3.954793  0  0  0.045898  0.098889  0  3.922022  0
C  C65  1  0.86462657  0.57407699  0.32289489  1  0  0.127772  0  3.692505  0  0  0.102883  0  3.936083  0  0  0.108687  0  3.95565  0  0  0.046724  0.099197  0  3.922775  0
C  C66  1  0.36451333  0.74882289  0.32291252  1  0  0.127575  0  3.691395  0  0  0.102596  0  3.935244  0  0  0.108417  0  3.95476  0  0  0.045884  0.098861  0  3.92199  0
C  C67  1  0.13537511  0.42592341  0.67710319  1  0  0.127764  0  3.692554  0  0  0.102861  0  3.936116  0  0  0.108664  0  3.955684  0  0  0.04666  0.09919  0  3.922808  0
C  C68  1  0.54796303  0.16282297  0.57455981  1  0  -0.151887  0  3.705557  0  0  -0.172063  0  3.954029  0  0  -0.179622  0  3.975506  0  0  -0.082814  -0.167129  0  3.939537  0
C  C69  1  0.95211044  0.58826619  0.42545149  1  0  -0.15307  0  3.705204  0  0  -0.173133  0  3.954244  0  0  -0.180706  0  3.975725  0  0  -0.083743  -0.168177  0  3.939717  0
C  C70  1  0.45203607  0.83718002  0.42544057  1  0  -0.15189  0  3.70558  0  0  -0.172073  0  3.954065  0  0  -0.179634  0  3.975541  0  0  -0.082839  -0.167139  0  3.939581  0
C  C71  1  0.04789338  0.41172904  0.57454313  1  0  -0.15306  0  3.705203  0  0  -0.173087  0  3.954281  0  0  -0.180659  0  3.975761  0  0  -0.083665  -0.168131  0  3.939752  0
C  C72  1  0.54320216  0.04845908  0.55447231  1  0  0.094395  0  3.737724  0  0  0.104495  0  3.970158  0  0  0.108058  0  3.992328  0  0  0.009474  0.102309  0  3.954975  0
C  C73  1  0.95682320  0.49396697  0.44552508  1  0  0.094565  0  3.736564  0  0  0.10369  0  3.971298  0  0  0.107244  0  3.993491  0  0  0.009515  0.101499  0  3.956127  0
C  C74  1  0.45679514  0.95154219  0.44552717  1  0  0.094431  0  3.737807  0  0  0.104544  0  3.970228  0  0  0.108107  0  3.992398  0  0  0.009463  0.10235  0  3.955053  0
C  C75  1  0.04318104  0.50603085  0.55447141  1  0  0.094683  0  3.736609  0  0  0.103669  0  3.971462  0  0  0.107226  0  3.993655  0  0  0.009587  0.101474  0  3.95629  0
C  C76  1  0.62521321  0.03147715  0.64371123  1  0  -0.152012  0  3.711148  0  0  -0.172972  0  3.961518  0  0  -0.180619  0  3.984786  0  0  -0.083766  -0.168015  0  3.945984  0
C  C77  1  0.87486774  0.38775357  0.35630106  1  0  -0.151884  0  3.710299  0  0  -0.17224  0  3.96062  0  0  -0.179868  0  3.983899  0  0  -0.083522  -0.167302  0  3.9451  0
C  C78  1  0.37479009  0.96852411  0.35628879  1  0  -0.152137  0  3.711245  0  0  -0.173118  0  3.961625  0  0  -0.180764  0  3.984893  0  0  -0.08382  -0.168162  0  3.946075  0
C  C79  1  0.12513623  0.61224252  0.64369395  1  0  -0.151959  0  3.710381  0  0  -0.172266  0  3.960733  0  0  -0.179897  0  3.984019  0  0  -0.083622  -0.167321  0  3.945207  0
C  C80  1  0.70926345  0.12471311  0.74400098  1  0  0.129732  0  3.716744  0  0  0.100164  0  3.972342  0  0  0.106669  0  3.991431  0  0  0.048592  0.09596  0  3.959498  0
C  C81  1  0.79087932  0.38071250  0.25600649  1  0  0.128706  0  3.717176  0  0  0.099489  0  3.972509  0  0  0.105999  0  3.991574  0  0  0.048124  0.095236  0  3.959718  0
C  C82  1  0.29073851  0.87528901  0.25599858  1  0  0.129834  0  3.716739  0  0  0.100283  0  3.972336  0  0  0.106786  0  3.991425  0  0  0.048639  0.096084  0  3.959487  0
C  C83  1  0.20912477  0.61928446  0.74399032  1  0  0.12875  0  3.717109  0  0  0.099497  0  3.97246  0  0  0.106004  0  3.991532  0  0  0.048063  0.095239  0  3.959668  0
N  N84  1  0.50082415  0.55348325  0.51622690  1  0  -0.15648  0  3.01151  0  0  -0.133347  0  3.295972  0  0  -0.132165  0  3.304183  0  0  -0.15053  -0.134029  0  3.290411  0
N  N85  1  0.99902312  0.03728601  0.48380039  1  0  -0.156562  0  3.012874  0  0  -0.133507  0  3.297181  0  0  -0.132327  0  3.305422  0  0  -0.150563  -0.134194  0  3.291608  0
N  N86  1  0.49918270  0.44651197  0.48376658  1  0  -0.156323  0  3.011471  0  0  -0.133206  0  3.295894  0  0  -0.132022  0  3.304109  0  0  -0.150394  -0.133885  0  3.290332  0
N  N87  1  0.00097240  0.96271263  0.51619002  1  0  -0.156497  0  3.012799  0  0  -0.133437  0  3.297116  0  0  -0.132257  0  3.305359  0  0  -0.150508  -0.134121  0  3.291539  0
N  N88  1  0.71722503  0.23331047  0.76114384  1  0  -0.277718  0  3.199587  0  0  -0.207396  0  3.473875  0  0  -0.224717  0  3.489612  0  0  -0.323958  -0.195769  0  3.463268  0
N  N89  1  0.78292794  0.47215309  0.23885271  1  0  -0.276857  0  3.199996  0  0  -0.206375  0  3.473905  0  0  -0.223712  0  3.489675  0  0  -0.323579  -0.194745  0  3.46329  0
N  N90  1  0.28277257  0.76669252  0.23885641  1  0  -0.277702  0  3.199634  0  0  -0.207414  0  3.473961  0  0  -0.224738  0  3.4897  0  0  -0.323951  -0.19579  0  3.463351  0
N  N91  1  0.21707001  0.52784302  0.76114318  1  0  -0.27692  0  3.200117  0  0  -0.206421  0  3.474029  0  0  -0.223757  0  3.489803  0  0  -0.323522  -0.194791  0  3.463406  0
O  O92  1  0.78227759  0.50625978  0.85042503  1  0  -0.627941  0  2.147009  0  0  -0.550248  0  2.431853  0  0  -0.583387  0  2.419482  0  0  -0.323871  -0.527238  0  2.439524  0
O  O93  1  0.71769918  0.65589171  0.14964783  1  0  -0.62737  0  2.145971  0  0  -0.549654  0  2.430786  0  0  -0.582799  0  2.41839  0  0  -0.323617  -0.526623  0  2.438459  0
O  O94  1  0.21772618  0.49374404  0.14957473  1  0  -0.627915  0  2.147252  0  0  -0.55022  0  2.432092  0  0  -0.583358  0  2.419717  0  0  -0.323927  -0.527198  0  2.439757  0
O  O95  1  0.28229937  0.34410783  0.85034889  1  0  -0.627433  0  2.145938  0  0  -0.549733  0  2.430749  0  0  -0.582878  0  2.418347  0  0  -0.323626  -0.526699  0  2.43842  0
O  O96  1  0.97223562  0.67570575  0.96718154  1  0  -0.590581  0  2.054666  0  0  -0.518428  0  2.316775  0  0  -0.550385  0  2.306336  0  0  -0.321849  -0.496244  0  2.323163  0
O  O97  1  0.52777217  0.70852437  0.03278838  1  0  -0.59018  0  2.054001  0  0  -0.517962  0  2.315925  0  0  -0.549906  0  2.305476  0  0  -0.321464  -0.495751  0  2.322277  0
O  O98  1  0.02776144  0.32430236  0.03281664  1  0  -0.590573  0  2.054762  0  0  -0.518396  0  2.316818  0  0  -0.550349  0  2.306374  0  0  -0.321819  -0.49621  0  2.323216  0
O  O99  1  0.47222102  0.29147002  0.96720492  1  0  -0.590283  0  2.053894  0  0  -0.518085  0  2.315811  0  0  -0.550027  0  2.305354  0  0  -0.321531  -0.495872  0  2.322162  0
