# generated using pymatgen
data_Zn3H26C42(NO3)4
_symmetry_space_group_name_H-M   'P 1'
_cell_length_a   15.19589386
_cell_length_b   15.19598553
_cell_length_c   21.65644910
_cell_angle_alpha   89.99974324
_cell_angle_beta   89.99976325
_cell_angle_gamma   90.00420286
_symmetry_Int_Tables_number   1
_chemical_formula_structural   Zn3H26C42(NO3)4
_chemical_formula_sum   'Zn12 H104 C168 N16 O48'
_cell_volume   5000.83321620
_cell_formula_units_Z   4
loop_
 _symmetry_equiv_pos_site_id
 _symmetry_equiv_pos_as_xyz
  1  'x, y, z'
loop_
 _atom_site_type_symbol
 _atom_site_label
 _atom_site_symmetry_multiplicity
 _atom_site_fract_x
 _atom_site_fract_y
 _atom_site_fract_z
 _atom_site_occupancy
 _atom_site_pbe_bader_charge
 _atom_site_pbe_bader_spin_density
 _atom_site_pbe_cm5_charge
 _atom_site_pbe_ddec_charge
 _atom_site_pbe_ddec_spin_density
 _atom_site_pbe_ddec_sum_bond_order
 _atom_site_pbe_magmom
Zn  Zn0  1  0.79116930  0.20882416  0.25000631  1  1.429579  0  0.695941  1.044685  0  2.282364  0
Zn  Zn1  1  0.29115051  0.29114020  0.99999682  1  1.429605  0  0.69591  1.044594  0  2.28218  0
Zn  Zn2  1  0.20882787  0.79116688  0.74999952  1  1.429622  0  0.69588  1.044559  0  2.282518  0
Zn  Zn3  1  0.70885740  0.70885374  0.50001614  1  1.429457  0  0.695854  1.044486  0  2.282561  0
Zn  Zn4  1  0.84819602  0.23537454  0.09660385  1  1.303622  0  0.676801  0.799555  0  2.350522  0
Zn  Zn5  1  0.26464548  0.34819571  0.84660924  1  1.303953  0  0.676768  0.799575  0  2.350602  0
Zn  Zn6  1  0.15180406  0.76463064  0.59661300  1  1.303804  0  0.676799  0.799565  0  2.350642  0
Zn  Zn7  1  0.73536623  0.65179341  0.34661663  1  1.303712  0  0.676808  0.799686  0  2.350156  0
Zn  Zn8  1  0.34819145  0.26464336  0.15339312  1  1.303974  0  0.676757  0.799465  0  2.350544  0
Zn  Zn9  1  0.23536166  0.84819494  0.90340173  1  1.30351  0  0.676792  0.799519  0  2.350482  0
Zn  Zn10  1  0.65180104  0.73536014  0.65339728  1  1.303873  0  0.676765  0.799589  0  2.350155  0
Zn  Zn11  1  0.76462405  0.15182081  0.40340047  1  1.303415  0  0.676747  0.799486  0  2.350587  0
H  H12  1  0.03544832  0.13076252  0.29994596  1  0.10663  0  0.118111  0.127665  0  0.975749  0
H  H13  1  0.36926989  0.53546007  0.04995142  1  0.106793  0  0.118183  0.127758  0  0.975632  0
H  H14  1  0.96454657  0.86925453  0.79996036  1  0.106466  0  0.118195  0.127732  0  0.975656  0
H  H15  1  0.63075482  0.46453882  0.54996851  1  0.106637  0  0.118195  0.127799  0  0.975697  0
H  H16  1  0.53547042  0.36926549  0.95004223  1  0.106883  0  0.118125  0.127723  0  0.975476  0
H  H17  1  0.13077462  0.03545340  0.70004851  1  0.106547  0  0.118088  0.12769  0  0.97579  0
H  H18  1  0.46453935  0.63073154  0.45004997  1  0.106742  0  0.118179  0.12773  0  0.975593  0
H  H19  1  0.86922812  0.96454520  0.20005683  1  0.10647  0  0.118045  0.127591  0  0.975882  0
H  H20  1  0.18945860  0.12319762  0.34096910  1  0.08267  0  0.108224  0.114452  0  1.004726  0
H  H21  1  0.37682877  0.68946602  0.09097220  1  0.082139  0  0.108124  0.114366  0  1.004921  0
H  H22  1  0.81053867  0.87680470  0.84097514  1  0.082285  0  0.108208  0.114453  0  1.004902  0
H  H23  1  0.62319372  0.31054182  0.59098703  1  0.082168  0  0.108137  0.114306  0  1.004797  0
H  H24  1  0.68947821  0.37681668  0.90902050  1  0.082319  0  0.108103  0.114404  0  1.004697  0
H  H25  1  0.12321453  0.18946564  0.65902492  1  0.082381  0  0.108203  0.114423  0  1.004652  0
H  H26  1  0.31053378  0.62318456  0.40903100  1  0.082342  0  0.108181  0.114384  0  1.004869  0
H  H27  1  0.87678978  0.81052927  0.15904157  1  0.082888  0  0.108175  0.114355  0  1.004798  0
H  H28  1  0.13939245  0.24952454  0.13475095  1  0.153998  0  0.126147  0.11167  0  0.993354  0
H  H29  1  0.25048577  0.63940356  0.88476510  1  0.154275  0  0.126141  0.111505  0  0.993488  0
H  H30  1  0.86061662  0.75048698  0.63476926  1  0.154324  0  0.126124  0.111548  0  0.993566  0
H  H31  1  0.74950202  0.36060638  0.38476506  1  0.154252  0  0.126197  0.111563  0  0.993443  0
H  H32  1  0.63939340  0.25048792  0.11523228  1  0.154247  0  0.126159  0.111565  0  0.993382  0
H  H33  1  0.24951066  0.13940114  0.86524700  1  0.15405  0  0.126142  0.111559  0  0.99347  0
H  H34  1  0.36061183  0.74951582  0.61523813  1  0.154137  0  0.126144  0.111585  0  0.993362  0
H  H35  1  0.75048054  0.86060235  0.36524814  1  0.15396  0  0.126153  0.111742  0  0.993462  0
H  H36  1  0.32154399  0.11722647  0.36657701  1  0.104936  0  0.101918  0.102945  0  1.050856  0
H  H37  1  0.38280687  0.82155236  0.11658421  1  0.104383  0  0.102052  0.103147  0  1.050895  0
H  H38  1  0.67845576  0.88277635  0.86658801  1  0.104919  0  0.101948  0.103019  0  1.050825  0
H  H39  1  0.61719244  0.17844940  0.61658932  1  0.104295  0  0.102017  0.103069  0  1.050793  0
H  H40  1  0.82156748  0.38278765  0.88340577  1  0.10458  0  0.102002  0.102965  0  1.051001  0
H  H41  1  0.11723363  0.32155236  0.63341665  1  0.105106  0  0.101967  0.102982  0  1.050911  0
H  H42  1  0.17844795  0.61720650  0.38342220  1  0.104434  0  0.101985  0.103027  0  1.050819  0
H  H43  1  0.88278334  0.67845192  0.13342307  1  0.104956  0  0.101925  0.102927  0  1.050668  0
H  H44  1  0.48181222  0.11764685  0.39013235  1  0.124057  0  0.109273  0.112688  0  1.016317  0
H  H45  1  0.38239150  0.98181565  0.14015061  1  0.124423  0  0.109296  0.112643  0  1.016101  0
H  H46  1  0.51817882  0.88236174  0.89013549  1  0.124417  0  0.109289  0.112695  0  1.016251  0
H  H47  1  0.61761950  0.01819057  0.64015715  1  0.124002  0  0.109327  0.112866  0  1.016019  0
H  H48  1  0.98183189  0.38236718  0.85985274  1  0.124279  0  0.109313  0.112658  0  1.016166  0
H  H49  1  0.11764166  0.48181649  0.60986313  1  0.123866  0  0.109286  0.112782  0  1.016146  0
H  H50  1  0.01818238  0.61762845  0.35985300  1  0.124092  0  0.10931  0.112745  0  1.016081  0
H  H51  1  0.88234979  0.51818005  0.10987330  1  0.123996  0  0.10924  0.112618  0  1.016338  0
H  H52  1  0.52512293  0.25561634  0.21913451  1  0.153985  0  0.129093  0.114286  0  0.99363  0
H  H53  1  0.24437713  0.02511847  0.96914465  1  0.153905  0  0.129139  0.11435  0  0.993548  0
H  H54  1  0.47488496  0.74437293  0.71914929  1  0.154187  0  0.129165  0.114379  0  0.993675  0
H  H55  1  0.75560620  0.97487581  0.46913894  1  0.153747  0  0.129188  0.114394  0  0.993509  0
H  H56  1  0.02512223  0.24435615  0.03085643  1  0.154468  0  0.129067  0.11433  0  0.993552  0
H  H57  1  0.25559249  0.52512126  0.78086366  1  0.153769  0  0.129112  0.114316  0  0.993709  0
H  H58  1  0.97489602  0.75563628  0.53086286  1  0.153851  0  0.129108  0.114372  0  0.993609  0
H  H59  1  0.74439528  0.47487420  0.28087435  1  0.153885  0  0.129079  0.114304  0  0.993558  0
H  H60  1  0.72514457  0.96004097  0.11256116  1  0.053481  0  0.098063  0.105522  0  1.029591  0
H  H61  1  0.53996332  0.22512917  0.86256597  1  0.053456  0  0.098109  0.105607  0  1.029394  0
H  H62  1  0.27486595  0.03994699  0.61256535  1  0.053891  0  0.097985  0.105484  0  1.029485  0
H  H63  1  0.46001802  0.77488091  0.36256541  1  0.053443  0  0.098083  0.105565  0  1.029171  0
H  H64  1  0.22512822  0.53996820  0.13741147  1  0.054126  0  0.098084  0.105693  0  1.029344  0
H  H65  1  0.96004375  0.72514893  0.88742969  1  0.053848  0  0.098009  0.105519  0  1.029331  0
H  H66  1  0.77485450  0.46002619  0.63742956  1  0.053598  0  0.098033  0.105572  0  1.029317  0
H  H67  1  0.03995784  0.27484915  0.38743883  1  0.053743  0  0.098015  0.105485  0  1.029177  0
H  H68  1  0.62479090  0.08185376  0.20160638  1  0.095096  0  0.106833  0.109137  0  1.00958  0
H  H69  1  0.41810737  0.12477358  0.95161783  1  0.094467  0  0.106761  0.108963  0  1.009448  0
H  H70  1  0.37522038  0.91811917  0.70160103  1  0.094479  0  0.106789  0.109028  0  1.009765  0
H  H71  1  0.58187474  0.87521422  0.45162077  1  0.094781  0  0.106812  0.109053  0  1.009653  0
H  H72  1  0.12476534  0.41811288  0.04837921  1  0.094383  0  0.106761  0.109005  0  1.00981  0
H  H73  1  0.08183600  0.62479050  0.79837400  1  0.094852  0  0.106847  0.109009  0  1.009856  0
H  H74  1  0.87522846  0.58187352  0.54839108  1  0.094635  0  0.106892  0.109127  0  1.009524  0
H  H75  1  0.91815035  0.37521274  0.29839238  1  0.094998  0  0.106856  0.108995  0  1.010036  0
H  H76  1  0.49424289  0.02516478  0.24725126  1  0.102693  0  0.096935  0.094982  0  1.034396  0
H  H77  1  0.47486234  0.99420514  0.99726420  1  0.073347  0  0.096888  0.094976  0  1.034571  0
H  H78  1  0.50576417  0.97482431  0.74725829  1  0.102274  0  0.096878  0.094905  0  1.034371  0
H  H79  1  0.52512937  0.00578303  0.49726915  1  0.073338  0  0.096874  0.094876  0  1.034709  0
H  H80  1  0.99417610  0.47486120  0.00273931  1  0.074156  0  0.09689  0.094926  0  1.034424  0
H  H81  1  0.02515880  0.49426133  0.75271676  1  0.072916  0  0.096879  0.094852  0  1.034496  0
H  H82  1  0.00579692  0.52513996  0.50274501  1  0.102397  0  0.096899  0.095035  0  1.034493  0
H  H83  1  0.97484033  0.50574023  0.25273087  1  0.072975  0  0.09686  0.094922  0  1.034531  0
H  H84  1  0.39693089  0.90158601  0.27706051  1  0.063627  0  0.098238  0.092952  0  1.006543  0
H  H85  1  0.59845566  0.89696336  0.02707374  1  0.063619  0  0.098258  0.092971  0  1.00675  0
H  H86  1  0.60305230  0.09842066  0.77706822  1  0.063215  0  0.098209  0.092881  0  1.006742  0
H  H87  1  0.40155077  0.10304423  0.52708800  1  0.063741  0  0.098203  0.092873  0  1.006671  0
H  H88  1  0.89693758  0.59845236  0.97292276  1  0.063686  0  0.098188  0.092907  0  1.006526  0
H  H89  1  0.90157432  0.39695667  0.72290702  1  0.063157  0  0.09821  0.0929  0  1.006685  0
H  H90  1  0.10305756  0.40155703  0.47292532  1  0.063849  0  0.098208  0.092958  0  1.006483  0
H  H91  1  0.09841446  0.60305363  0.22290710  1  0.063021  0  0.098198  0.092832  0  1.006557  0
H  H92  1  0.43198156  0.74843446  0.24212977  1  0.038219  0  0.100997  0.095062  0  0.994478  0
H  H93  1  0.75157891  0.93205613  0.99213888  1  0.037814  0  0.101026  0.095093  0  0.99461  0
H  H94  1  0.56799724  0.25156717  0.74213201  1  0.03823  0  0.100964  0.09498  0  0.994509  0
H  H95  1  0.24843389  0.06795116  0.49215271  1  0.038018  0  0.101048  0.095068  0  0.994587  0
H  H96  1  0.93205498  0.75157278  0.00784228  1  0.037973  0  0.101005  0.095028  0  0.994714  0
H  H97  1  0.74842623  0.43198323  0.75785704  1  0.038046  0  0.100996  0.095055  0  0.994221  0
H  H98  1  0.06796012  0.24843493  0.50785331  1  0.038101  0  0.101017  0.095085  0  0.994586  0
H  H99  1  0.25156168  0.56802488  0.25784988  1  0.038048  0  0.100972  0.095035  0  0.994349  0
H  H100  1  0.56305896  0.72181007  0.17634784  1  0.085353  0  0.104276  0.104352  0  0.983446  0
H  H101  1  0.77818667  0.06310347  0.92633443  1  0.0848  0  0.104278  0.104337  0  0.983343  0
H  H102  1  0.43692814  0.27818078  0.67633928  1  0.085169  0  0.104302  0.104435  0  0.983383  0
H  H103  1  0.22182126  0.93690950  0.42633402  1  0.08506  0  0.104234  0.104337  0  0.983401  0
H  H104  1  0.06311641  0.77818853  0.07363401  1  0.085038  0  0.104294  0.104379  0  0.983388  0
H  H105  1  0.72180522  0.56303639  0.82366545  1  0.085534  0  0.104296  0.104276  0  0.983389  0
H  H106  1  0.93690026  0.22180692  0.57364409  1  0.084843  0  0.10425  0.104307  0  0.983343  0
H  H107  1  0.27818624  0.43697327  0.32366509  1  0.085589  0  0.10426  0.104356  0  0.983463  0
H  H108  1  0.65920601  0.84552466  0.14556084  1  0.046682  0  0.096492  0.09163  0  1.023435  0
H  H109  1  0.65442594  0.15922705  0.89554316  1  0.046731  0  0.096453  0.091721  0  1.023416  0
H  H110  1  0.34080562  0.15444007  0.64555525  1  0.046574  0  0.096463  0.091523  0  1.023679  0
H  H111  1  0.34556837  0.84077690  0.39553671  1  0.04677  0  0.096548  0.091845  0  1.023459  0
H  H112  1  0.15922985  0.65443230  0.10442767  1  0.046961  0  0.0965  0.091671  0  1.023513  0
H  H113  1  0.84552826  0.65917807  0.85444210  1  0.046547  0  0.096502  0.091539  0  1.023621  0
H  H114  1  0.84077348  0.34555111  0.60444132  1  0.046959  0  0.096433  0.09161  0  1.023531  0
H  H115  1  0.15446432  0.34081825  0.35446086  1  0.046294  0  0.096474  0.091625  0  1.023686  0
C  C116  1  0.98278668  0.19894785  0.19023126  1  1.622368  0  0.216923  0.595836  0  4.203889  0
C  C117  1  0.30108366  0.48279283  0.94023467  1  1.622959  0  0.216671  0.595351  0  4.203842  0
C  C118  1  0.01720954  0.80106069  0.69023466  1  1.622213  0  0.216642  0.595595  0  4.204393  0
C  C119  1  0.69893933  0.51720887  0.44024766  1  1.621239  0  0.21658  0.595457  0  4.204429  0
C  C120  1  0.48279194  0.30108585  0.05975610  1  1.621933  0  0.216526  0.595388  0  4.204471  0
C  C121  1  0.19894915  0.98278800  0.80976895  1  1.622299  0  0.216977  0.595941  0  4.203791  0
C  C122  1  0.51720771  0.69892022  0.55976722  1  1.62238  0  0.216616  0.595235  0  4.20441  0
C  C123  1  0.80105161  0.01721189  0.30977309  1  1.623176  0  0.216799  0.595704  0  4.203969  0
C  C124  1  0.07532074  0.19019245  0.21427433  1  -0.015456  0  -0.00278  -0.06064  0  3.931379  0
C  C125  1  0.30982816  0.57533659  0.96428000  1  -0.015645  0  -0.002784  -0.060481  0  3.93106  0
C  C126  1  0.92468125  0.80981527  0.71428211  1  -0.015325  0  -0.002867  -0.060496  0  3.931348  0
C  C127  1  0.69018613  0.42466956  0.46428593  1  -0.015827  0  -0.002788  -0.060397  0  3.931217  0
C  C128  1  0.57534168  0.30982650  0.03571555  1  -0.016284  0  -0.002757  -0.060598  0  3.931295  0
C  C129  1  0.19019121  0.07532110  0.78572538  1  -0.015394  0  -0.002758  -0.06059  0  3.931411  0
C  C130  1  0.42466536  0.69018170  0.53572141  1  -0.015806  0  -0.002696  -0.060179  0  3.930937  0
C  C131  1  0.80980508  0.92467761  0.28572984  1  -0.015669  0  -0.002697  -0.060263  0  3.931151  0
C  C132  1  0.09094059  0.15470386  0.27289155  1  -0.069379  0  -0.057265  -0.039178  0  3.942753  0
C  C133  1  0.34531357  0.59094301  0.02289938  1  -0.069989  0  -0.057314  -0.039164  0  3.942672  0
C  C134  1  0.90906236  0.84531205  0.77289972  1  -0.069655  0  -0.057204  -0.039159  0  3.942355  0
C  C135  1  0.65470145  0.40906724  0.52290318  1  -0.069453  0  -0.057305  -0.039325  0  3.942935  0
C  C136  1  0.59095221  0.34530453  0.97709602  1  -0.069126  0  -0.057161  -0.039049  0  3.942695  0
C  C137  1  0.15471725  0.09093793  0.72710591  1  -0.06912  0  -0.057293  -0.039296  0  3.943019  0
C  C138  1  0.40906200  0.65469628  0.47710476  1  -0.069779  0  -0.05734  -0.039273  0  3.942947  0
C  C139  1  0.84529257  0.90905524  0.22711217  1  -0.068256  0  -0.05724  -0.039081  0  3.942935  0
C  C140  1  0.17646482  0.15147713  0.29563801  1  -0.030652  0  -0.082153  -0.165239  0  3.963422  0
C  C141  1  0.34854777  0.67646564  0.04564211  1  -0.03157  0  -0.08204  -0.165349  0  3.962903  0
C  C142  1  0.82353997  0.84854391  0.79564640  1  -0.031376  0  -0.082141  -0.16528  0  3.963465  0
C  C143  1  0.65145789  0.32354578  0.54564897  1  -0.029942  0  -0.082024  -0.165102  0  3.963117  0
C  C144  1  0.67647352  0.34853622  0.95435533  1  -0.032123  0  -0.082127  -0.165403  0  3.963124  0
C  C145  1  0.15147221  0.17646047  0.70436013  1  -0.032391  0  -0.082032  -0.165099  0  3.963289  0
C  C146  1  0.32354411  0.65146012  0.45435878  1  -0.029907  0  -0.082171  -0.165382  0  3.963305  0
C  C147  1  0.84853577  0.82353416  0.20437358  1  -0.033134  0  -0.082077  -0.165237  0  3.963544  0
C  C148  1  0.24494983  0.18602374  0.25963980  1  0.512022  0  0.122671  0.167043  0  3.995998  0
C  C149  1  0.31398184  0.74496021  0.00965277  1  0.514068  0  0.122799  0.167648  0  3.995646  0
C  C150  1  0.75505386  0.81398501  0.75965451  1  0.513089  0  0.122666  0.16727  0  3.996391  0
C  C151  1  0.68601548  0.25504815  0.50966299  1  0.512678  0  0.122733  0.167522  0  3.996102  0
C  C152  1  0.74496433  0.31397620  0.99034595  1  0.514536  0  0.122874  0.16759  0  3.996392  0
C  C153  1  0.18600762  0.24494681  0.74035664  1  0.51341  0  0.122574  0.167084  0  3.996486  0
C  C154  1  0.25504913  0.68602057  0.49034810  1  0.512143  0  0.122792  0.16751  0  3.995734  0
C  C155  1  0.81398763  0.75504364  0.24036948  1  0.513608  0  0.122783  0.167229  0  3.995886  0
C  C156  1  0.14733356  0.22158902  0.18078670  1  0.551587  0  0.067003  0.099972  0  3.875622  0
C  C157  1  0.27843755  0.64734272  0.93079337  1  0.552017  0  0.067139  0.100161  0  3.875666  0
C  C158  1  0.85266864  0.77842287  0.68080032  1  0.551499  0  0.06704  0.10001  0  3.875809  0
C  C159  1  0.72156509  0.35265377  0.43080082  1  0.55216  0  0.067136  0.100152  0  3.875903  0
C  C160  1  0.64735132  0.27843390  0.06920344  1  0.552141  0  0.067136  0.100213  0  3.875718  0
C  C161  1  0.22159105  0.14733657  0.81920670  1  0.551778  0  0.067096  0.100136  0  3.875799  0
C  C162  1  0.35265419  0.72156816  0.56921033  1  0.55198  0  0.067099  0.099977  0  3.87548  0
C  C163  1  0.77840307  0.85266721  0.31921194  1  0.551377  0  0.066873  0.099508  0  3.875975  0
C  C164  1  0.33824011  0.18637522  0.27946148  1  0.565105  0  0.126012  0.174396  0  3.970901  0
C  C165  1  0.31364169  0.83824661  0.02948367  1  0.565991  0  0.125998  0.174021  0  3.971399  0
C  C166  1  0.66176082  0.81363341  0.77947414  1  0.565611  0  0.126075  0.174235  0  3.971529  0
C  C167  1  0.68636407  0.16175438  0.52948356  1  0.552177  0  0.125928  0.173903  0  3.97115  0
C  C168  1  0.83825142  0.31363946  0.97051986  1  0.565968  0  0.12592  0.173939  0  3.971601  0
C  C169  1  0.18635923  0.33823863  0.72053745  1  0.565152  0  0.126039  0.174133  0  3.971222  0
C  C170  1  0.16175558  0.68637060  0.47052042  1  0.565125  0  0.126103  0.174332  0  3.971273  0
C  C171  1  0.81363352  0.66175457  0.22054228  1  0.565075  0  0.126127  0.174369  0  3.971179  0
C  C172  1  0.36741485  0.14829435  0.33470325  1  -0.057852  0  -0.082304  -0.162939  0  3.951919  0
C  C173  1  0.35172591  0.86742133  0.08472070  1  -0.057814  0  -0.08249  -0.163064  0  3.95261  0
C  C174  1  0.63258048  0.85172644  0.83470662  1  -0.058297  0  -0.082351  -0.163046  0  3.952135  0
C  C175  1  0.64828281  0.13258787  0.58472217  1  -0.044402  0  -0.082411  -0.162754  0  3.952008  0
C  C176  1  0.86742600  0.35172182  0.91528171  1  -0.058028  0  -0.082398  -0.162795  0  3.952342  0
C  C177  1  0.14828307  0.36740893  0.66529941  1  -0.057946  0  -0.082272  -0.162661  0  3.952247  0
C  C178  1  0.13258068  0.64828333  0.41529032  1  -0.057656  0  -0.082424  -0.16306  0  3.952401  0
C  C179  1  0.85170343  0.63258660  0.16530007  1  -0.057865  0  -0.082276  -0.162812  0  3.952095  0
C  C180  1  0.45692320  0.14828179  0.34816193  1  -0.03204  0  -0.057909  -0.033092  0  3.931611  0
C  C181  1  0.35173244  0.95692453  0.09817567  1  -0.031654  0  -0.057907  -0.033022  0  3.931212  0
C  C182  1  0.54307205  0.85173167  0.84816510  1  -0.03212  0  -0.057967  -0.033226  0  3.931826  0
C  C183  1  0.64827224  0.04308129  0.59818158  1  -0.031246  0  -0.057915  -0.033428  0  3.931063  0
C  C184  1  0.95693509  0.35171725  0.90182416  1  -0.032164  0  -0.057942  -0.033106  0  3.931324  0
C  C185  1  0.14827982  0.45691485  0.65183123  1  -0.031615  0  -0.058  -0.033493  0  3.931564  0
C  C186  1  0.04307299  0.64828009  0.40182840  1  -0.032013  0  -0.057979  -0.03323  0  3.93133  0
C  C187  1  0.85171203  0.54307813  0.15183955  1  -0.031718  0  -0.057982  -0.033238  0  3.931767  0
C  C188  1  0.51586565  0.18644153  0.30652061  1  -0.046296  0  -0.008024  -0.076365  0  3.953904  0
C  C189  1  0.31357788  0.01587209  0.05652727  1  -0.047523  0  -0.007986  -0.076281  0  3.953556  0
C  C190  1  0.48413315  0.81355706  0.80653468  1  -0.047162  0  -0.008013  -0.07597  0  3.953703  0
C  C191  1  0.68641587  0.98413070  0.55652823  1  -0.047203  0  -0.008003  -0.076261  0  3.953509  0
C  C192  1  0.01587211  0.31355411  0.94347548  1  -0.046554  0  -0.007895  -0.076175  0  3.953675  0
C  C193  1  0.18643624  0.51586656  0.69347041  1  -0.046822  0  -0.007904  -0.07597  0  3.953774  0
C  C194  1  0.98413638  0.68644164  0.44347606  1  -0.046589  0  -0.008031  -0.076297  0  3.95324  0
C  C195  1  0.81356523  0.48413011  0.19347995  1  -0.046478  0  -0.007915  -0.075988  0  3.953778  0
C  C196  1  0.48185343  0.22480717  0.25295641  1  0.5356  0  0.07056  0.100638  0  3.874932  0
C  C197  1  0.27521758  0.98185229  0.00295652  1  0.536465  0  0.070477  0.100493  0  3.874823  0
C  C198  1  0.51814636  0.77518452  0.75297236  1  0.536402  0  0.070501  0.100367  0  3.875202  0
C  C199  1  0.72475741  0.01814031  0.50294984  1  0.536402  0  0.070496  0.100631  0  3.874773  0
C  C200  1  0.98185429  0.27519817  0.99704342  1  0.535376  0  0.070511  0.100524  0  3.874999  0
C  C201  1  0.22479387  0.48185618  0.74703875  1  0.536515  0  0.070412  0.100331  0  3.875144  0
C  C202  1  0.01815693  0.72479382  0.49704983  1  0.536293  0  0.070575  0.100597  0  3.874345  0
C  C203  1  0.77519542  0.51814278  0.24704506  1  0.535991  0  0.070638  0.100577  0  3.875119  0
C  C204  1  0.61368275  0.18425635  0.31685551  1  1.61697  0  0.215273  0.589772  0  4.215505  0
C  C205  1  0.31576492  0.11367560  0.06686814  1  1.616484  0  0.215281  0.590035  0  4.215648  0
C  C206  1  0.38631138  0.81573954  0.81686707  1  1.617209  0  0.215289  0.589645  0  4.215552  0
C  C207  1  0.68424719  0.88632318  0.56686249  1  1.618065  0  0.215312  0.589874  0  4.215719  0
C  C208  1  0.11368285  0.31574712  0.93313754  1  1.617756  0  0.215214  0.589808  0  4.21586  0
C  C209  1  0.18424782  0.61368511  0.68313430  1  1.617743  0  0.215297  0.589956  0  4.215488  0
C  C210  1  0.88632438  0.68426120  0.43314532  1  1.617477  0  0.215138  0.58947  0  4.215846  0
C  C211  1  0.81574450  0.38631294  0.18314231  1  1.616818  0  0.215067  0.589413  0  4.215817  0
C  C212  1  0.76333960  0.09575683  0.12562972  1  1.508697  0  0.195007  0.614512  0  4.174358  0
C  C213  1  0.40422604  0.26332306  0.87563564  1  1.50944  0  0.195098  0.614809  0  4.174011  0
C  C214  1  0.23666360  0.90423237  0.62563588  1  1.509173  0  0.195129  0.615  0  4.174037  0
C  C215  1  0.59575851  0.73666259  0.37564591  1  1.509064  0  0.195025  0.614753  0  4.174647  0
C  C216  1  0.26332373  0.40423050  0.12434994  1  1.509993  0  0.194936  0.614746  0  4.17446  0
C  C217  1  0.09577487  0.76333921  0.87436129  1  1.509561  0  0.195102  0.614869  0  4.174379  0
C  C218  1  0.73667026  0.59577253  0.62436123  1  1.509691  0  0.194971  0.614854  0  4.174653  0
C  C219  1  0.90422614  0.23666817  0.37436260  1  1.509442  0  0.194997  0.614674  0  4.174366  0
C  C220  1  0.70805272  0.01862715  0.13893450  1  -0.023745  0  -0.100269  -0.235466  0  3.953546  0
C  C221  1  0.48135007  0.20803756  0.88892728  1  -0.02413  0  -0.100431  -0.235954  0  3.953449  0
C  C222  1  0.29195764  0.98134748  0.63894073  1  -0.025544  0  -0.100379  -0.235983  0  3.95352  0
C  C223  1  0.51864230  0.79195854  0.38893435  1  -0.023355  0  -0.100381  -0.2358  0  3.953271  0
C  C224  1  0.20803009  0.48134691  0.11106009  1  -0.024128  0  -0.100492  -0.236148  0  3.953658  0
C  C225  1  0.01865403  0.70805406  0.86106383  1  -0.025637  0  -0.100287  -0.235777  0  3.953612  0
C  C226  1  0.79194490  0.51864962  0.61107055  1  -0.02478  0  -0.10025  -0.235795  0  3.953761  0
C  C227  1  0.98134839  0.29195866  0.36106521  1  -0.025122  0  -0.100228  -0.235637  0  3.953229  0
C  C228  1  0.63946371  0.01968993  0.17834826  1  -0.039562  0  -0.070214  -0.056257  0  3.937547  0
C  C229  1  0.48027346  0.13944428  0.92833874  1  -0.039625  0  -0.070063  -0.055787  0  3.936865  0
C  C230  1  0.36054969  0.98028051  0.67835337  1  -0.03868  0  -0.070064  -0.05578  0  3.937195  0
C  C231  1  0.51972262  0.86056210  0.42833913  1  -0.039675  0  -0.070119  -0.056019  0  3.937001  0
C  C232  1  0.13942479  0.48027186  0.07165668  1  -0.039932  0  -0.06998  -0.05575  0  3.937211  0
C  C233  1  0.01970520  0.63946703  0.82164750  1  -0.038437  0  -0.07033  -0.0561  0  3.937459  0
C  C234  1  0.86054846  0.51972096  0.57166695  1  -0.039556  0  -0.070333  -0.056337  0  3.937158  0
C  C235  1  0.98029613  0.36054331  0.32164867  1  -0.039195  0  -0.070297  -0.055949  0  3.937746  0
C  C236  1  0.58303104  0.94503484  0.19344722  1  -0.017141  0  -0.009782  0.100105  0  4.020353  0
C  C237  1  0.55494678  0.08303668  0.94343723  1  -0.016712  0  -0.009716  0.100125  0  4.020071  0
C  C238  1  0.41697701  0.05494670  0.69344681  1  -0.016453  0  -0.009781  0.099979  0  4.020295  0
C  C239  1  0.44504460  0.91696566  0.44343765  1  -0.016594  0  -0.009705  0.100211  0  4.020125  0
C  C240  1  0.08302616  0.55494812  0.05654797  1  -0.016447  0  -0.00989  0.099774  0  4.020401  0
C  C241  1  0.94504394  0.58303149  0.80655242  1  -0.018058  0  -0.009868  0.099934  0  4.020161  0
C  C242  1  0.91695772  0.44504875  0.55656017  1  -0.016492  0  -0.009583  0.100633  0  4.019646  0
C  C243  1  0.05496538  0.41697236  0.30655459  1  -0.017555  0  -0.009793  0.099947  0  4.019982  0
C  C244  1  0.50854749  0.95875995  0.23095068  1  -0.082588  0  -0.085028  -0.118125  0  3.938527  0
C  C245  1  0.54123234  0.00856310  0.98094167  1  -0.05362  0  -0.08506  -0.118112  0  3.93863  0
C  C246  1  0.49145770  0.04122200  0.73094549  1  -0.083266  0  -0.084882  -0.117874  0  3.938284  0
C  C247  1  0.45874960  0.99144163  0.48094459  1  -0.053482  0  -0.085016  -0.117925  0  3.938753  0
C  C248  1  0.00854117  0.54124583  0.01905719  1  -0.05462  0  -0.084924  -0.117775  0  3.938814  0
C  C249  1  0.95875819  0.50856113  0.76903436  1  -0.031789  0  -0.084787  -0.117666  0  3.937951  0
C  C250  1  0.99143569  0.45875851  0.51906544  1  -0.082357  0  -0.085058  -0.118325  0  3.938737  0
C  C251  1  0.04124347  0.49144954  0.26903495  1  -0.032134  0  -0.084876  -0.117892  0  3.938123  0
C  C252  1  0.45378074  0.88905593  0.24759117  1  -0.088465  0  -0.092999  -0.086645  0  4.034581  0
C  C253  1  0.61093841  0.95379814  0.99757714  1  -0.088158  0  -0.093133  -0.086812  0  4.034708  0
C  C254  1  0.54622039  0.11093513  0.74758792  1  -0.087903  0  -0.093109  -0.086783  0  4.034621  0
C  C255  1  0.38905922  0.04622688  0.49758419  1  -0.088687  0  -0.093013  -0.08666  0  4.035124  0
C  C256  1  0.95376623  0.61094369  0.00242192  1  -0.088743  0  -0.093  -0.086788  0  4.035149  0
C  C257  1  0.88905319  0.45378429  0.75239008  1  -0.108367  0  -0.093056  -0.086815  0  4.034388  0
C  C258  1  0.04622324  0.38906537  0.50242194  1  -0.08883  0  -0.09303  -0.086774  0  4.034829  0
C  C259  1  0.11094067  0.54622649  0.25239400  1  -0.108383  0  -0.093058  -0.086588  0  4.034462  0
C  C260  1  0.47278215  0.80372560  0.22762033  1  0.006387  0  -0.089647  -0.08035  0  4.019469  0
C  C261  1  0.69626287  0.97279714  0.97760835  1  0.007951  0  -0.08962  -0.080322  0  4.019688  0
C  C262  1  0.52721516  0.19626098  0.72762147  1  0.007075  0  -0.089518  -0.080194  0  4.019362  0
C  C263  1  0.30374804  0.02721353  0.47761846  1  0.007774  0  -0.089773  -0.08043  0  4.019619  0
C  C264  1  0.97278760  0.69625830  0.02237701  1  0.007934  0  -0.089778  -0.080373  0  4.019712  0
C  C265  1  0.80372486  0.47278414  0.77237036  1  0.006675  0  -0.089609  -0.080295  0  4.01928  0
C  C266  1  0.02721294  0.30374866  0.52237644  1  0.008255  0  -0.089767  -0.080494  0  4.019881  0
C  C267  1  0.19626560  0.52723111  0.27237964  1  0.006758  0  -0.089644  -0.080468  0  4.01927  0
C  C268  1  0.54672603  0.78873171  0.19053106  1  -0.057458  0  -0.091053  -0.081887  0  4.030887  0
C  C269  1  0.71127717  0.04676310  0.94053678  1  -0.057581  0  -0.091016  -0.081821  0  4.030041  0
C  C270  1  0.45326426  0.21126366  0.69053190  1  -0.05744  0  -0.091079  -0.082004  0  4.030734  0
C  C271  1  0.28873332  0.95323070  0.44054722  1  -0.057488  0  -0.090957  -0.081651  0  4.029986  0
C  C272  1  0.04677933  0.71127162  0.05943975  1  -0.057809  0  -0.091023  -0.081886  0  4.030203  0
C  C273  1  0.78873064  0.54672537  0.80946360  1  -0.057896  0  -0.091107  -0.081761  0  4.030862  0
C  C274  1  0.95323151  0.28872523  0.55944681  1  -0.058029  0  -0.090849  -0.08157  0  4.030051  0
C  C275  1  0.21126683  0.45328504  0.30947031  1  -0.058228  0  -0.090908  -0.081569  0  4.030412  0
C  C276  1  0.60083997  0.85845479  0.17343805  1  -0.054899  0  -0.089402  -0.128355  0  3.963847  0
C  C277  1  0.64155116  0.10087357  0.92344489  1  -0.055638  0  -0.089365  -0.128513  0  3.96331  0
C  C278  1  0.39915898  0.14154135  0.67344388  1  -0.054901  0  -0.089344  -0.128115  0  3.964051  0
C  C279  1  0.35844035  0.89911243  0.42344930  1  -0.056089  0  -0.089511  -0.128906  0  3.963785  0
C  C280  1  0.10088805  0.64155711  0.07652754  1  -0.055795  0  -0.08934  -0.128291  0  3.963538  0
C  C281  1  0.85845404  0.60083427  0.82655948  1  -0.05482  0  -0.089361  -0.128248  0  3.964057  0
C  C282  1  0.89911743  0.35843503  0.57654329  1  -0.056058  0  -0.089544  -0.128685  0  3.963446  0
C  C283  1  0.14154595  0.39916682  0.32656979  1  -0.0541  0  -0.089377  -0.128506  0  3.964133  0
N  N284  1  0.22918056  0.22057918  0.20339786  1  -1.219927  0  -0.307871  -0.251659  0  3.493802  0
N  N285  1  0.27944865  0.72918273  0.95341098  1  -1.22091  0  -0.30799  -0.251978  0  3.494456  0
N  N286  1  0.77081755  0.77943388  0.70341032  1  -1.220192  0  -0.30794  -0.251858  0  3.494227  0
N  N287  1  0.72054925  0.27082086  0.45342331  1  -1.221485  0  -0.308145  -0.252177  0  3.494998  0
N  N288  1  0.72918801  0.27943921  0.04658374  1  -1.221689  0  -0.308202  -0.252142  0  3.494996  0
N  N289  1  0.22057213  0.22917532  0.79659252  1  -1.220215  0  -0.308003  -0.251867  0  3.494625  0
N  N290  1  0.27081699  0.72055312  0.54659131  1  -1.220846  0  -0.308077  -0.252013  0  3.49448  0
N  N291  1  0.77942278  0.77081544  0.29660818  1  -1.219648  0  -0.307868  -0.251624  0  3.493943  0
N  N292  1  0.39587957  0.22449081  0.24001905  1  -1.265911  0  -0.311838  -0.239774  0  3.507255  0
N  N293  1  0.27554965  0.89587320  0.99002337  1  -1.266385  0  -0.311786  -0.239775  0  3.507251  0
N  N294  1  0.60411766  0.77551280  0.74003568  1  -1.265683  0  -0.311898  -0.239792  0  3.507808  0
N  N295  1  0.72443289  0.10412028  0.49001314  1  -1.265868  0  -0.311741  -0.239794  0  3.506896  0
N  N296  1  0.89587774  0.27553717  0.00997825  1  -1.265935  0  -0.31173  -0.239691  0  3.50742  0
N  N297  1  0.22447941  0.39588211  0.75998514  1  -1.265816  0  -0.311823  -0.239719  0  3.506934  0
N  N298  1  0.10413208  0.72446395  0.50998304  1  -1.265791  0  -0.311833  -0.239791  0  3.507056  0
N  N299  1  0.77551836  0.60411348  0.25998287  1  -1.266104  0  -0.312051  -0.240015  0  3.507503  0
O  O300  1  0.92436613  0.19811114  0.23163656  1  -1.184541  0  -0.306764  -0.56109  0  2.406972  0
O  O301  1  0.30188161  0.42436809  0.98163859  1  -1.185267  0  -0.306763  -0.560988  0  2.406719  0
O  O302  1  0.07563115  0.80190700  0.73163795  1  -1.184665  0  -0.306576  -0.560954  0  2.407158  0
O  O303  1  0.69814836  0.57563467  0.48164863  1  -1.183743  0  -0.306627  -0.560968  0  2.407032  0
O  O304  1  0.42436973  0.30188076  0.01835143  1  -1.184219  0  -0.306726  -0.560991  0  2.407085  0
O  O305  1  0.19815481  0.92436609  0.76836244  1  -1.184693  0  -0.306785  -0.561191  0  2.406981  0
O  O306  1  0.57564531  0.69808937  0.51836238  1  -1.184784  0  -0.306712  -0.561038  0  2.406817  0
O  O307  1  0.80186857  0.07563340  0.26836824  1  -1.185349  0  -0.306703  -0.561059  0  2.406953  0
O  O308  1  0.97216851  0.20747687  0.13223052  1  -1.176268  0  -0.313266  -0.537697  0  2.294212  0
O  O309  1  0.29256667  0.47217871  0.88223119  1  -1.17578  0  -0.313177  -0.537554  0  2.294063  0
O  O310  1  0.02782017  0.79251558  0.63223346  1  -1.175964  0  -0.313194  -0.537659  0  2.294175  0
O  O311  1  0.70744416  0.52781545  0.38224043  1  -1.175484  0  -0.313108  -0.537565  0  2.294314  0
O  O312  1  0.47217147  0.29257579  0.11776056  1  -1.175541  0  -0.312978  -0.537469  0  2.294329  0
O  O313  1  0.20746733  0.97217809  0.86777015  1  -1.176036  0  -0.313284  -0.537706  0  2.294139  0
O  O314  1  0.52782124  0.70744767  0.61776377  1  -1.175875  0  -0.313105  -0.537421  0  2.294597  0
O  O315  1  0.79251135  0.02782604  0.36777336  1  -1.176281  0  -0.313183  -0.537657  0  2.294095  0
O  O316  1  0.63920792  0.14851414  0.36672335  1  -1.174178  0  -0.317097  -0.540057  0  2.330145  0
O  O317  1  0.35151944  0.13921245  0.11673311  1  -1.173194  0  -0.317249  -0.540378  0  2.32967  0
O  O318  1  0.36077669  0.85149921  0.86672795  1  -1.174192  0  -0.317146  -0.540115  0  2.330107  0
O  O319  1  0.64851671  0.86078536  0.61673226  1  -1.174549  0  -0.317248  -0.54024  0  2.329943  0
O  O320  1  0.13923135  0.35151424  0.88328255  1  -1.17462  0  -0.317121  -0.540159  0  2.329996  0
O  O321  1  0.14850899  0.63922623  0.63326972  1  -1.174732  0  -0.317193  -0.540275  0  2.330432  0
O  O322  1  0.86078409  0.64849308  0.38328544  1  -1.174291  0  -0.317039  -0.539988  0  2.329901  0
O  O323  1  0.85148495  0.36078332  0.13327355  1  -1.174388  0  -0.317084  -0.539977  0  2.330266  0
O  O324  1  0.66026576  0.21739524  0.27428608  1  -1.17458  0  -0.307053  -0.55062  0  2.343658  0
O  O325  1  0.28259333  0.16024866  0.02431497  1  -1.17528  0  -0.306861  -0.550465  0  2.343787  0
O  O326  1  0.33973718  0.78258184  0.77429835  1  -1.17506  0  -0.30697  -0.550462  0  2.343499  0
O  O327  1  0.71740917  0.83974315  0.52430753  1  -1.175543  0  -0.306934  -0.550457  0  2.343945  0
O  O328  1  0.16025461  0.28256954  0.97569391  1  -1.175263  0  -0.307009  -0.550601  0  2.343901  0
O  O329  1  0.21739453  0.66026165  0.72570487  1  -1.175015  0  -0.306946  -0.550565  0  2.343477  0
O  O330  1  0.83974973  0.71743983  0.47569432  1  -1.174963  0  -0.306962  -0.550397  0  2.344073  0
O  O331  1  0.78258831  0.33972889  0.22570481  1  -1.174596  0  -0.306926  -0.550431  0  2.343551  0
O  O332  1  0.75516955  0.16805052  0.15728208  1  -1.185992  0  -0.324539  -0.596244  0  2.394523  0
O  O333  1  0.33193638  0.25513525  0.90728591  1  -1.18645  0  -0.324588  -0.596431  0  2.394849  0
O  O334  1  0.24483148  0.83194045  0.65728568  1  -1.185986  0  -0.324547  -0.596358  0  2.39483  0
O  O335  1  0.66803943  0.74484362  0.40729873  1  -1.186408  0  -0.324526  -0.596247  0  2.394796  0
O  O336  1  0.25513739  0.33194344  0.09270176  1  -1.186909  0  -0.324555  -0.596395  0  2.394917  0
O  O337  1  0.16805933  0.75515164  0.84271058  1  -1.186242  0  -0.324536  -0.596232  0  2.394619  0
O  O338  1  0.74487588  0.66806241  0.59271880  1  -1.186359  0  -0.324445  -0.596334  0  2.394983  0
O  O339  1  0.83194057  0.24483422  0.34270930  1  -1.186157  0  -0.324531  -0.596287  0  2.39496  0
O  O340  1  0.81742922  0.09225342  0.08107156  1  -1.151676  0  -0.325516  -0.53971  0  2.105668  0
O  O341  1  0.40772253  0.31743499  0.83108762  1  -1.151248  0  -0.325505  -0.539674  0  2.10561  0
O  O342  1  0.18256701  0.90774132  0.58108479  1  -1.151228  0  -0.3256  -0.53987  0  2.105573  0
O  O343  1  0.59226164  0.68256016  0.33109669  1  -1.151578  0  -0.325578  -0.539884  0  2.105684  0
O  O344  1  0.31743506  0.40773656  0.16889594  1  -1.151372  0  -0.325383  -0.539619  0  2.105675  0
O  O345  1  0.09226195  0.81743678  0.91891283  1  -1.151189  0  -0.325487  -0.539721  0  2.105624  0
O  O346  1  0.68256195  0.59226355  0.66890693  1  -1.15129  0  -0.325505  -0.539743  0  2.105807  0
O  O347  1  0.90773023  0.18257624  0.41891754  1  -1.151286  0  -0.325487  -0.539677  0  2.105737  0
