# generated using pymatgen
data_AgH18C15SN3(OF)3
_symmetry_space_group_name_H-M   'P 1'
_cell_length_a   9.33709757
_cell_length_b   9.56037240
_cell_length_c   11.04730616
_cell_angle_alpha   75.16207028
_cell_angle_beta   85.50309961
_cell_angle_gamma   65.19594184
_symmetry_Int_Tables_number   1
_chemical_formula_structural   AgH18C15SN3(OF)3
_chemical_formula_sum   'Ag2 H36 C30 S2 N6 O6 F6'
_cell_volume   864.85165059
_cell_formula_units_Z   2
loop_
 _symmetry_equiv_pos_site_id
 _symmetry_equiv_pos_as_xyz
  1  'x, y, z'
loop_
 _atom_site_type_symbol
 _atom_site_label
 _atom_site_symmetry_multiplicity
 _atom_site_fract_x
 _atom_site_fract_y
 _atom_site_fract_z
 _atom_site_occupancy
 _atom_site_pbe_bader_spin_density
 _atom_site_pbe_cm5_charge
 _atom_site_pbe_ddec_charge
 _atom_site_pbe_ddec_spin_density
 _atom_site_pbe_ddec_sum_bond_order
 _atom_site_pbe_magmom
Ag  Ag0  1  0.46169257  0.72200104  0.34167680  1  0  0.472771  0.359086  0  1.799637  0
Ag  Ag1  1  0.53830727  0.27799933  0.65832179  1  0  0.472773  0.359074  0  1.799657  0
H  H2  1  0.79265175  0.51758689  0.26408101  1  0  0.114827  0.090397  0  1.028653  0
H  H3  1  0.20735062  0.48240992  0.73592001  1  0  0.114812  0.090369  0  1.028581  0
H  H4  1  0.06725063  0.49385996  0.27348085  1  0  0.110118  0.125116  0  0.994978  0
H  H5  1  0.93274958  0.50613686  0.72652212  1  0  0.110117  0.12512  0  0.994992  0
H  H6  1  0.89830543  0.84065984  0.49599494  1  0  0.113158  0.129631  0  0.991799  0
H  H7  1  0.10169275  0.15933935  0.50400492  1  0  0.113161  0.129637  0  0.991868  0
H  H8  1  0.62902524  0.85910938  0.47005212  1  0  0.114948  0.100969  0  1.015954  0
H  H9  1  0.37097401  0.14088980  0.52994767  1  0  0.114939  0.100967  0  1.015966  0
H  H10  1  0.19161236  0.66367414  0.48973189  1  0  0.107333  0.098034  0  1.015478  0
H  H11  1  0.80838855  0.33632624  0.51026753  1  0  0.107336  0.09803  0  1.015501  0
H  H12  1  0.25875751  0.53748369  0.38525208  1  0  0.107037  0.108545  0  1.010649  0
H  H13  1  0.74124075  0.46251787  0.61474724  1  0  0.107032  0.108538  0  1.010635  0
H  H14  1  0.12331385  0.94136771  0.41538811  1  0  0.106192  0.096239  0  0.998011  0
H  H15  1  0.87668393  0.05863503  0.58460917  1  0  0.106198  0.096227  0  0.998004  0
H  H16  1  0.98572449  0.97381564  0.29624181  1  0  0.099314  0.084742  0  1.014429  0
H  H17  1  0.01427535  0.02618473  0.70375587  1  0  0.099324  0.084773  0  1.014403  0
H  H18  1  0.09001702  0.17723800  0.24088840  1  0  0.107798  0.101867  0  0.977399  0
H  H19  1  0.90998547  0.82276118  0.75910847  1  0  0.107831  0.101926  0  0.97741  0
H  H20  1  0.28869959  0.02849177  0.25816925  1  0  0.077485  0.036112  0  1.043573  0
H  H21  1  0.71130123  0.97150622  0.74182890  1  0  0.077481  0.036095  0  1.043597  0
H  H22  1  0.37182668  0.85195803  0.09855559  1  0  0.075041  0.024427  0  1.047065  0
H  H23  1  0.62817306  0.14803996  0.90144263  1  0  0.075024  0.02441  0  1.047088  0
H  H24  1  0.22217635  0.89341917  0.98645096  1  0  0.101431  0.088594  0  0.993512  0
H  H25  1  0.77782292  0.10658000  0.01354612  1  0  0.101453  0.088639  0  0.993519  0
H  H26  1  0.06541730  0.80506460  0.15134653  1  0  0.101128  0.083993  0  0.995978  0
H  H27  1  0.93458195  0.19493459  0.84865326  1  0  0.101128  0.083981  0  0.995971  0
H  H28  1  0.26181512  0.65390091  0.16124955  1  0  0.106166  0.096429  0  0.978431  0
H  H29  1  0.73818355  0.34609709  0.83875054  1  0  0.106183  0.096478  0  0.978417  0
H  H30  1  0.20398294  0.14662463  0.91936862  1  0  0.100938  0.08438  0  0.987707  0
H  H31  1  0.79601904  0.85337575  0.08063073  1  0  0.100945  0.084373  0  0.987709  0
H  H32  1  0.32827097  0.14214979  0.03462572  1  0  0.085594  0.056865  0  0.996884  0
H  H33  1  0.67173240  0.85784463  0.96537306  1  0  0.085595  0.056862  0  0.996882  0
H  H34  1  0.88745416  0.29903137  0.05528338  1  0  0.099063  0.105136  0  1.027171  0
H  H35  1  0.11255424  0.70096904  0.94471917  1  0  0.099139  0.105198  0  1.02724  0
H  H36  1  0.28683651  0.41591461  0.96629614  1  0  0.091051  0.092705  0  1.0254  0
H  H37  1  0.71317025  0.58408460  0.03370498  1  0  0.091068  0.092724  0  1.025394  0
C  C38  1  0.82031720  0.59072841  0.31121838  1  0  0.043005  0.085032  0  3.935005  0
C  C39  1  0.17968360  0.40926960  0.68878248  1  0  0.043006  0.085015  0  3.934924  0
C  C40  1  0.97390227  0.57669488  0.31853548  1  0  -0.081238  -0.171276  0  3.93155  0
C  C41  1  0.02609794  0.42330194  0.68146749  1  0  -0.081226  -0.171279  0  3.93154  0
C  C42  1  0.00673938  0.66719527  0.38468562  1  0  0.006979  0.134874  0  3.948573  0
C  C43  1  0.99326036  0.33280273  0.61531531  1  0  0.006983  0.134936  0  3.94853  0
C  C44  1  0.88063916  0.76885447  0.44136170  1  0  -0.080677  -0.165536  0  3.922964  0
C  C45  1  0.11935951  0.23114353  0.55863930  1  0  -0.080673  -0.165568  0  3.92295  0
C  C46  1  0.72938092  0.77967049  0.42810108  1  0  0.042274  0.087339  0  3.927984  0
C  C47  1  0.27061881  0.22032751  0.57189985  1  0  0.042264  0.087296  0  3.927907  0
C  C48  1  0.17207251  0.65360158  0.39624329  1  0  -0.07613  -0.140115  0  3.869338  0
C  C49  1  0.82792576  0.34639998  0.60375603  1  0  -0.076123  -0.140126  0  3.869293  0
C  C50  1  0.11072852  0.93981565  0.31792793  1  0  -0.081646  -0.104963  0  3.891283  0
C  C51  1  0.88927074  0.06018353  0.68207005  1  0  -0.081624  -0.104939  0  3.891231  0
C  C52  1  0.16519775  0.05704926  0.23040824  1  0  -0.073112  -0.073455  0  3.93548  0
C  C53  1  0.83480307  0.94294873  0.76958991  1  0  -0.073219  -0.073614  0  3.935605  0
C  C54  1  0.24191062  0.89289878  0.08330121  1  0  -0.071665  -0.079266  0  3.97832  0
C  C55  1  0.75808922  0.10710159  0.91669647  1  0  -0.07164  -0.079281  0  3.978408  0
C  C56  1  0.19007050  0.77435967  0.17269889  1  0  -0.074736  -0.095662  0  3.893079  0
C  C57  1  0.80992827  0.22564070  0.82729885  1  0  -0.074756  -0.095695  0  3.893078  0
C  C58  1  0.20425037  0.16603117  0.01364814  1  0  -0.062961  -0.098773  0  3.971097  0
C  C59  1  0.79575259  0.83396684  0.98635167  1  0  -0.06296  -0.098743  0  3.971024  0
C  C60  1  0.09873779  0.33759567  0.01013664  1  0  -0.01764  0.07916  0  3.987418  0
C  C61  1  0.90126946  0.66240235  0.98986471  1  0  -0.017641  0.079226  0  3.987247  0
C  C62  1  0.93658780  0.38740968  0.02953259  1  0  -0.096429  -0.130062  0  3.987189  0
C  C63  1  0.06341954  0.61259071  0.97046822  1  0  -0.096465  -0.130184  0  3.987199  0
C  C64  1  0.16061125  0.45227167  0.98124003  1  0  -0.10054  -0.147769  0  4.022535  0
C  C65  1  0.83939600  0.54772634  0.01876041  1  0  -0.100575  -0.147884  0  4.022521  0
C  C66  1  0.52788102  0.25061756  0.22165193  1  0  0.287445  0.505419  0  4.046202  0
C  C67  1  0.47211470  0.74938758  0.77834857  1  0  0.287473  0.505542  0  4.046237  0
S  S68  1  0.63410410  0.25990674  0.35348219  1  0  0.479355  0.978311  0  6.421478  0
S  S69  1  0.36588976  0.74009246  0.64652157  1  0  0.479288  0.978273  0  6.421806  0
N  N70  1  0.69922718  0.69210577  0.36372733  1  0  -0.352095  -0.199018  0  3.622428  0
N  N71  1  0.30077256  0.30789223  0.63627269  1  0  -0.352088  -0.198959  0  3.622399  0
N  N72  1  0.20958322  0.77674054  0.30383932  1  0  -0.34717  -0.06016  0  3.480248  0
N  N73  1  0.79041663  0.22325983  0.69615836  1  0  -0.347172  -0.060116  0  3.480074  0
N  N74  1  0.15419943  0.05302797  0.10030525  1  0  -0.342636  -0.131747  0  3.476645  0
N  N75  1  0.84580198  0.94697121  0.89969350  1  0  -0.342623  -0.131721  0  3.476628  0
O  O76  1  0.53203914  0.41651200  0.37377263  1  0  -0.346354  -0.582234  0  2.389937  0
O  O77  1  0.46795569  0.58348483  0.62623431  1  0  -0.346323  -0.582255  0  2.390141  0
O  O78  1  0.63407474  0.12686656  0.45451729  1  0  -0.333063  -0.560949  0  2.289243  0
O  O79  1  0.36592170  0.87312905  0.54548167  1  0  -0.333055  -0.56094  0  2.289348  0
O  O80  1  0.78811457  0.24403567  0.30460144  1  0  -0.33186  -0.541805  0  2.232413  0
O  O81  1  0.21188094  0.75596472  0.69540285  1  0  -0.33185  -0.541806  0  2.232535  0
F  F82  1  0.37502575  0.27961607  0.25021902  1  0  -0.091636  -0.18104  0  1.369325  0
F  F83  1  0.62496988  0.72038668  0.74978020  1  0  -0.091609  -0.181014  0  1.369272  0
F  F84  1  0.52697268  0.36099454  0.11508793  1  0  -0.094941  -0.179594  0  1.345844  0
F  F85  1  0.47302056  0.63901656  0.88491411  1  0  -0.095031  -0.179707  0  1.34589  0
F  F86  1  0.59600323  0.10514983  0.19590506  1  0  -0.093938  -0.189936  0  1.380169  0
F  F87  1  0.40399523  0.89485648  0.80409138  1  0  -0.093882  -0.189923  0  1.380256  0
