# generated using pymatgen
data_AlH3C8ClO5
_symmetry_space_group_name_H-M   'P 1'
_cell_length_a   6.69828726
_cell_length_b   14.69861352
_cell_length_c   16.67587525
_cell_angle_alpha   94.35565833
_cell_angle_beta   90.00039023
_cell_angle_gamma   89.99913240
_symmetry_Int_Tables_number   1
_chemical_formula_structural   AlH3C8ClO5
_chemical_formula_sum   'Al4 H12 C32 Cl4 O20'
_cell_volume   1637.09033594
_cell_formula_units_Z   4
loop_
 _symmetry_equiv_pos_site_id
 _symmetry_equiv_pos_as_xyz
  1  'x, y, z'
loop_
 _atom_site_type_symbol
 _atom_site_label
 _atom_site_symmetry_multiplicity
 _atom_site_fract_x
 _atom_site_fract_y
 _atom_site_fract_z
 _atom_site_occupancy
 _atom_site_pbe_bader_charge
 _atom_site_pbe_bader_spin_density
 _atom_site_pbe_cm5_charge
 _atom_site_pbe_ddec_charge
 _atom_site_pbe_ddec_spin_density
 _atom_site_pbe_ddec_sum_bond_order
 _atom_site_pbe_magmom
Al  Al0  1  0.87606618  0.50090814  0.49840432  1  2.499106  0  0.400424  1.645959  0  2.563124  0
Al  Al1  1  0.37606678  0.49909225  0.50159733  1  2.499105  0  0.400354  1.645932  0  2.563233  0
Al  Al2  1  0.38473267  0.00090473  0.00097951  1  2.501924  0  0.402389  1.648736  0  2.569418  0
Al  Al3  1  0.88472411  0.99909774  0.99902336  1  2.501923  0  0.402226  1.648766  0  2.5696  0
H  H4  1  0.37527123  0.61368144  0.74616851  1  0.113689  0  0.114596  0.134135  0  0.983421  0
H  H5  1  0.87527027  0.38631482  0.25383255  1  0.113715  0  0.114605  0.134135  0  0.983433  0
H  H6  1  0.68248472  0.85938163  0.77041909  1  0.120394  0  0.102736  0.129449  0  0.985323  0
H  H7  1  0.18248806  0.14062064  0.22958092  1  0.120436  0  0.102751  0.129498  0  0.98528  0
H  H8  1  0.88466683  0.83008626  0.60450279  1  0.088924  0  0.113158  0.095688  0  0.948486  0
H  H9  1  0.38467649  0.16991151  0.39550069  1  0.089094  0  0.113123  0.095663  0  0.948503  0
H  H10  1  0.85368506  0.93688009  0.72865588  1  0.086836  0  0.106905  0.129556  0  0.964622  0
H  H11  1  0.35369764  0.06312123  0.27134693  1  0.086683  0  0.106901  0.129578  0  0.964614  0
H  H12  1  0.62736373  0.61435067  0.53613510  1  0.617088  0  0.318958  0.396982  0  0.929711  0
H  H13  1  0.12736893  0.38565009  0.46386659  1  0.617111  0  0.31897  0.396993  0  0.929669  0
H  H14  1  0.63066393  0.88129320  0.97969248  1  0.612189  0  0.347229  0.427424  0  0.866683  0
H  H15  1  0.13065699  0.11870843  0.02030379  1  0.612178  0  0.347218  0.427435  0  0.866599  0
C  C16  1  0.62912219  0.38782028  0.59934211  1  1.692625  0  0.274779  0.699041  0  4.18179  0
C  C17  1  0.12909495  0.61217842  0.40065176  1  1.692278  0  0.274675  0.698957  0  4.18188  0
C  C18  1  0.62477137  0.39409755  0.38225368  1  1.585821  0  0.277366  0.657502  0  4.075933  0
C  C19  1  0.12475698  0.60590187  0.61774800  1  1.585924  0  0.277301  0.657451  0  4.076092  0
C  C20  1  0.98565605  0.74441081  0.69935462  1  -0.00084  0  -0.011532  -0.010897  0  3.898783  0
C  C21  1  0.48566278  0.25558758  0.30064849  1  -0.001235  0  -0.01147  -0.010771  0  3.89866  0
C  C22  1  0.12180797  0.67268612  0.68960098  1  0.036935  0  -0.000207  -0.03471  0  3.9567  0
C  C23  1  0.62181141  0.32731018  0.31040371  1  0.03692  0  -0.0002  -0.034838  0  3.956803  0
C  C24  1  0.26476600  0.66819775  0.75073963  1  0.023456  0  -0.083554  -0.170966  0  3.965659  0
C  C25  1  0.76476527  0.33180407  0.24926177  1  0.023405  0  -0.0836  -0.170949  0  3.965599  0
C  C26  1  0.27239430  0.73312785  0.81671167  1  0.053522  0  0.026623  0.137167  0  4.008232  0
C  C27  1  0.77239012  0.26687182  0.18328915  1  0.0535  0  0.026656  0.137245  0  4.008426  0
C  C28  1  0.13554625  0.80655362  0.82627396  1  -0.011628  0  -0.009759  -0.141091  0  3.931369  0
C  C29  1  0.63555926  0.19344692  0.17372594  1  -0.01161  0  -0.009769  -0.141104  0  3.931276  0
C  C30  1  0.99160635  0.80771606  0.76586500  1  0.01586  0  0.003687  0.092568  0  3.90534  0
C  C31  1  0.49160806  0.19228480  0.23413571  1  0.015857  0  0.003656  0.092526  0  3.905085  0
C  C32  1  0.82190805  0.86478097  0.73648331  1  -0.064432  0  -0.147061  -0.248416  0  3.843688  0
C  C33  1  0.32191065  0.13521979  0.26351822  1  -0.06427  0  -0.147055  -0.248495  0  3.843673  0
C  C34  1  0.82934022  0.79848505  0.65767646  1  0.113993  0  -0.03576  0.061466  0  3.819405  0
C  C35  1  0.32934496  0.20151320  0.34232810  1  0.113721  0  -0.035758  0.061426  0  3.819512  0
C  C36  1  0.13372928  0.83814700  0.17222584  1  0.217878  0  -0.005643  -0.150723  0  3.855046  0
C  C37  1  0.63371260  0.16185827  0.82777345  1  0.217578  0  -0.005605  -0.150521  0  3.855083  0
C  C38  1  0.13342008  0.78534720  0.22548710  1  -0.30113  0  -0.006393  0.033263  0  4.238349  0
C  C39  1  0.63342315  0.21464635  0.77451040  1  -0.301303  0  -0.006332  0.033299  0  4.238506  0
C  C40  1  0.13306771  0.72695796  0.28417365  1  -0.197601  0  -0.007868  0.026905  0  4.238766  0
C  C41  1  0.63305891  0.27303574  0.71581784  1  -0.197163  0  -0.007967  0.026749  0  4.238824  0
C  C42  1  0.13306605  0.67402764  0.33732022  1  0.098241  0  -0.00083  -0.138888  0  3.842813  0
C  C43  1  0.63307550  0.32596292  0.66266646  1  0.097523  0  -0.000829  -0.138904  0  3.843045  0
C  C44  1  0.63693190  0.11977512  0.10725928  1  1.615091  0  0.273393  0.669401  0  4.08459  0
C  C45  1  0.13695641  0.88022343  0.89274123  1  1.615668  0  0.273266  0.669261  0  4.084645  0
C  C46  1  0.63446209  0.10192722  0.89236766  1  1.661098  0  0.272801  0.698913  0  4.182306  0
C  C47  1  0.13451451  0.89807219  0.10763464  1  1.660276  0  0.272865  0.699077  0  4.182095  0
Cl  Cl48  1  0.45743499  0.71811631  0.88721009  1  -0.191669  0  0.006581  -0.063629  0  1.474462  0
Cl  Cl49  1  0.95743210  0.28188075  0.11279115  1  -0.191639  0  0.006588  -0.063637  0  1.474434  0
Cl  Cl50  1  0.59784138  0.74500835  0.62841129  1  -0.250882  0  -0.017539  -0.111952  0  1.498788  0
Cl  Cl51  1  0.09785530  0.25499470  0.37159093  1  -0.250556  0  -0.01754  -0.111931  0  1.498946  0
O  O52  1  0.45678804  0.41552626  0.41365028  1  -1.249055  0  -0.227375  -0.583149  0  2.347789  0
O  O53  1  0.95679215  0.58447672  0.58634854  1  -1.249451  0  -0.22739  -0.583135  0  2.348018  0
O  O54  1  0.79779006  0.41137766  0.57263621  1  -1.224381  0  -0.226149  -0.571702  0  2.279617  0
O  O55  1  0.29778346  0.58862388  0.42736466  1  -1.224092  0  -0.226103  -0.571707  0  2.279515  0
O  O56  1  0.79480712  0.42250543  0.40702335  1  -1.249761  0  -0.22655  -0.576892  0  2.349175  0
O  O57  1  0.29480817  0.57749126  0.59297632  1  -1.249694  0  -0.226502  -0.57692  0  2.349117  0
O  O58  1  0.95661304  0.58876992  0.42349464  1  -1.219631  0  -0.22456  -0.567242  0  2.280206  0
O  O59  1  0.45662229  0.41122787  0.57649938  1  -1.219446  0  -0.224573  -0.567243  0  2.28009  0
O  O60  1  0.62542518  0.55426058  0.50695042  1  -1.428677  0  -0.452306  -0.994257  0  2.208543  0
O  O61  1  0.12543187  0.44574024  0.49305186  1  -1.428745  0  -0.452323  -0.99424  0  2.208548  0
O  O62  1  0.80538251  0.07782695  0.91660747  1  -1.21981  0  -0.226243  -0.575986  0  2.286608  0
O  O63  1  0.30538744  0.92218943  0.08341565  1  -1.219967  0  -0.226263  -0.575836  0  2.286965  0
O  O64  1  0.46585112  0.09130598  0.08324637  1  -1.251533  0  -0.227211  -0.580291  0  2.318993  0
O  O65  1  0.96582922  0.90871581  0.91674283  1  -1.251563  0  -0.227339  -0.580485  0  2.317974  0
O  O66  1  0.46437143  0.08032057  0.91915305  1  -1.224759  0  -0.226553  -0.573455  0  2.279651  0
O  O67  1  0.96439175  0.91966481  0.08082416  1  -1.224261  0  -0.226625  -0.57367  0  2.279082  0
O  O68  1  0.30440790  0.90979886  0.91891001  1  -1.255415  0  -0.229954  -0.594877  0  2.382125  0
O  O69  1  0.80444066  0.09018256  0.08110233  1  -1.254849  0  -0.230203  -0.595279  0  2.3814  0
O  O70  1  0.63403703  0.94540538  0.99833198  1  -1.413316  0  -0.448133  -0.994677  0  2.198925  0
O  O71  1  0.13403487  0.05459460  0.00166912  1  -1.413202  0  -0.448151  -0.994681  0  2.198793  0
