# generated using pymatgen
data_ThH8C12(N2O5)2
_symmetry_space_group_name_H-M   'P 1'
_cell_length_a   6.89738809
_cell_length_b   8.40910889
_cell_length_c   14.48763483
_cell_angle_alpha   79.08490796
_cell_angle_beta   76.23128873
_cell_angle_gamma   65.82281760
_symmetry_Int_Tables_number   1
_chemical_formula_structural   ThH8C12(N2O5)2
_chemical_formula_sum   'Th2 H16 C24 N8 O20'
_cell_volume   740.54581913
_cell_formula_units_Z   2
loop_
 _symmetry_equiv_pos_site_id
 _symmetry_equiv_pos_as_xyz
  1  'x, y, z'
loop_
 _atom_site_type_symbol
 _atom_site_label
 _atom_site_symmetry_multiplicity
 _atom_site_fract_x
 _atom_site_fract_y
 _atom_site_fract_z
 _atom_site_occupancy
 _atom_site_hle17_bader_spin_density
 _atom_site_hle17_ddec_charge
 _atom_site_hle17_ddec_spin_density
 _atom_site_hle17_ddec_sum_bond_order
 _atom_site_hle17_magmom
 _atom_site_hse06_10hf_bader_spin_density
 _atom_site_hse06_10hf_ddec_charge
 _atom_site_hse06_10hf_ddec_spin_density
 _atom_site_hse06_10hf_ddec_sum_bond_order
 _atom_site_hse06_10hf_magmom
 _atom_site_hse06_bader_spin_density
 _atom_site_hse06_ddec_charge
 _atom_site_hse06_ddec_spin_density
 _atom_site_hse06_ddec_sum_bond_order
 _atom_site_hse06_magmom
 _atom_site_pbe_bader_spin_density
 _atom_site_pbe_cm5_charge
 _atom_site_pbe_ddec_charge
 _atom_site_pbe_ddec_spin_density
 _atom_site_pbe_ddec_sum_bond_order
 _atom_site_pbe_magmom
Th  Th0  1  0.73903796  0.74987917  0.25006212  1  0  2.350936  0  2.698032  0  0  2.175136  0  3.291611  0  0  2.288196  0  3.209665  0  0  1.594561  2.093145  0  3.347682  0
Th  Th1  1  0.26096116  0.25012261  0.74993804  1  0  2.351002  0  2.697862  0  0  2.175216  0  3.291432  0  0  2.28829  0  3.20946  0  0  1.594606  2.093225  0  3.347499  0
H  H2  1  0.74297364  0.52168505  0.90382766  1  0  0.12286  0  0.939122  0  0  0.121501  0  1.009856  0  0  0.127064  0  1.003923  0  0  0.130569  0.117361  0  1.014446  0
H  H3  1  0.16803410  0.97888322  0.59600058  1  0  0.123012  0  0.93954  0  0  0.12204  0  1.00992  0  0  0.12762  0  1.003981  0  0  0.130642  0.117908  0  1.014471  0
H  H4  1  0.25703193  0.47831413  0.09617340  1  0  0.122887  0  0.939099  0  0  0.121506  0  1.009853  0  0  0.127068  0  1.003924  0  0  0.130562  0.117373  0  1.01443  0
H  H5  1  0.83195998  0.02111073  0.40400123  1  0  0.123115  0  0.939485  0  0  0.122092  0  1.009883  0  0  0.127671  0  1.003946  0  0  0.13066  0.117961  0  1.01443  0
H  H6  1  0.39011073  0.36989253  0.47424692  1  0  0.089629  0  0.954989  0  0  0.095615  0  1.019964  0  0  0.097991  0  1.018357  0  0  0.128043  0.09378  0  1.02141  0
H  H7  1  0.23510993  0.12952527  0.02569452  1  0  0.088808  0  0.955925  0  0  0.094939  0  1.021025  0  0  0.097405  0  1.019316  0  0  0.128149  0.093053  0  1.022516  0
H  H8  1  0.60988384  0.63010525  0.52575103  1  0  0.089641  0  0.955004  0  0  0.095606  0  1.019994  0  0  0.097983  0  1.018388  0  0  0.128019  0.093768  0  1.021439  0
H  H9  1  0.76490357  0.87047658  0.97430765  1  0  0.088883  0  0.955944  0  0  0.09498  0  1.021043  0  0  0.097449  0  1.019325  0  0  0.128182  0.093101  0  1.022514  0
H  H10  1  0.47340440  0.16877124  0.24791092  1  0  0.4436  0  0.846001  0  0  0.41409  0  0.905831  0  0  0.425176  0  0.889845  0  0  0.30472  0.406213  0  0.917169  0
H  H11  1  0.88997155  0.33099077  0.25218480  1  0  0.443176  0  0.846373  0  0  0.413609  0  0.906193  0  0  0.424703  0  0.890225  0  0  0.304599  0.405712  0  0.917551  0
H  H12  1  0.52659667  0.83122790  0.75208873  1  0  0.443596  0  0.846  0  0  0.414085  0  0.905833  0  0  0.425171  0  0.889846  0  0  0.304724  0.406206  0  0.917173  0
H  H13  1  0.11002540  0.66901107  0.74781743  1  0  0.443221  0  0.846327  0  0  0.413672  0  0.906122  0  0  0.424768  0  0.890151  0  0  0.304619  0.405774  0  0.917481  0
H  H14  1  0.33442284  0.08672257  0.21362620  1  0  0.443295  0  0.853086  0  0  0.412171  0  0.91655  0  0  0.423437  0  0.900272  0  0  0.303647  0.404167  0  0.928082  0
H  H15  1  0.63468716  0.41282441  0.28640484  1  0  0.443155  0  0.853027  0  0  0.412055  0  0.916435  0  0  0.423296  0  0.900187  0  0  0.30384  0.404064  0  0.927947  0
H  H16  1  0.66557525  0.91327402  0.78637618  1  0  0.44327  0  0.853112  0  0  0.412149  0  0.916573  0  0  0.423414  0  0.900295  0  0  0.303661  0.404142  0  0.928108  0
H  H17  1  0.36530818  0.58717731  0.71359323  1  0  0.443194  0  0.852966  0  0  0.412095  0  0.916375  0  0  0.423336  0  0.900125  0  0  0.303867  0.404104  0  0.927886  0
C  C18  1  0.78949193  0.58257090  0.03385433  1  0  0.053696  0  3.713586  0  0  0.056468  0  3.964085  0  0  0.05613  0  3.979837  0  0  0.126557  0.056355  0  3.953886  0
C  C19  1  0.40589589  0.91726189  0.46617243  1  0  0.055207  0  3.713215  0  0  0.058039  0  3.963321  0  0  0.057771  0  3.979062  0  0  0.126612  0.057873  0  3.953167  0
C  C20  1  0.21051445  0.41743089  0.96614606  1  0  0.053646  0  3.713665  0  0  0.056441  0  3.964168  0  0  0.056101  0  3.979922  0  0  0.126594  0.056332  0  3.953968  0
C  C21  1  0.59409958  0.08273469  0.53382959  1  0  0.055433  0  3.71302  0  0  0.058134  0  3.963274  0  0  0.057865  0  3.979016  0  0  0.126648  0.057979  0  3.9531  0
C  C22  1  0.55374793  0.68932178  0.06843712  1  0  0.628148  0  3.914509  0  0  0.579304  0  4.220626  0  0  0.613672  0  4.211512  0  0  0.220769  0.555807  0  4.226169  0
C  C23  1  0.31141936  0.81042642  0.43159518  1  0  0.626528  0  3.917527  0  0  0.578342  0  4.222595  0  0  0.612708  0  4.213497  0  0  0.220343  0.554854  0  4.228127  0
C  C24  1  0.44625706  0.31067738  0.93156308  1  0  0.628177  0  3.914424  0  0  0.579275  0  4.220636  0  0  0.613643  0  4.21152  0  0  0.22074  0.555776  0  4.226183  0
C  C25  1  0.68857506  0.18957140  0.56840433  1  0  0.626552  0  3.91735  0  0  0.578316  0  4.22255  0  0  0.612682  0  4.213451  0  0  0.220342  0.554825  0  4.228083  0
C  C26  1  0.85830498  0.51194848  0.94638062  1  0  0.122095  0  3.601795  0  0  0.083691  0  3.866643  0  0  0.089748  0  3.878132  0  0  0.075548  0.079384  0  3.85946  0
C  C27  1  0.31638876  0.98835409  0.55351933  1  0  0.122107  0  3.601547  0  0  0.083215  0  3.866387  0  0  0.089223  0  3.877919  0  0  0.076044  0.078927  0  3.859205  0
C  C28  1  0.14169917  0.48804940  0.05362103  1  0  0.122063  0  3.601803  0  0  0.083683  0  3.866634  0  0  0.08974  0  3.878123  0  0  0.075534  0.079374  0  3.859453  0
C  C29  1  0.68360540  0.01164249  0.44648250  1  0  0.121751  0  3.601863  0  0  0.082998  0  3.866638  0  0  0.089005  0  3.878171  0  0  0.075935  0.078708  0  3.859454  0
C  C30  1  0.21469368  0.42578021  0.48773431  1  0  0.128444  0  3.634112  0  0  0.089716  0  3.895089  0  0  0.095444  0  3.908911  0  0  0.080222  0.085566  0  3.88638  0
C  C31  1  0.12873313  0.07385615  0.01223134  1  0  0.130882  0  3.631163  0  0  0.09108  0  3.893174  0  0  0.096721  0  3.906962  0  0  0.080622  0.086959  0  3.884511  0
C  C32  1  0.78529816  0.57421627  0.51226405  1  0  0.12839  0  3.634273  0  0  0.08973  0  3.89519  0  0  0.095453  0  3.90902  0  0  0.080261  0.085593  0  3.886463  0
C  C33  1  0.87127700  0.92614704  0.98777193  1  0  0.130999  0  3.631246  0  0  0.091277  0  3.893161  0  0  0.096923  0  3.906953  0  0  0.080699  0.087159  0  3.884499  0
C  C34  1  0.10719650  0.49335486  0.41018565  1  0  0.077555  0  3.694209  0  0  0.080726  0  3.94594  0  0  0.081315  0  3.958793  0  0  0.139267  0.079754  0  3.938055  0
C  C35  1  0.01119811  0.00628256  0.08980685  1  0  0.075183  0  3.694638  0  0  0.079169  0  3.946566  0  0  0.079845  0  3.959281  0  0  0.138579  0.078172  0  3.938707  0
C  C36  1  0.89279541  0.50664424  0.58981272  1  0  0.077484  0  3.694377  0  0  0.080613  0  3.946112  0  0  0.081203  0  3.95897  0  0  0.139211  0.079635  0  3.938227  0
C  C37  1  0.98881405  0.99372061  0.91019593  1  0  0.074931  0  3.694663  0  0  0.078924  0  3.946541  0  0  0.079593  0  3.959271  0  0  0.138516  0.077928  0  3.938681  0
C  C38  1  0.22725330  0.47366952  0.30934147  1  0  0.679353  0  3.855325  0  0  0.62094  0  4.159295  0  0  0.657812  0  4.146578  0  0  0.24583  0.595757  0  4.167479  0
C  C39  1  0.01073835  0.02604279  0.19065744  1  0  0.682078  0  3.847755  0  0  0.622974  0  4.153041  0  0  0.659833  0  4.140281  0  0  0.24722  0.597805  0  4.161222  0
C  C40  1  0.77274658  0.52633090  0.69065723  1  0  0.67938  0  3.855397  0  0  0.620993  0  4.159328  0  0  0.657863  0  4.146613  0  0  0.245853  0.595817  0  4.167505  0
C  C41  1  0.98927495  0.97395513  0.80934549  1  0  0.682034  0  3.84771  0  0  0.622922  0  4.15302  0  0  0.659776  0  4.140272  0  0  0.247183  0.597751  0  4.161202  0
N  N42  1  0.93119313  0.57061534  0.08714773  1  0  -0.32304  0  3.2411  0  0  -0.278515  0  3.50282  0  0  -0.293661  0  3.524003  0  0  -0.313956  -0.267793  0  3.488243  0
N  N43  1  0.58915131  0.92899082  0.41297365  1  0  -0.323939  0  3.24227  0  0  -0.279449  0  3.504005  0  0  -0.294623  0  3.525235  0  0  -0.314412  -0.268714  0  3.489427  0
N  N44  1  0.06881172  0.42938386  0.91285402  1  0  -0.323004  0  3.241132  0  0  -0.278477  0  3.502843  0  0  -0.293623  0  3.524026  0  0  -0.313961  -0.267756  0  3.488265  0
N  N45  1  0.41084347  0.07100444  0.58702827  1  0  -0.324199  0  3.241932  0  0  -0.279663  0  3.503772  0  0  -0.294838  0  3.525001  0  0  -0.314519  -0.26893  0  3.489189  0
N  N46  1  0.89112702  0.57103538  0.42221938  1  0  -0.29812  0  3.180371  0  0  -0.257704  0  3.441655  0  0  -0.271409  0  3.460268  0  0  -0.297105  -0.248036  0  3.429009  0
N  N47  1  0.88431666  0.92895831  0.07780204  1  0  -0.298185  0  3.179918  0  0  -0.257309  0  3.440846  0  0  -0.271044  0  3.459488  0  0  -0.296989  -0.247647  0  3.428205  0
N  N48  1  0.10886347  0.42896242  0.57777958  1  0  -0.298096  0  3.180306  0  0  -0.257646  0  3.4416  0  0  -0.271353  0  3.460212  0  0  -0.29704  -0.247975  0  3.428962  0
N  N49  1  0.11569478  0.07104488  0.92220142  1  0  -0.297967  0  3.179886  0  0  -0.25706  0  3.440792  0  0  -0.270793  0  3.459436  0  0  -0.2969  -0.247397  0  3.428148  0
O  O50  1  0.51913940  0.76531127  0.14463001  1  0  -0.678383  0  2.040035  0  0  -0.629663  0  2.305479  0  0  -0.663965  0  2.29624  0  0  -0.398478  -0.605109  0  2.31067  0
O  O51  1  0.42907752  0.73426835  0.35547862  1  0  -0.677306  0  2.038798  0  0  -0.628704  0  2.303431  0  0  -0.662951  0  2.294174  0  0  -0.39802  -0.604194  0  2.308634  0
O  O52  1  0.48086064  0.23469441  0.85536871  1  0  -0.678327  0  2.039926  0  0  -0.629631  0  2.305453  0  0  -0.663932  0  2.296208  0  0  -0.39848  -0.605077  0  2.310645  0
O  O53  1  0.57091148  0.26573727  0.64451777  1  0  -0.677423  0  2.038792  0  0  -0.628765  0  2.303416  0  0  -0.663013  0  2.294157  0  0  -0.398087  -0.604256  0  2.308621  0
O  O54  1  0.41644074  0.70430191  0.02248694  1  0  -0.531608  0  1.915742  0  0  -0.499416  0  2.137926  0  0  -0.521974  0  2.132707  0  0  -0.288331  -0.483387  0  2.14113  0
O  O55  1  0.14294927  0.79563542  0.47746413  1  0  -0.530939  0  1.917755  0  0  -0.499287  0  2.140214  0  0  -0.52183  0  2.134966  0  0  -0.288024  -0.483264  0  2.143403  0
O  O56  1  0.58356531  0.29570111  0.97751026  1  0  -0.531604  0  1.91571  0  0  -0.499383  0  2.137918  0  0  -0.521941  0  2.132698  0  0  -0.288295  -0.483354  0  2.141124  0
O  O57  1  0.85704071  0.20435969  0.52253239  1  0  -0.530934  0  1.917711  0  0  -0.499214  0  2.140155  0  0  -0.52176  0  2.134914  0  0  -0.287993  -0.483195  0  2.14335  0
O  O58  1  0.41973484  0.36327281  0.29581831  1  0  -0.616625  0  1.978666  0  0  -0.559956  0  2.196958  0  0  -0.583319  0  2.18279  0  0  -0.297894  -0.543641  0  2.206407  0
O  O59  1  0.07941690  0.13642110  0.20419981  1  0  -0.616594  0  1.974764  0  0  -0.560134  0  2.193822  0  0  -0.583486  0  2.179667  0  0  -0.298253  -0.54382  0  2.203274  0
O  O60  1  0.58026167  0.63672896  0.70418149  1  0  -0.616648  0  1.978646  0  0  -0.559979  0  2.196911  0  0  -0.583341  0  2.182746  0  0  -0.297903  -0.543666  0  2.206355  0
O  O61  1  0.92059005  0.86357561  0.79580696  1  0  -0.616501  0  1.974783  0  0  -0.560059  0  2.193868  0  0  -0.58341  0  2.179718  0  0  -0.298225  -0.543743  0  2.203317  0
O  O62  1  0.11956680  0.56425449  0.24411424  1  0  -0.637728  0  2.075986  0  0  -0.585007  0  2.333821  0  0  -0.618729  0  2.325681  0  0  -0.345425  -0.561039  0  2.338409  0
O  O63  1  0.92791765  0.93569345  0.25590027  1  0  -0.639534  0  2.073671  0  0  -0.586203  0  2.331285  0  0  -0.620018  0  2.323295  0  0  -0.346541  -0.562204  0  2.335818  0
O  O64  1  0.88042935  0.43574984  0.75588315  1  0  -0.637728  0  2.076018  0  0  -0.585015  0  2.333819  0  0  -0.618746  0  2.325702  0  0  -0.345453  -0.561037  0  2.338369  0
O  O65  1  0.07208667  0.06430306  0.74409904  1  0  -0.639523  0  2.073669  0  0  -0.586213  0  2.331312  0  0  -0.620027  0  2.323324  0  0  -0.346545  -0.562215  0  2.335845  0
O  O66  1  0.48177392  0.06231111  0.22447101  1  0  -0.879302  0  1.902956  0  0  -0.832268  0  2.097893  0  0  -0.859558  0  2.067796  0  0  -0.611648  -0.812443  0  2.118522  0
O  O67  1  0.76841027  0.43734150  0.27563388  1  0  -0.878371  0  1.903041  0  0  -0.831208  0  2.098293  0  0  -0.858541  0  2.06827  0  0  -0.611309  -0.811346  0  2.118895  0
O  O68  1  0.51822714  0.93768804  0.77552864  1  0  -0.879287  0  1.902968  0  0  -0.832247  0  2.097897  0  0  -0.859538  0  2.067799  0  0  -0.611662  -0.812424  0  2.118529  0
O  O69  1  0.23158435  0.56266024  0.72436487  1  0  -0.878485  0  1.902998  0  0  -0.831349  0  2.098225  0  0  -0.858683  0  2.068199  0  0  -0.611357  -0.811487  0  2.118829  0
