# generated using pymatgen
data_ZnH12C26S2N2O15
_symmetry_space_group_name_H-M   'P 1'
_cell_length_a   14.66195754
_cell_length_b   15.93288979
_cell_length_c   23.61279244
_cell_angle_alpha   91.68670077
_cell_angle_beta   91.52053824
_cell_angle_gamma   88.24705976
_symmetry_Int_Tables_number   1
_chemical_formula_structural   ZnH12C26S2N2O15
_chemical_formula_sum   'Zn2 H24 C52 S4 N4 O30'
_cell_volume   5509.33723237
_cell_formula_units_Z   2
loop_
 _symmetry_equiv_pos_site_id
 _symmetry_equiv_pos_as_xyz
  1  'x, y, z'
loop_
 _atom_site_type_symbol
 _atom_site_label
 _atom_site_symmetry_multiplicity
 _atom_site_fract_x
 _atom_site_fract_y
 _atom_site_fract_z
 _atom_site_occupancy
 _atom_site_pbe_bader_charge
 _atom_site_pbe_bader_spin_density
 _atom_site_pbe_cm5_charge
 _atom_site_pbe_ddec_charge
 _atom_site_pbe_ddec_spin_density
 _atom_site_pbe_ddec_sum_bond_order
 _atom_site_pbe_magmom
Zn  Zn0  1  0.59515092  0.50456852  0.50960584  1  1.307484  0  0.69926  0.892283  0  2.404326  0
Zn  Zn1  1  0.40289509  0.50855886  0.49624523  1  1.326198  0  0.697522  0.895989  0  2.423279  0
H  H2  1  0.68407829  0.42901694  0.05341095  1  0.143347  0  0.119752  0.124256  0  0.975867  0
H  H3  1  0.26352021  0.61584578  0.94675158  1  0.120678  0  0.11931  0.123608  0  0.974871  0
H  H4  1  0.94653574  0.35555488  0.47547554  1  0.119236  0  0.124674  0.133172  0  0.960754  0
H  H5  1  0.05126511  0.64122626  0.52014419  1  0.10899  0  0.125453  0.134065  0  0.95954  0
H  H6  1  0.92861157  0.59684731  0.42968844  1  0.136763  0  0.127684  0.141665  0  0.954817  0
H  H7  1  0.06874498  0.39963874  0.56585629  1  0.119296  0  0.12894  0.139865  0  0.954027  0
H  H8  1  0.67785504  0.42181339  0.94596968  1  0.128777  0  0.120608  0.125303  0  0.975948  0
H  H9  1  0.27024766  0.62415176  0.05381781  1  0.127341  0  0.12002  0.124349  0  0.974337  0
H  H10  1  0.50420348  0.62478053  0.67927065  1  0.09299  0  0.118899  0.137996  0  0.973664  0
H  H11  1  0.40030898  0.44684927  0.32345369  1  0.088998  0  0.118556  0.136989  0  0.980784  0
H  H12  1  0.57558493  0.93286165  0.42274214  1  0.116898  0  0.114632  0.123836  0  0.968168  0
H  H13  1  0.41838549  0.07875093  0.58010053  1  0.097654  0  0.112955  0.122568  0  0.972444  0
H  H14  1  0.33804820  0.95969016  0.50334046  1  0.067121  0  0.106191  0.11019  0  0.984492  0
H  H15  1  0.65564696  0.05152607  0.49968265  1  0.082752  0  0.106395  0.109685  0  0.98522  0
H  H16  1  0.01114581  0.44870042  0.36427746  1  0.629831  0  0.353019  0.386469  0  0.851798  0
H  H17  1  0.98537071  0.55170671  0.63112065  1  0.609378  0  0.354543  0.387657  0  0.849915  0
H  H18  1  0.51116723  0.69002308  0.76786659  1  0.612329  0  0.353709  0.379023  0  0.851056  0
H  H19  1  0.34867817  0.39729696  0.23578611  1  0.61767  0  0.353368  0.378615  0  0.849806  0
H  H20  1  0.56006653  0.35021624  0.58661465  1  0.678254  0  0.311046  0.384191  0  0.941238  0
H  H21  1  0.66363785  0.51898873  0.38794120  1  0.657733  0  0.298782  0.365838  0  0.987188  0
H  H22  1  0.50830922  0.25666031  0.77110593  1  0.666349  0  0.320686  0.396358  0  0.923813  0
H  H23  1  0.72865747  0.65668252  0.22978769  1  0.650954  0  0.320131  0.395509  0  0.92739  0
H  H24  1  0.39743629  0.00299060  0.37822672  1  0.624883  0  0.33783  0.369167  0  0.877552  0
H  H25  1  0.59880981  0.00816783  0.62385457  1  0.601481  0  0.336755  0.36841  0  0.877643  0
C  C26  1  0.49459854  0.34499578  0.49171353  1  1.644547  0  0.223564  0.674706  0  4.217349  0
C  C27  1  0.49617709  0.66567981  0.51032815  1  1.612369  0  0.220777  0.676089  0  4.228686  0
C  C28  1  0.48315820  0.57338289  0.76144970  1  0.493331  0  0.101528  0.275555  0  4.075639  0
C  C29  1  0.43785166  0.48283955  0.23991987  1  0.54011  0  0.101639  0.274599  0  4.067911  0
C  C30  1  0.48980923  0.56895332  0.70283151  1  0.00249  0  -0.091566  -0.22953  0  3.953799  0
C  C31  1  0.44532254  0.48402164  0.29876435  1  0.025686  0  -0.089747  -0.222287  0  3.957013  0
C  C32  1  0.48319897  0.49205679  0.67367095  1  0.095345  0  0.003054  0.029591  0  3.953395  0
C  C33  1  0.51281717  0.53001008  0.32722043  1  -0.030247  0  -0.001256  0.00275  0  3.933208  0
C  C34  1  0.46761706  0.41807737  0.70239953  1  -0.103835  0  -0.013848  -0.136123  0  3.87495  0
C  C35  1  0.57057751  0.58050306  0.29663175  1  -0.078558  0  -0.014579  -0.136397  0  3.892221  0
C  C36  1  0.45134501  0.42400329  0.76121579  1  -0.093296  0  0.002631  -0.130483  0  3.87841  0
C  C37  1  0.55315982  0.58948788  0.23791330  1  -0.078565  0  0.002103  -0.132236  0  3.871116  0
C  C38  1  0.46252954  0.50093141  0.79057881  1  0.484947  0  0.09499  0.089546  0  3.970896  0
C  C39  1  0.49062324  0.53718786  0.20944144  1  0.479324  0  0.099192  0.098944  0  3.964841  0
C  C40  1  0.54114768  0.96617981  0.45762753  1  -0.068205  0  -0.073161  -0.150434  0  3.628999  0
C  C41  1  0.45254307  0.04498150  0.54530486  1  -0.063062  0  -0.071197  -0.146811  0  3.623172  0
C  C42  1  0.45359333  0.02494961  0.45200442  1  0.602901  0  0.091216  0.289278  0  3.742869  0
C  C43  1  0.54006513  0.98618334  0.55085641  1  0.616114  0  0.091213  0.288771  0  3.740448  0
C  C44  1  0.49589729  0.25534182  0.48873730  1  0.165286  0  -0.058503  -0.224718  0  4.000833  0
C  C45  1  0.49599890  0.75577301  0.51340891  1  0.158567  0  -0.053078  -0.199197  0  3.98861  0
C  C46  1  0.58543453  0.03046815  0.50042107  1  -0.051745  0  -0.078614  -0.157784  0  3.646169  0
C  C47  1  0.40827504  0.98069454  0.50252583  1  -0.035362  0  -0.079947  -0.159833  0  3.644547  0
C  C48  1  0.49244172  0.49595704  0.61048399  1  1.58565  0  0.211696  0.579851  0  4.216891  0
C  C49  1  0.51144944  0.52123155  0.39093910  1  1.604677  0  0.232836  0.603751  0  4.120896  0
C  C50  1  0.49817035  0.09095359  0.49492257  1  0.088458  0  0.003368  0.066477  0  3.814198  0
C  C51  1  0.49546485  0.92022480  0.50773349  1  0.129363  0  0.004471  0.07417  0  3.813119  0
C  C52  1  0.49726300  0.17893915  0.49049905  1  -0.444603  0  -0.012649  0.01628  0  4.04781  0
C  C53  1  0.49581243  0.83211709  0.51239003  1  -0.416926  0  -0.025716  -0.016186  0  4.07394  0
C  C54  1  0.97071652  0.41857312  0.48548625  1  -0.03911  0  -0.06159  -0.139514  0  3.606992  0
C  C55  1  0.02691070  0.57826151  0.51017713  1  -0.026773  0  -0.06001  -0.138685  0  3.603995  0
C  C56  1  0.02431062  0.47523833  0.44471033  1  0.652234  0  0.104736  0.3019  0  3.751804  0
C  C57  1  0.97336358  0.52166065  0.55098982  1  0.658543  0  0.105904  0.301476  0  3.757524  0
C  C58  1  0.03692421  0.44307159  0.53576653  1  -0.045174  0  -0.060484  -0.141338  0  3.607493  0
C  C59  1  0.96069634  0.55370900  0.45989170  1  -0.056948  0  -0.059113  -0.137876  0  3.602135  0
C  C60  1  0.09156231  0.49981624  0.49561799  1  0.136197  0  0.016568  0.000781  0  3.789579  0
C  C61  1  0.90611207  0.49697178  0.50008886  1  0.094448  0  0.016712  -0.00201  0  3.790615  0
C  C62  1  0.18740177  0.50197202  0.49263566  1  0.803186  0  0.24832  0.323981  0  3.911686  0
C  C63  1  0.81039912  0.49588409  0.50413434  1  0.91  0  0.251494  0.334537  0  3.902254  0
C  C64  1  0.40391672  0.56718612  0.12259740  1  1.346503  0  0.24981  0.461091  0  4.073649  0
C  C65  1  0.54409860  0.47649439  0.87812705  1  1.342463  0  0.247205  0.449206  0  4.081087  0
C  C66  1  0.55860442  0.49353186  0.12167688  1  1.345582  0  0.247712  0.452291  0  4.079916  0
C  C67  1  0.38835428  0.54778149  0.87763003  1  1.352376  0  0.250656  0.46315  0  4.069458  0
C  C68  1  0.55292089  0.49013329  0.05920863  1  -0.036869  0  0.001559  -0.049555  0  3.970786  0
C  C69  1  0.39387391  0.55315612  0.94041398  1  0.067009  0  0.004407  -0.04749  0  3.949676  0
C  C70  1  0.47509018  0.52389861  0.03021674  1  0.049495  0  0.011645  0.039039  0  3.977257  0
C  C71  1  0.47151821  0.51963643  0.96985097  1  -0.112956  0  0.010957  0.038152  0  3.977407  0
C  C72  1  0.40105164  0.56179508  0.05983997  1  0.082279  0  0.003737  -0.047017  0  3.952983  0
C  C73  1  0.54607149  0.48213888  0.94062718  1  0.063112  0  0.002845  -0.047495  0  3.97018  0
C  C74  1  0.62525540  0.45389788  0.02947951  1  -0.07169  0  -0.056934  -0.062846  0  3.926215  0
C  C75  1  0.32237513  0.59043503  0.97044700  1  -0.123341  0  -0.056878  -0.063446  0  3.918991  0
C  C76  1  0.62189592  0.45000434  0.97011468  1  0.008381  0  -0.057816  -0.065191  0  3.929275  0
C  C77  1  0.32599001  0.59486403  0.02999128  1  -0.001908  0  -0.057547  -0.06492  0  3.919811  0
S  S78  1  0.48349902  0.31909433  0.66317715  1  3.10317  0  0.549533  1.184681  0  5.952345  0
S  S79  1  0.66594672  0.62636528  0.33541982  1  3.120464  0  0.538127  1.172452  0  6.011144  0
S  S80  1  0.40231684  0.33747784  0.79762093  1  3.157588  0  0.537008  1.157426  0  6.039828  0
S  S81  1  0.59474052  0.67952781  0.20100440  1  3.15711  0  0.537623  1.156988  0  6.03152  0
N  N82  1  0.48301201  0.53191414  0.14908728  1  -1.195294  0  -0.235994  -0.217483  0  3.628675  0
N  N83  1  0.46380417  0.50809832  0.85105357  1  -1.194083  0  -0.23537  -0.215061  0  3.6336  0
N  N84  1  0.26619875  0.50492989  0.49036857  1  -1.128927  0  -0.283439  -0.303045  0  3.142734  0
N  N85  1  0.73174034  0.49463141  0.50825328  1  -1.187401  0  -0.288836  -0.310271  0  3.140599  0
O  O86  1  0.56350422  0.37913441  0.51829917  1  -1.165748  0  -0.314536  -0.580862  0  2.308533  0
O  O87  1  0.41979918  0.63094057  0.51679541  1  -1.140647  0  -0.321409  -0.555054  0  2.262322  0
O  O88  1  0.42764261  0.38560110  0.46993824  1  -1.130648  0  -0.30152  -0.520245  0  2.249282  0
O  O89  1  0.57252576  0.62813873  0.50074641  1  -1.133821  0  -0.310647  -0.535609  0  2.300279  0
O  O90  1  0.56883241  0.51936920  0.59361780  1  -1.147558  0  -0.313998  -0.530439  0  2.299429  0
O  O91  1  0.43540763  0.53591722  0.41276413  1  -1.140939  0  -0.286024  -0.497903  0  2.296086  0
O  O92  1  0.42224151  0.47846526  0.58036130  1  -1.144334  0  -0.309471  -0.542467  0  2.325716  0
O  O93  1  0.58398018  0.49467907  0.41793870  1  -1.157526  0  -0.302735  -0.546844  0  2.362729  0
O  O94  1  0.34308292  0.59985299  0.15118495  1  -1.099258  0  -0.275942  -0.435521  0  2.058567  0
O  O95  1  0.60738106  0.44650606  0.85024509  1  -1.093679  0  -0.276177  -0.434557  0  2.065608  0
O  O96  1  0.62395019  0.46497384  0.14934395  1  -1.094068  0  -0.27838  -0.438629  0  2.069587  0
O  O97  1  0.32334370  0.57509732  0.84922682  1  -1.095643  0  -0.278877  -0.439014  0  2.053177  0
O  O98  1  0.05982060  0.45312737  0.39311210  1  -1.138447  0  -0.35991  -0.479983  0  2.222941  0
O  O99  1  0.93720157  0.54375259  0.60232542  1  -1.116726  0  -0.356223  -0.475557  0  2.228216  0
O  O100  1  0.49727055  0.64477226  0.79283487  1  -1.104914  0  -0.331366  -0.416746  0  2.270597  0
O  O101  1  0.38114464  0.43146452  0.20985695  1  -1.115862  0  -0.331581  -0.416032  0  2.269334  0
O  O102  1  0.51745317  0.25620003  0.70239080  1  -1.311987  0  -0.315844  -0.552881  0  2.201926  0
O  O103  1  0.40711346  0.30093869  0.62614625  1  -1.275007  0  -0.307172  -0.51457  0  2.125567  0
O  O104  1  0.57073468  0.33735385  0.62806577  1  -1.26326  0  -0.356622  -0.529576  0  2.229446  0
O  O105  1  0.73502548  0.65450171  0.29803953  1  -1.314078  0  -0.315841  -0.54869  0  2.21432  0
O  O106  1  0.63065918  0.68345655  0.37814318  1  -1.277774  0  -0.305394  -0.50896  0  2.126672  0
O  O107  1  0.71205399  0.54601152  0.36237733  1  -1.263558  0  -0.375492  -0.559058  0  2.200896  0
O  O108  1  0.37099151  0.36563907  0.85212424  1  -1.293793  0  -0.307063  -0.511399  0  2.153779  0
O  O109  1  0.33987920  0.30097515  0.75655161  1  -1.285864  0  -0.317316  -0.530896  0  2.125966  0
O  O110  1  0.48658486  0.27586276  0.80967457  1  -1.238212  0  -0.358322  -0.518519  0  2.165277  0
O  O111  1  0.55256123  0.68410809  0.14570055  1  -1.295555  0  -0.304621  -0.510121  0  2.160081  0
O  O112  1  0.58423496  0.74835481  0.24131566  1  -1.285799  0  -0.315356  -0.52617  0  2.115743  0
O  O113  1  0.69870633  0.65734320  0.19079689  1  -1.222854  0  -0.357894  -0.519021  0  2.170702  0
O  O114  1  0.41172862  0.05180436  0.40236018  1  -1.151107  0  -0.379065  -0.497612  0  2.223269  0
O  O115  1  0.58191009  0.95928546  0.60049807  1  -1.129141  0  -0.378887  -0.496371  0  2.220755  0
