# generated using pymatgen
data_CuH8(C3N)5
_symmetry_space_group_name_H-M   'P 1'
_cell_length_a   7.98672924
_cell_length_b   8.81920494
_cell_length_c   17.80571793
_cell_angle_alpha   103.54197888
_cell_angle_beta   90.00036946
_cell_angle_gamma   89.99978604
_symmetry_Int_Tables_number   1
_chemical_formula_structural   CuH8(C3N)5
_chemical_formula_sum   'Cu4 H32 C60 N20'
_cell_volume   1219.30649195
_cell_formula_units_Z   4
loop_
 _symmetry_equiv_pos_site_id
 _symmetry_equiv_pos_as_xyz
  1  'x, y, z'
loop_
 _atom_site_type_symbol
 _atom_site_label
 _atom_site_symmetry_multiplicity
 _atom_site_fract_x
 _atom_site_fract_y
 _atom_site_fract_z
 _atom_site_occupancy
 _atom_site_pbe_bader_spin_density
 _atom_site_pbe_cm5_charge
 _atom_site_pbe_ddec_charge
 _atom_site_pbe_ddec_spin_density
 _atom_site_pbe_ddec_sum_bond_order
 _atom_site_pbe_magmom
Cu  Cu0  1  0.97090485  0.16026444  0.81010455  1  0  0.515655  0.2939  0  2.907132  0
Cu  Cu1  1  0.47090294  0.33973403  0.68990007  1  0  0.51567  0.29389  0  2.907095  0
Cu  Cu2  1  0.02909043  0.83973909  0.18989603  1  0  0.515718  0.293978  0  2.907243  0
Cu  Cu3  1  0.52909359  0.66026950  0.31009995  1  0  0.515725  0.294031  0  2.907143  0
H  H4  1  0.91149550  0.44723484  0.95347903  1  0  0.112224  0.073553  0  1.042388  0
H  H5  1  0.41148893  0.05276026  0.54652447  1  0  0.112217  0.073579  0  1.04238  0
H  H6  1  0.08850854  0.55276521  0.04652340  1  0  0.112215  0.073539  0  1.042423  0
H  H7  1  0.58851386  0.94723978  0.45347571  1  0  0.112212  0.073582  0  1.042374  0
H  H8  1  0.80491866  0.47927869  0.08866369  1  0  0.10991  0.120145  0  1.006718  0
H  H9  1  0.30491874  0.02071716  0.41133736  1  0  0.109933  0.120129  0  1.006757  0
H  H10  1  0.19507912  0.52072019  0.91133804  1  0  0.10993  0.12015  0  1.006717  0
H  H11  1  0.69508655  0.97928403  0.58866239  1  0  0.109924  0.120125  0  1.006755  0
H  H12  1  0.69633681  0.24203053  0.12902140  1  0  0.108943  0.107274  0  1.025585  0
H  H13  1  0.19634160  0.25796439  0.37097867  1  0  0.108956  0.107249  0  1.025589  0
H  H14  1  0.30365847  0.75796601  0.87097838  1  0  0.108959  0.107291  0  1.025532  0
H  H15  1  0.80366369  0.74203564  0.62902207  1  0  0.108959  0.107301  0  1.025547  0
H  H16  1  0.45681980  0.83750962  0.16602790  1  0  0.115559  0.101605  0  1.013709  0
H  H17  1  0.95681703  0.66248638  0.33397068  1  0  0.11555  0.101575  0  1.013777  0
H  H18  1  0.54318800  0.16248809  0.83397314  1  0  0.115544  0.101583  0  1.013712  0
H  H19  1  0.04318075  0.33750782  0.66602884  1  0  0.115551  0.10161  0  1.013756  0
H  H20  1  0.49802300  0.57860435  0.07258935  1  0  0.114463  0.083835  0  1.024616  0
H  H21  1  0.99802679  0.92139271  0.42740723  1  0  0.114467  0.083867  0  1.024586  0
H  H22  1  0.50197854  0.42139451  0.92741014  1  0  0.114465  0.083845  0  1.024611  0
H  H23  1  0.00197850  0.07860380  0.57258974  1  0  0.114454  0.083811  0  1.024624  0
H  H24  1  0.76299206  0.54375980  0.86305699  1  0  0.111407  0.112581  0  1.017093  0
H  H25  1  0.26299267  0.95623494  0.63694200  1  0  0.111428  0.112594  0  1.01708  0
H  H26  1  0.23700948  0.45624022  0.13694151  1  0  0.111402  0.112573  0  1.017085  0
H  H27  1  0.73701011  0.04376508  0.36305650  1  0  0.111423  0.1126  0  1.017089  0
H  H28  1  0.91093407  0.54987378  0.73972661  1  0  0.11049  0.119892  0  1.04396  0
H  H29  1  0.41093273  0.95012297  0.76027471  1  0  0.110515  0.119958  0  1.043893  0
H  H30  1  0.08906496  0.45012974  0.26027228  1  0  0.110495  0.119914  0  1.043972  0
H  H31  1  0.58907130  0.04987705  0.23972434  1  0  0.110526  0.119957  0  1.043914  0
H  H32  1  0.01357357  0.80391460  0.71892913  1  0  0.113033  0.080656  0  1.013965  0
H  H33  1  0.51356740  0.69608188  0.78107327  1  0  0.113013  0.080582  0  1.013973  0
H  H34  1  0.98642295  0.19608892  0.28107033  1  0  0.113024  0.080655  0  1.01401  0
H  H35  1  0.48643038  0.30391815  0.21892635  1  0  0.113009  0.080589  0  1.013982  0
C  C36  1  0.87248739  0.34643852  0.97450956  1  0  0.048122  0.090412  0  3.952109  0
C  C37  1  0.37248512  0.15355666  0.52549271  1  0  0.048177  0.090406  0  3.951971  0
C  C38  1  0.12751164  0.65356152  0.02549174  1  0  0.04816  0.090408  0  3.952022  0
C  C39  1  0.62751641  0.84644338  0.47450859  1  0  0.048114  0.090403  0  3.951967  0
C  C40  1  0.80915438  0.36417090  0.04945891  1  0  -0.08159  -0.121961  0  3.96893  0
C  C41  1  0.30915331  0.13582494  0.45054328  1  0  -0.08167  -0.122049  0  3.968841  0
C  C42  1  0.19084465  0.63582913  0.95054240  1  0  -0.081642  -0.121988  0  3.968886  0
C  C43  1  0.69085073  0.86417393  0.54945789  1  0  -0.081616  -0.122006  0  3.96892  0
C  C44  1  0.74964359  0.23402702  0.07201027  1  0  -0.066441  -0.059306  0  3.915661  0
C  C45  1  0.24964417  0.26596778  0.42799050  1  0  -0.066408  -0.059135  0  3.915499  0
C  C46  1  0.25035419  0.76596952  0.92799063  1  0  -0.066423  -0.059274  0  3.915639  0
C  C47  1  0.75035862  0.73403108  0.57200955  1  0  -0.066415  -0.059201  0  3.915532  0
C  C48  1  0.75693435  0.08806850  0.01931989  1  0  -0.001207  -0.023726  0  3.979241  0
C  C49  1  0.25693510  0.41192629  0.48068035  1  0  -0.001147  -0.023717  0  3.979346  0
C  C50  1  0.24306593  0.91192920  0.98068003  1  0  -0.00116  -0.023676  0  3.979371  0
C  C51  1  0.74306769  0.58807141  0.51932013  1  0  -0.001178  -0.023782  0  3.979286  0
C  C52  1  0.68551926  0.94765450  0.03550894  1  0  0.119437  0.121489  0  4.0082  0
C  C53  1  0.18551873  0.55233978  0.46449035  1  0  0.119388  0.121406  0  4.008324  0
C  C54  1  0.31448352  0.05234202  0.96449028  1  0  0.119427  0.121376  0  4.008426  0
C  C55  1  0.81448155  0.44765676  0.53550999  1  0  0.119403  0.121423  0  4.008305  0
C  C56  1  0.53053922  0.82976888  0.11362180  1  0  0.056805  0.067024  0  3.931562  0
C  C57  1  0.03053709  0.67022573  0.38637539  1  0  0.05682  0.067047  0  3.931484  0
C  C58  1  0.46946481  0.17022764  0.88637685  1  0  0.056861  0.067099  0  3.931449  0
C  C59  1  0.96946320  0.32976964  0.61362482  1  0  0.056828  0.066996  0  3.931515  0
C  C60  1  0.55269089  0.68463514  0.06121723  1  0  0.056868  0.060955  0  3.935737  0
C  C61  1  0.05269142  0.81536177  0.43878142  1  0  0.056889  0.06092  0  3.935711  0
C  C62  1  0.44730940  0.31536373  0.93878226  1  0  0.056855  0.060903  0  3.935774  0
C  C63  1  0.94731136  0.18463592  0.56121681  1  0  0.056866  0.06098  0  3.935796  0
C  C64  1  0.70320070  0.80239389  0.98142182  1  0  0.117879  0.121816  0  3.997804  0
C  C65  1  0.20320191  0.69760214  0.51857658  1  0  0.11791  0.12191  0  3.997671  0
C  C66  1  0.29679707  0.19760497  0.01857710  1  0  0.117903  0.121885  0  3.997768  0
C  C67  1  0.79679587  0.30239789  0.48142360  1  0  0.117886  0.121906  0  3.997734  0
C  C68  1  0.78958224  0.79317270  0.90859672  1  0  -0.000277  -0.022237  0  3.982463  0
C  C69  1  0.28958321  0.70682315  0.59140359  1  0  -0.000284  -0.022293  0  3.982533  0
C  C70  1  0.21041554  0.20682732  0.09140234  1  0  -0.000261  -0.022182  0  3.98257  0
C  C71  1  0.71041457  0.29317688  0.40859659  1  0  -0.000324  -0.022375  0  3.982678  0
C  C72  1  0.81128938  0.65261180  0.85280315  1  0  -0.066331  -0.075138  0  3.940333  0
C  C73  1  0.31128933  0.84738400  0.64719665  1  0  -0.066311  -0.07509  0  3.940311  0
C  C74  1  0.18870965  0.34738706  0.14719521  1  0  -0.066297  -0.075119  0  3.940456  0
C  C75  1  0.68871095  0.15261602  0.35280297  1  0  -0.066299  -0.075071  0  3.940289  0
C  C76  1  0.89324609  0.65568295  0.78453886  1  0  -0.079107  -0.117682  0  3.962103  0
C  C77  1  0.39324453  0.84431385  0.71546297  1  0  -0.079152  -0.117826  0  3.962162  0
C  C78  1  0.10675545  0.34431941  0.21546046  1  0  -0.079118  -0.117723  0  3.962216  0
C  C79  1  0.60675700  0.15568617  0.28453608  1  0  -0.079196  -0.117867  0  3.962143  0
C  C80  1  0.94947398  0.79836343  0.77230140  1  0  0.049812  0.097708  0  3.932577  0
C  C81  1  0.44947068  0.70163208  0.72770045  1  0  0.049914  0.097874  0  3.932606  0
C  C82  1  0.05052379  0.20164009  0.22769806  1  0  0.049791  0.097689  0  3.932616  0
C  C83  1  0.55052835  0.29836912  0.27229930  1  0  0.04989  0.097869  0  3.932547  0
C  C84  1  0.85135180  0.93164457  0.89159865  1  0  0.111957  0.122437  0  3.972395  0
C  C85  1  0.35135233  0.56835114  0.60840126  1  0  0.112016  0.122526  0  3.972303  0
C  C86  1  0.14864472  0.06835661  0.10839998  1  0  0.111928  0.122392  0  3.972523  0
C  C87  1  0.64864670  0.43164772  0.39159878  1  0  0.112021  0.122558  0  3.972375  0
C  C88  1  0.83265791  0.07970650  0.94677436  1  0  0.111219  0.117607  0  3.989304  0
C  C89  1  0.33265872  0.42028992  0.55322682  1  0  0.111234  0.117572  0  3.98933  0
C  C90  1  0.16733861  0.92029353  0.05322526  1  0  0.111239  0.117589  0  3.989466  0
C  C91  1  0.66733906  0.57970895  0.44677379  1  0  0.111227  0.117673  0  3.989281  0
C  C92  1  0.16804263  0.23785152  0.77728174  1  0  -0.075751  -0.15447  0  3.929088  0
C  C93  1  0.66802909  0.26215924  0.72271835  1  0  -0.075854  -0.154397  0  3.928061  0
C  C94  1  0.83196892  0.76215897  0.22271570  1  0  -0.075879  -0.154536  0  3.928188  0
C  C95  1  0.33196118  0.73785711  0.27728201  1  0  -0.075825  -0.154434  0  3.928709  0
N  N96  1  0.88783527  0.20817966  0.92443751  1  0  -0.342465  -0.233681  0  3.586987  0
N  N97  1  0.38783817  0.29181780  0.57556395  1  0  -0.342518  -0.233679  0  3.586985  0
N  N98  1  0.11215875  0.79182270  0.07556237  1  0  -0.34252  -0.233668  0  3.587066  0
N  N99  1  0.61216461  0.70818106  0.42443666  1  0  -0.342473  -0.233787  0  3.586961  0
N  N100  1  0.92861949  0.93444908  0.82384977  1  0  -0.337481  -0.224219  0  3.561025  0
N  N101  1  0.42861724  0.56554647  0.67615203  1  0  -0.337621  -0.224327  0  3.561071  0
N  N102  1  0.07137704  0.06555327  0.17614955  1  0  -0.33743  -0.224167  0  3.56101  0
N  N103  1  0.57138054  0.43445356  0.32384871  1  0  -0.337578  -0.224361  0  3.561037  0
N  N104  1  0.59646699  0.95999977  0.10119462  1  0  -0.296182  -0.265768  0  3.332516  0
N  N105  1  0.09646305  0.53999238  0.39880417  1  0  -0.296235  -0.265815  0  3.332538  0
N  N106  1  0.40354081  0.03999562  0.89880728  1  0  -0.296264  -0.265777  0  3.33262  0
N  N107  1  0.90353348  0.46000299  0.60119548  1  0  -0.296223  -0.265776  0  3.332518  0
N  N108  1  0.63710142  0.67069824  0.99563658  1  0  -0.29568  -0.261726  0  3.330715  0
N  N109  1  0.13710189  0.82929677  0.50436095  1  0  -0.295697  -0.261721  0  3.33064  0
N  N110  1  0.36290136  0.32929828  0.00436152  1  0  -0.295669  -0.261719  0  3.330766  0
N  N111  1  0.86289839  0.17070092  0.49563784  1  0  -0.295646  -0.261695  0  3.33071  0
N  N112  1  0.27986531  0.29067839  0.74829817  1  0  -0.441254  -0.332899  0  3.623002  0
N  N113  1  0.77988120  0.20932171  0.75171227  1  0  -0.441244  -0.33314  0  3.622032  0
N  N114  1  0.72011995  0.70932169  0.25170764  1  0  -0.441225  -0.333004  0  3.622071  0
N  N115  1  0.22012409  0.79068885  0.24829417  1  0  -0.441243  -0.333061  0  3.622626  0
