# generated using pymatgen
data_NaH15C11S2N2O3
_symmetry_space_group_name_H-M   'P 1'
_cell_length_a   5.36959780
_cell_length_b   9.24310118
_cell_length_c   17.70432176
_cell_angle_alpha   122.05742598
_cell_angle_beta   81.01347120
_cell_angle_gamma   93.84891911
_symmetry_Int_Tables_number   1
_chemical_formula_structural   NaH15C11S2N2O3
_chemical_formula_sum   'Na2 H30 C22 S4 N4 O6'
_cell_volume   735.43761863
_cell_formula_units_Z   2
loop_
 _symmetry_equiv_pos_site_id
 _symmetry_equiv_pos_as_xyz
  1  'x, y, z'
loop_
 _atom_site_type_symbol
 _atom_site_label
 _atom_site_symmetry_multiplicity
 _atom_site_fract_x
 _atom_site_fract_y
 _atom_site_fract_z
 _atom_site_occupancy
 _atom_site_hle17_bader_spin_density
 _atom_site_hle17_ddec_charge
 _atom_site_hle17_ddec_spin_density
 _atom_site_hle17_ddec_sum_bond_order
 _atom_site_hle17_magmom
 _atom_site_hse06_10hf_bader_spin_density
 _atom_site_hse06_10hf_ddec_charge
 _atom_site_hse06_10hf_ddec_spin_density
 _atom_site_hse06_10hf_ddec_sum_bond_order
 _atom_site_hse06_10hf_magmom
 _atom_site_hse06_bader_spin_density
 _atom_site_hse06_ddec_charge
 _atom_site_hse06_ddec_spin_density
 _atom_site_hse06_ddec_sum_bond_order
 _atom_site_hse06_magmom
 _atom_site_pbe_bader_spin_density
 _atom_site_pbe_cm5_charge
 _atom_site_pbe_ddec_charge
 _atom_site_pbe_ddec_spin_density
 _atom_site_pbe_ddec_sum_bond_order
 _atom_site_pbe_magmom
Na  Na0  1  0.39366730  0.85248233  0.30810343  1  0  0.887413  0  0.373267  0  0  0.821381  0  0.543781  0  0  0.833438  0  0.523428  0  0  0.644645  0.812716  0  0.558134  0
Na  Na1  1  0.60635246  0.14751333  0.69189225  1  0  0.887432  0  0.37321  0  0  0.821365  0  0.543785  0  0  0.833421  0  0.523432  0  0  0.644618  0.812696  0  0.558142  0
H  H2  1  0.35276000  0.93061373  0.53506058  1  0  0.391582  0  0.896188  0  0  0.363993  0  0.968521  0  0  0.375913  0  0.956077  0  0  0.305716  0.355681  0  0.977027  0
H  H3  1  0.64728603  0.06935880  0.46493486  1  0  0.391638  0  0.896033  0  0  0.364073  0  0.968331  0  0  0.375986  0  0.9559  0  0  0.305833  0.355766  0  0.976828  0
H  H4  1  0.29950172  0.06969729  0.24975342  1  0  0.343621  0  0.925833  0  0  0.329606  0  0.986428  0  0  0.335906  0  0.980358  0  0  0.29383  0.325188  0  0.990695  0
H  H5  1  0.70048406  0.93032116  0.75025416  1  0  0.343614  0  0.925972  0  0  0.329637  0  0.986462  0  0  0.335937  0  0.980392  0  0  0.293917  0.325227  0  0.990711  0
H  H6  1  0.79498308  0.61582760  0.37713556  1  0  0.251442  0  0.951867  0  0  0.229924  0  1.030251  0  0  0.237963  0  1.024468  0  0  0.294526  0.224302  0  1.034297  0
H  H7  1  0.20502808  0.38417079  0.62286287  1  0  0.251449  0  0.951913  0  0  0.229922  0  1.030341  0  0  0.237968  0  1.024542  0  0  0.294559  0.224302  0  1.034392  0
H  H8  1  0.66293648  0.61415626  0.48591430  1  0  0.085899  0  0.958561  0  0  0.101827  0  1.015793  0  0  0.104271  0  1.01385  0  0  0.103861  0.100025  0  1.017229  0
H  H9  1  0.33709285  0.38581544  0.51407496  1  0  0.085926  0  0.958624  0  0  0.101811  0  1.015911  0  0  0.104219  0  1.014001  0  0  0.103898  0.100012  0  1.017347  0
H  H10  1  0.59259415  0.55955085  0.60991158  1  0  0.083753  0  0.994213  0  0  0.088459  0  1.069404  0  0  0.091903  0  1.068091  0  0  0.085432  0.085982  0  1.070508  0
H  H11  1  0.40740300  0.44043385  0.39008319  1  0  0.083609  0  0.994303  0  0  0.088405  0  1.069392  0  0  0.091843  0  1.068088  0  0  0.085424  0.085931  0  1.070491  0
H  H12  1  0.89551292  0.66553091  0.71984307  1  0  0.099068  0  0.951719  0  0  0.109085  0  1.011354  0  0  0.112148  0  1.009061  0  0  0.098476  0.106849  0  1.013027  0
H  H13  1  0.10444429  0.33448543  0.28016745  1  0  0.099024  0  0.951927  0  0  0.109056  0  1.011536  0  0  0.112125  0  1.009239  0  0  0.098454  0.106822  0  1.013212  0
H  H14  1  0.25100260  0.85061420  0.71397710  1  0  0.116351  0  0.967356  0  0  0.124283  0  1.033056  0  0  0.128558  0  1.030708  0  0  0.1059  0.121216  0  1.034891  0
H  H15  1  0.74896422  0.14939868  0.28603172  1  0  0.116365  0  0.96735  0  0  0.124273  0  1.033092  0  0  0.128546  0  1.030746  0  0  0.105859  0.121215  0  1.034909  0
H  H16  1  0.75422132  0.49550360  0.01325084  1  0  0.113907  0  0.972226  0  0  0.132093  0  1.037887  0  0  0.133322  0  1.037947  0  0  0.087609  0.131111  0  1.037979  0
H  H17  1  0.24578600  0.50451158  0.98675401  1  0  0.113761  0  0.972128  0  0  0.131969  0  1.037783  0  0  0.133213  0  1.037828  0  0  0.087538  0.130985  0  1.037876  0
H  H18  1  0.76107119  0.36146133  0.05787671  1  0  0.120746  0  0.966957  0  0  0.142828  0  1.021405  0  0  0.143658  0  1.022326  0  0  0.090534  0.142212  0  1.020791  0
H  H19  1  0.23894917  0.63855024  0.94212114  1  0  0.120726  0  0.966797  0  0  0.142813  0  1.021255  0  0  0.143641  0  1.022179  0  0  0.090531  0.142196  0  1.020637  0
H  H20  1  0.51245886  0.51649201  0.10153524  1  0  0.111029  0  0.974524  0  0  0.124122  0  1.045738  0  0  0.126082  0  1.045099  0  0  0.088522  0.122699  0  1.046245  0
H  H21  1  0.48755562  0.48350929  0.89846490  1  0  0.110942  0  0.974533  0  0  0.124045  0  1.04575  0  0  0.126003  0  1.045115  0  0  0.088514  0.12262  0  1.04626  0
H  H22  1  0.51383259  0.78497009  0.08385080  1  0  0.043798  0  0.928203  0  0  0.062823  0  0.98807  0  0  0.061962  0  0.989576  0  0  0.097945  0.063309  0  0.987114  0
H  H23  1  0.48614889  0.21505422  0.91615127  1  0  0.043686  0  0.928226  0  0  0.06273  0  0.988083  0  0  0.061867  0  0.989591  0  0  0.09797  0.063222  0  0.987139  0
H  H24  1  0.64508890  0.99015972  0.12185050  1  0  0.027797  0  0.925948  0  0  0.043822  0  0.990164  0  0  0.044171  0  0.989419  0  0  0.089497  0.043465  0  0.990797  0
H  H25  1  0.35486788  0.00987160  0.87815197  1  0  0.027855  0  0.926014  0  0  0.043851  0  0.990242  0  0  0.044202  0  0.989497  0  0  0.089553  0.04349  0  0.990879  0
H  H26  1  0.08830768  0.90537599  0.09588575  1  0  0.102086  0  0.970059  0  0  0.118025  0  1.039996  0  0  0.119542  0  1.039981  0  0  0.084738  0.11688  0  1.040094  0
H  H27  1  0.91164790  0.09463071  0.90412368  1  0  0.102033  0  0.970162  0  0  0.117944  0  1.040147  0  0  0.119464  0  1.040132  0  0  0.084716  0.116796  0  1.040248  0
H  H28  1  0.32267851  0.92611829  0.01897456  1  0  0.107449  0  0.95468  0  0  0.130898  0  1.011245  0  0  0.132098  0  1.011442  0  0  0.091653  0.12997  0  1.011206  0
H  H29  1  0.67725185  0.07388463  0.98102632  1  0  0.107364  0  0.954804  0  0  0.130881  0  1.011278  0  0  0.132089  0  1.011467  0  0  0.091669  0.12995  0  1.011243  0
H  H30  1  0.23082781  0.10651976  0.12801500  1  0  0.105211  0  0.953523  0  0  0.12522  0  1.014298  0  0  0.126411  0  1.014539  0  0  0.087054  0.124337  0  1.014181  0
H  H31  1  0.76910451  0.89348987  0.87198824  1  0  0.10521  0  0.953458  0  0  0.125174  0  1.0143  0  0  0.126377  0  1.014524  0  0  0.087002  0.124278  0  1.014196  0
C  C32  1  0.06954241  0.78282654  0.45025353  1  0  0.519222  0  3.819224  0  0  0.467851  0  4.108333  0  0  0.499424  0  4.10612  0  0  0.232648  0.446863  0  4.109204  0
C  C33  1  0.93047642  0.21714810  0.54974145  1  0  0.519223  0  3.819154  0  0  0.46795  0  4.108181  0  0  0.499528  0  4.105956  0  0  0.232647  0.446964  0  4.109067  0
C  C34  1  0.00125425  0.76038765  0.52728851  1  0  -0.197635  0  3.773904  0  0  -0.179221  0  4.014204  0  0  -0.191667  0  4.036307  0  0  -0.026989  -0.171373  0  3.999557  0
C  C35  1  0.99877879  0.23959637  0.47270822  1  0  -0.197852  0  3.773885  0  0  -0.179441  0  4.014118  0  0  -0.191888  0  4.036211  0  0  -0.027107  -0.171615  0  3.999502  0
C  C36  1  0.79411082  0.66528917  0.53505386  1  0  -0.037978  0  3.756014  0  0  -0.064352  0  4.006945  0  0  -0.059779  0  4.026113  0  0  -0.081604  -0.067061  0  3.993884  0
C  C37  1  0.20592521  0.33469623  0.46493310  1  0  -0.037951  0  3.756433  0  0  -0.064298  0  4.007386  0  0  -0.059689  0  4.026542  0  0  -0.081625  -0.06701  0  3.994344  0
C  C38  1  0.75278079  0.63349305  0.60421337  1  0  -0.104518  0  3.787526  0  0  -0.122077  0  4.048024  0  0  -0.128415  0  4.069228  0  0  -0.108392  -0.118061  0  4.033821  0
C  C39  1  0.24722086  0.36649230  0.39578332  1  0  -0.104435  0  3.788376  0  0  -0.122085  0  4.048906  0  0  -0.128416  0  4.070102  0  0  -0.108453  -0.118067  0  4.034695  0
C  C40  1  0.92058144  0.69679819  0.66781638  1  0  -0.070377  0  3.813576  0  0  -0.08215  0  4.062256  0  0  -0.077793  0  4.078101  0  0  -0.095124  -0.084809  0  4.051498  0
C  C41  1  0.07943413  0.30321734  0.33218741  1  0  -0.070159  0  3.813224  0  0  -0.081936  0  4.061912  0  0  -0.077583  0  4.077748  0  0  -0.094929  -0.084599  0  4.051159  0
C  C42  1  0.12114445  0.79759228  0.66437949  1  0  -0.202518  0  3.735236  0  0  -0.221152  0  3.988592  0  0  -0.228241  0  4.005655  0  0  -0.102884  -0.216654  0  3.977352  0
C  C43  1  0.87883744  0.20240458  0.33562315  1  0  -0.202573  0  3.734829  0  0  -0.221152  0  3.988025  0  0  -0.228249  0  4.005114  0  0  -0.102856  -0.216646  0  3.976779  0
C  C44  1  0.16102547  0.83209127  0.59525267  1  0  0.338826  0  3.781555  0  0  0.325358  0  4.037735  0  0  0.339846  0  4.052338  0  0  0.096019  0.315557  0  4.027815  0
C  C45  1  0.83899881  0.16789423  0.40474660  1  0  0.33863  0  3.781475  0  0  0.325208  0  4.03759  0  0  0.339694  0  4.052198  0  0  0.095937  0.315417  0  4.027662  0
C  C46  1  0.84742075  0.61111212  0.24333873  1  0  0.140039  0  3.946304  0  0  0.136397  0  4.251518  0  0  0.154995  0  4.261899  0  0  0.096338  0.123858  0  4.243884  0
C  C47  1  0.15260869  0.38889242  0.75665974  1  0  0.139794  0  3.946658  0  0  0.136198  0  4.251754  0  0  0.154792  0  4.262147  0  0  0.096234  0.123667  0  4.244104  0
C  C48  1  0.71326300  0.48913418  0.07419149  1  0  -0.334098  0  3.706534  0  0  -0.403696  0  3.953725  0  0  -0.405262  0  3.962397  0  0  -0.237246  -0.402423  0  3.947749  0
C  C49  1  0.28674799  0.51086837  0.92580590  1  0  -0.333819  0  3.706291  0  0  -0.403458  0  3.953563  0  0  -0.405029  0  3.962207  0  0  -0.23713  -0.402182  0  3.947584  0
C  C50  1  0.46987334  0.92251130  0.12483864  1  0  0.20296  0  3.659419  0  0  0.150808  0  3.936921  0  0  0.158394  0  3.943934  0  0  -0.076321  0.145699  0  3.932045  0
C  C51  1  0.53008635  0.07750548  0.87516253  1  0  0.203086  0  3.659457  0  0  0.150935  0  3.936982  0  0  0.158517  0  3.943997  0  0  -0.076365  0.145811  0  3.932138  0
C  C52  1  0.26542391  0.96781045  0.09009548  1  0  -0.350981  0  3.730379  0  0  -0.424093  0  3.972746  0  0  -0.42756  0  3.982429  0  0  -0.251653  -0.421483  0  3.966063  0
C  C53  1  0.73451826  0.03219849  0.90991244  1  0  -0.350871  0  3.730503  0  0  -0.423974  0  3.972841  0  0  -0.427464  0  3.982521  0  0  -0.251624  -0.421339  0  3.966161  0
S  S54  1  0.61960777  0.47754838  0.24761504  1  0  -0.47997  0  1.901022  0  0  -0.45945  0  2.191919  0  0  -0.478617  0  2.189159  0  0  -0.226143  -0.445826  0  2.193303  0
S  S55  1  0.38040794  0.52244511  0.75238317  1  0  -0.479925  0  1.901493  0  0  -0.459365  0  2.192352  0  0  -0.478539  0  2.189594  0  0  -0.22611  -0.445747  0  2.193732  0
S  S56  1  0.90931759  0.64542183  0.15212584  1  0  -0.005449  0  2.438264  0  0  0.011158  0  2.778493  0  0  0.006356  0  2.775889  0  0  0.016171  0.01466  0  2.780083  0
S  S57  1  0.09069311  0.35459072  0.84787858  1  0  -0.005447  0  2.438237  0  0  0.011156  0  2.778452  0  0  0.006356  0  2.775852  0  0  0.016105  0.014642  0  2.780047  0
N  N58  1  0.99257097  0.70955231  0.30578095  1  0  -0.350764  0  3.103013  0  0  -0.333504  0  3.399928  0  0  -0.344965  0  3.412447  0  0  -0.334875  -0.325468  0  3.391224  0
N  N59  1  0.00746729  0.29044520  0.69421284  1  0  -0.350793  0  3.103572  0  0  -0.333519  0  3.400536  0  0  -0.344977  0  3.413044  0  0  -0.334883  -0.325478  0  3.391819  0
N  N60  1  0.93846405  0.69865588  0.38078473  1  0  -0.249102  0  3.506131  0  0  -0.193173  0  3.753212  0  0  -0.211763  0  3.767103  0  0  -0.302881  -0.180882  0  3.743545  0
N  N61  1  0.06157696  0.30134111  0.61921608  1  0  -0.248868  0  3.506309  0  0  -0.19306  0  3.753499  0  0  -0.21165  0  3.76739  0  0  -0.302757  -0.180769  0  3.743834  0
O  O62  1  0.25544236  0.87549091  0.44811625  1  0  -0.617765  0  1.991934  0  0  -0.566246  0  2.229404  0  0  -0.586634  0  2.218868  0  0  -0.362472  -0.552318  0  2.23623  0
O  O63  1  0.74460634  0.12449037  0.55187837  1  0  -0.617656  0  1.992233  0  0  -0.566184  0  2.229699  0  0  -0.586563  0  2.219157  0  0  -0.362416  -0.552261  0  2.236528  0
O  O64  1  0.35608654  0.93095123  0.59335146  1  0  -0.573697  0  2.14925  0  0  -0.521637  0  2.383049  0  0  -0.541684  0  2.37348  0  0  -0.406756  -0.507458  0  2.389206  0
O  O65  1  0.64393264  0.06901772  0.40664373  1  0  -0.573694  0  2.148811  0  0  -0.521663  0  2.382598  0  0  -0.541706  0  2.373036  0  0  -0.406882  -0.507484  0  2.388744  0
O  O66  1  0.39427601  0.96100846  0.21544813  1  0  -0.617285  0  2.087865  0  0  -0.569189  0  2.322656  0  0  -0.583956  0  2.312218  0  0  -0.477755  -0.558759  0  2.329648  0
O  O67  1  0.60570232  0.03900337  0.78455412  1  0  -0.617386  0  2.088097  0  0  -0.569282  0  2.322857  0  0  -0.58406  0  2.312451  0  0  -0.477858  -0.558815  0  2.329771  0
