# generated using pymatgen
data_AlH6C11O5F
_symmetry_space_group_name_H-M   'P 1'
_cell_length_a   6.65746056
_cell_length_b   11.15929068
_cell_length_c   11.23703163
_cell_angle_alpha   79.74520577
_cell_angle_beta   72.71634556
_cell_angle_gamma   72.03144243
_symmetry_Int_Tables_number   1
_chemical_formula_structural   AlH6C11O5F
_chemical_formula_sum   'Al2 H12 C22 O10 F2'
_cell_volume   754.81596589
_cell_formula_units_Z   2
loop_
 _symmetry_equiv_pos_site_id
 _symmetry_equiv_pos_as_xyz
  1  'x, y, z'
loop_
 _atom_site_type_symbol
 _atom_site_label
 _atom_site_symmetry_multiplicity
 _atom_site_fract_x
 _atom_site_fract_y
 _atom_site_fract_z
 _atom_site_occupancy
 _atom_site_pbe_bader_charge
 _atom_site_pbe_bader_spin_density
 _atom_site_pbe_cm5_charge
 _atom_site_pbe_ddec_charge
 _atom_site_pbe_ddec_spin_density
 _atom_site_pbe_ddec_sum_bond_order
 _atom_site_pbe_magmom
Al  Al0  1  0.49233310  0.48522329  0.50728705  1  2.502988  0  0.397225  1.6387  0  2.588293  0
Al  Al1  1  0.99282327  0.48528347  0.50566049  1  2.502459  0  0.397774  1.639032  0  2.584163  0
H  H2  1  0.21298209  0.39725644  0.65151079  1  0.626093  0  0.354668  0.435992  0  0.848822  0
H  H3  1  0.69722397  0.64024638  0.44317189  1  0.615956  0  0.343698  0.417212  0  0.88508  0
H  H4  1  0.01248324  0.70879242  0.10065490  1  0.054186  0  0.096255  0.102354  0  0.991852  0
H  H5  1  0.92702282  0.56864056  0.11706483  1  0.069015  0  0.100042  0.11927  0  0.994026  0
H  H6  1  0.04657615  0.56625477  0.88088124  1  0.05358  0  0.096  0.11125  0  1.002271  0
H  H7  1  0.13011388  0.70642836  0.86757092  1  0.075491  0  0.100269  0.110512  0  0.974818  0
H  H8  1  0.26883920  0.23036148  0.33788268  1  0.079744  0  0.10748  0.115064  0  1.034513  0
H  H9  1  0.63700941  0.11939900  0.22031331  1  0.065982  0  0.100941  0.09929  0  1.002416  0
H  H10  1  0.48177326  0.76268118  0.33265497  1  0.052722  0  0.105504  0.10779  0  1.035991  0
H  H11  1  0.74224840  0.88450604  0.21640995  1  0.054004  0  0.099621  0.092292  0  1.00954  0
H  H12  1  0.73756142  0.86715966  0.58049854  1  0.106508  0  0.11078  0.116152  0  0.985718  0
H  H13  1  0.62391280  0.10333722  0.57245675  1  0.097195  0  0.113875  0.121724  0  0.982632  0
C  C14  1  0.86520633  0.26094388  0.48789423  1  1.581062  0  0.274575  0.65126  0  4.083791  0
C  C15  1  0.63605335  0.47696451  0.73408394  1  1.583922  0  0.272493  0.673851  0  4.089856  0
C  C16  1  0.12985012  0.71551760  0.49816315  1  1.549796  0  0.268501  0.650056  0  4.08554  0
C  C17  1  0.35559135  0.48373474  0.28189928  1  1.603601  0  0.273049  0.663818  0  4.101851  0
C  C18  1  0.42767626  0.47762713  0.14388291  1  0.016802  0  -0.013164  -0.17072  0  3.996398  0
C  C19  1  0.56597149  0.47475439  0.87308127  1  0.013244  0  -0.015888  -0.172013  0  3.989514  0
C  C20  1  0.28696377  0.53495716  0.06706824  1  0.026359  0  -0.004173  0.066868  0  3.910075  0
C  C21  1  0.70862071  0.41507056  0.94989964  1  0.425435  0  0.09655  0.147749  0  4.061106  0
C  C22  1  0.35295969  0.53357979  0.93738251  1  0.082978  0  -0.004675  0.066224  0  3.906406  0
C  C23  1  0.64188399  0.41609148  0.08039216  1  0.570491  0  0.098257  0.149233  0  4.065314  0
C  C24  1  0.05655741  0.61475672  0.06765265  1  -0.03295  0  -0.147182  -0.190863  0  3.849053  0
C  C25  1  0.13144336  0.61333198  0.92015645  1  -0.011795  0  -0.147559  -0.192241  0  3.854168  0
C  C26  1  0.94240442  0.12235420  0.47337986  1  -0.040431  0  -0.002416  -0.076294  0  3.921817  0
C  C27  1  0.16149723  0.06057290  0.40887462  1  -0.058359  0  0.003885  0.062553  0  3.933633  0
C  C28  1  0.79165663  0.05334446  0.52875587  1  -0.015809  0  -0.078766  -0.091322  0  3.997037  0
C  C29  1  0.31573885  0.12798737  0.33896631  1  0.034005  0  -0.086706  -0.122411  0  3.952066  0
C  C30  1  0.52123084  0.06572599  0.27275623  1  -0.08967  0  -0.091067  -0.078318  0  4.030859  0
C  C31  1  0.06883597  0.85655426  0.47860260  1  -0.042125  0  -0.00912  -0.085714  0  3.940173  0
C  C32  1  0.85496961  0.92095494  0.53231446  1  0.011132  0  -0.081096  -0.092541  0  4.004742  0
C  C33  1  0.22476538  0.92472318  0.40985776  1  0.011373  0  -2.4e-05  0.06181  0  3.945314  0
C  C34  1  0.43619496  0.86441433  0.33753959  1  0.021701  0  -0.096555  -0.147549  0  3.993788  0
C  C35  1  0.58118414  0.93306638  0.27116299  1  -0.054954  0  -0.092817  -0.077054  0  4.049761  0
O  O36  1  0.66490649  0.31518320  0.49240522  1  -1.260156  0  -0.230408  -0.585633  0  2.353268  0
O  O37  1  0.83067174  0.48226671  0.68020210  1  -1.251783  0  -0.236498  -0.601158  0  2.347523  0
O  O38  1  0.98566644  0.66120072  0.50023840  1  -1.265732  0  -0.238709  -0.604619  0  2.338714  0
O  O39  1  0.49222693  0.49369756  0.33521623  1  -1.243422  0  -0.22876  -0.579099  0  2.352614  0
O  O40  1  0.32003066  0.65946754  0.51341124  1  -1.259542  0  -0.239361  -0.605476  0  2.370874  0
O  O41  1  0.15861410  0.48228620  0.33390075  1  -1.248306  0  -0.225452  -0.567366  0  2.321426  0
O  O42  1  0.00025395  0.31444585  0.50028201  1  -1.263517  0  -0.230682  -0.586178  0  2.367952  0
O  O43  1  0.49160137  0.47528246  0.68170699  1  -1.251807  0  -0.231803  -0.586436  0  2.309109  0
O  O44  1  0.24286052  0.42848359  0.56353904  1  -1.429241  0  -0.448987  -0.992508  0  2.189703  0
O  O45  1  0.73576490  0.54838906  0.45485683  1  -1.424989  0  -0.449843  -0.985827  0  2.196655  0
F  F46  1  0.91788449  0.34937929  0.90015548  1  -0.623545  0  -0.094604  -0.119983  0  1.369495  0
F  F47  1  0.79172128  0.35071928  0.14448018  1  -0.61969  0  -0.085125  -0.108733  0  1.376672  0
