# generated using pymatgen
data_Ag2H16C13(N3O2)2
_symmetry_space_group_name_H-M   'P 1'
_cell_length_a   6.32717607
_cell_length_b   6.32717890
_cell_length_c   20.64518550
_cell_angle_alpha   92.59935659
_cell_angle_beta   92.59984750
_cell_angle_gamma   98.34041578
_symmetry_Int_Tables_number   1
_chemical_formula_structural   Ag2H16C13(N3O2)2
_chemical_formula_sum   'Ag4 H32 C26 N12 O8'
_cell_volume   815.78105757
_cell_formula_units_Z   2
loop_
 _symmetry_equiv_pos_site_id
 _symmetry_equiv_pos_as_xyz
  1  'x, y, z'
loop_
 _atom_site_type_symbol
 _atom_site_label
 _atom_site_symmetry_multiplicity
 _atom_site_fract_x
 _atom_site_fract_y
 _atom_site_fract_z
 _atom_site_occupancy
 _atom_site_hle17_bader_spin_density
 _atom_site_hle17_ddec_charge
 _atom_site_hle17_ddec_spin_density
 _atom_site_hle17_ddec_sum_bond_order
 _atom_site_hle17_magmom
 _atom_site_hse06_10hf_bader_spin_density
 _atom_site_hse06_10hf_ddec_charge
 _atom_site_hse06_10hf_ddec_spin_density
 _atom_site_hse06_10hf_ddec_sum_bond_order
 _atom_site_hse06_10hf_magmom
 _atom_site_hse06_bader_spin_density
 _atom_site_hse06_ddec_charge
 _atom_site_hse06_ddec_spin_density
 _atom_site_hse06_ddec_sum_bond_order
 _atom_site_hse06_magmom
 _atom_site_pbe_bader_spin_density
 _atom_site_pbe_cm5_charge
 _atom_site_pbe_ddec_charge
 _atom_site_pbe_ddec_spin_density
 _atom_site_pbe_ddec_sum_bond_order
 _atom_site_pbe_magmom
Ag  Ag0  1  0.49731339  0.74150664  0.48842593  1  0  0.498735  0  1.51054  0  0  0.352078  0  1.988818  0  0  0.386845  0  1.934108  0  0  0.448101  0.3267  0  2.028121  0
Ag  Ag1  1  0.25849368  0.50268945  0.01157058  1  0  0.498736  0  1.510549  0  0  0.352078  0  1.988844  0  0  0.38684  0  1.934134  0  0  0.448101  0.326701  0  2.028145  0
Ag  Ag2  1  0.50268248  0.25848089  0.51157235  1  0  0.498734  0  1.510573  0  0  0.352078  0  1.988804  0  0  0.386841  0  1.934097  0  0  0.448105  0.326694  0  2.028112  0
Ag  Ag3  1  0.74152232  0.49731554  0.98842781  1  0  0.498772  0  1.510532  0  0  0.352132  0  1.988743  0  0  0.386901  0  1.934035  0  0  0.44812  0.326745  0  2.028052  0
H  H4  1  0.83616116  0.70703315  0.41473948  1  0  0.338459  0  0.933846  0  0  0.316178  0  1.006031  0  0  0.325078  0  0.998009  0  0  0.286962  0.309915  0  1.011555  0
H  H5  1  0.29296450  0.16383711  0.08526030  1  0  0.338484  0  0.933794  0  0  0.3162  0  1.005984  0  0  0.3251  0  0.99796  0  0  0.286986  0.309939  0  1.011504  0
H  H6  1  0.16382518  0.29294471  0.58526382  1  0  0.338422  0  0.933957  0  0  0.316117  0  1.006143  0  0  0.325018  0  0.998117  0  0  0.286978  0.309863  0  1.011654  0
H  H7  1  0.70705100  0.83617438  0.91473479  1  0  0.338409  0  0.93392  0  0  0.316115  0  1.006093  0  0  0.325016  0  0.998065  0  0  0.286976  0.309861  0  1.011605  0
H  H8  1  0.11929852  0.77127658  0.41725070  1  0  0.350307  0  0.919504  0  0  0.329423  0  0.985009  0  0  0.337798  0  0.978493  0  0  0.297064  0.32349  0  0.989596  0
H  H9  1  0.22872277  0.88069982  0.08274955  1  0  0.350288  0  0.919499  0  0  0.329404  0  0.985015  0  0  0.337779  0  0.978498  0  0  0.297067  0.323471  0  0.989601  0
H  H10  1  0.88069102  0.22870129  0.58275120  1  0  0.350258  0  0.919689  0  0  0.329331  0  0.985244  0  0  0.337719  0  0.978707  0  0  0.29705  0.323401  0  0.989828  0
H  H11  1  0.77129348  0.11930677  0.91724887  1  0  0.350239  0  0.919727  0  0  0.329336  0  0.98525  0  0  0.337715  0  0.978725  0  0  0.297043  0.323406  0  0.989833  0
H  H12  1  0.10675045  0.82442312  0.28963599  1  0  0.069901  0  0.937758  0  0  0.087372  0  0.998654  0  0  0.088989  0  0.998599  0  0  0.088225  0.086191  0  0.998748  0
H  H13  1  0.17557162  0.89324644  0.21036310  1  0  0.069902  0  0.93773  0  0  0.087367  0  0.99864  0  0  0.088982  0  0.998587  0  0  0.088227  0.086186  0  0.998734  0
H  H14  1  0.89325371  0.17557713  0.71036358  1  0  0.069896  0  0.937796  0  0  0.087371  0  0.998703  0  0  0.088987  0  0.99865  0  0  0.088217  0.086188  0  0.998799  0
H  H15  1  0.82443595  0.10675540  0.78963607  1  0  0.069889  0  0.937792  0  0  0.087359  0  0.998709  0  0  0.088975  0  0.998655  0  0  0.088223  0.086177  0  0.998803  0
H  H16  1  0.54855153  0.77962764  0.23999822  1  0  0.089189  0  0.946095  0  0  0.107853  0  1.00291  0  0  0.109096  0  1.002943  0  0  0.093011  0.106983  0  1.002912  0
H  H17  1  0.22037753  0.45144559  0.26000119  1  0  0.089178  0  0.946077  0  0  0.107854  0  1.002899  0  0  0.1091  0  1.002934  0  0  0.093008  0.106984  0  1.0029  0
H  H18  1  0.45145442  0.22037416  0.76000286  1  0  0.089166  0  0.946101  0  0  0.107867  0  1.002901  0  0  0.109106  0  1.002934  0  0  0.093025  0.106999  0  1.002902  0
H  H19  1  0.77961800  0.54854995  0.73999720  1  0  0.089126  0  0.946167  0  0  0.107823  0  1.002963  0  0  0.109062  0  1.002998  0  0  0.092992  0.106955  0  1.002964  0
H  H20  1  0.48954468  0.02061630  0.27779915  1  0  0.091375  0  0.929085  0  0  0.111028  0  0.984424  0  0  0.112891  0  0.983264  0  0  0.097588  0.109738  0  0.985275  0
H  H21  1  0.97938372  0.51044912  0.22220104  1  0  0.09136  0  0.929065  0  0  0.111018  0  0.984423  0  0  0.112888  0  0.983257  0  0  0.09758  0.109727  0  0.985272  0
H  H22  1  0.51045486  0.97938547  0.72220522  1  0  0.091401  0  0.92901  0  0  0.111071  0  0.98436  0  0  0.112928  0  0.9832  0  0  0.097603  0.109784  0  0.98521  0
H  H23  1  0.02061653  0.48955606  0.77779516  1  0  0.091373  0  0.929016  0  0  0.111027  0  0.984385  0  0  0.112895  0  0.983213  0  0  0.097577  0.109737  0  0.985235  0
H  H24  1  0.66764731  0.68840559  0.62696766  1  0  0.076493  0  0.934593  0  0  0.08782  0  0.99905  0  0  0.089715  0  0.995352  0  0  0.120141  0.086327  0  1.001871  0
H  H25  1  0.31158685  0.33235999  0.87303261  1  0  0.076451  0  0.934677  0  0  0.087793  0  0.999108  0  0  0.089684  0  0.995416  0  0  0.120126  0.0863  0  1.001926  0
H  H26  1  0.33234520  0.31159147  0.37303507  1  0  0.076462  0  0.934626  0  0  0.08784  0  0.999014  0  0  0.089736  0  0.995315  0  0  0.120146  0.086343  0  1.00184  0
H  H27  1  0.68841329  0.66765478  0.12696422  1  0  0.076478  0  0.934643  0  0  0.08787  0  0.998996  0  0  0.089766  0  0.995297  0  0  0.12015  0.086371  0  1.001824  0
H  H28  1  0.35430432  0.81459414  0.62673163  1  0  0.069458  0  0.948867  0  0  0.079872  0  1.013695  0  0  0.081364  0  1.010706  0  0  0.117427  0.078662  0  1.016039  0
H  H29  1  0.18540677  0.64570555  0.87326679  1  0  0.069476  0  0.948852  0  0  0.079903  0  1.013671  0  0  0.081395  0  1.01068  0  0  0.117454  0.078693  0  1.016015  0
H  H30  1  0.64568772  0.18539006  0.37327283  1  0  0.069391  0  0.94898  0  0  0.079805  0  1.013806  0  0  0.081294  0  1.010823  0  0  0.117479  0.078598  0  1.016152  0
H  H31  1  0.81460427  0.35430762  0.12672680  1  0  0.069429  0  0.948973  0  0  0.079845  0  1.01379  0  0  0.081336  0  1.010804  0  0  0.1175  0.078637  0  1.016136  0
H  H32  1  0.02328426  0.76176449  0.69116236  1  0  0.114402  0  0.961265  0  0  0.12719  0  1.016306  0  0  0.13006  0  1.016872  0  0  0.111921  0.125091  0  1.016174  0
H  H33  1  0.23823072  0.97672559  0.80883997  1  0  0.114427  0  0.961145  0  0  0.127203  0  1.016202  0  0  0.130075  0  1.016765  0  0  0.11192  0.125106  0  1.016071  0
H  H34  1  0.97670806  0.23824208  0.30884439  1  0  0.114394  0  0.961168  0  0  0.127196  0  1.0162  0  0  0.130065  0  1.016766  0  0  0.111926  0.125098  0  1.016067  0
H  H35  1  0.76176021  0.02329088  0.19115627  1  0  0.114335  0  0.961244  0  0  0.127131  0  1.016285  0  0  0.130001  0  1.016848  0  0  0.111889  0.125036  0  1.016154  0
C  C36  1  0.20935969  0.79063394  0.24999984  1  0  -0.058007  0  3.668476  0  0  -0.097171  0  3.925479  0  0  -0.097444  0  3.938483  0  0  -0.165235  -0.096784  0  3.916437  0
C  C37  1  0.79064239  0.20936312  0.74999965  1  0  -0.057997  0  3.668506  0  0  -0.09717  0  3.925575  0  0  -0.097455  0  3.938572  0  0  -0.165185  -0.096777  0  3.916536  0
C  C38  1  0.44439522  0.84533681  0.27429457  1  0  -0.258489  0  3.669868  0  0  -0.298214  0  3.922571  0  0  -0.303889  0  3.932548  0  0  -0.169635  -0.294266  0  3.915509  0
C  C39  1  0.15466377  0.55560096  0.22570405  1  0  -0.258467  0  3.669652  0  0  -0.298228  0  3.922469  0  0  -0.303917  0  3.93246  0  0  -0.169657  -0.294273  0  3.9154  0
C  C40  1  0.55560733  0.15466343  0.72570595  1  0  -0.258421  0  3.669867  0  0  -0.298242  0  3.922708  0  0  -0.303894  0  3.932658  0  0  -0.169674  -0.294304  0  3.915661  0
C  C41  1  0.84533727  0.44439936  0.77429354  1  0  -0.258289  0  3.669823  0  0  -0.298085  0  3.922622  0  0  -0.303741  0  3.93257  0  0  -0.1696  -0.294139  0  3.915562  0
C  C42  1  0.81846307  0.72111061  0.60320321  1  0  0.214095  0  3.707097  0  0  0.171137  0  3.966158  0  0  0.188236  0  3.978875  0  0  0.063947  0.15975  0  3.957584  0
C  C43  1  0.27889102  0.18154495  0.89679786  1  0  0.214095  0  3.707149  0  0  0.171126  0  3.966231  0  0  0.188227  0  3.978944  0  0  0.063916  0.159739  0  3.957656  0
C  C44  1  0.18152753  0.27888478  0.39680285  1  0  0.214078  0  3.706997  0  0  0.171078  0  3.966078  0  0  0.188176  0  3.978798  0  0  0.063947  0.159696  0  3.957493  0
C  C45  1  0.72111620  0.81847456  0.10319917  1  0  0.214043  0  3.707009  0  0  0.171046  0  3.96609  0  0  0.188141  0  3.978813  0  0  0.063927  0.159664  0  3.957505  0
C  C46  1  0.19511786  0.78552464  0.60286573  1  0  0.221717  0  3.715908  0  0  0.182251  0  3.971587  0  0  0.198926  0  3.984737  0  0  0.067764  0.171179  0  3.962612  0
C  C47  1  0.21447427  0.80488832  0.89713485  1  0  0.221672  0  3.716078  0  0  0.182191  0  3.971785  0  0  0.198865  0  3.984931  0  0  0.067695  0.171117  0  3.962812  0
C  C48  1  0.80486870  0.21446449  0.39713533  1  0  0.221724  0  3.715725  0  0  0.182254  0  3.971423  0  0  0.198928  0  3.984567  0  0  0.067666  0.171178  0  3.962449  0
C  C49  1  0.78553107  0.19512956  0.10286405  1  0  0.221763  0  3.715793  0  0  0.182279  0  3.971485  0  0  0.198957  0  3.984631  0  0  0.067726  0.171205  0  3.962512  0
C  C50  1  0.49118392  0.76325269  0.34114934  1  0  0.68046  0  3.881909  0  0  0.635116  0  4.180553  0  0  0.66683  0  4.177098  0  0  0.194065  0.613562  0  4.181896  0
C  C51  1  0.23674627  0.50881557  0.15884947  1  0  0.680435  0  3.881777  0  0  0.635023  0  4.180551  0  0  0.66674  0  4.177101  0  0  0.194105  0.613467  0  4.181892  0
C  C52  1  0.50881918  0.23674110  0.65885253  1  0  0.680298  0  3.882021  0  0  0.634974  0  4.180678  0  0  0.666683  0  4.177225  0  0  0.194004  0.613421  0  4.182026  0
C  C53  1  0.76326058  0.49118150  0.84114865  1  0  0.680193  0  3.882318  0  0  0.634875  0  4.18096  0  0  0.666583  0  4.177512  0  0  0.193997  0.613321  0  4.182303  0
C  C54  1  0.01315499  0.75847477  0.63852165  1  0  -0.213314  0  3.7331  0  0  -0.226505  0  3.99022  0  0  -0.241372  0  4.010802  0  0  -0.105154  -0.217068  0  3.976739  0
C  C55  1  0.24152002  0.98685296  0.86147966  1  0  -0.213322  0  3.73311  0  0  -0.226477  0  3.990216  0  0  -0.241342  0  4.010793  0  0  -0.105095  -0.217042  0  3.976737  0
C  C56  1  0.98683244  0.24152064  0.36148437  1  0  -0.21322  0  3.732786  0  0  -0.226421  0  3.989944  0  0  -0.241282  0  4.010519  0  0  -0.105108  -0.216987  0  3.976462  0
C  C57  1  0.75847907  0.01316505  0.13851624  1  0  -0.213214  0  3.732942  0  0  -0.226415  0  3.990097  0  0  -0.241275  0  4.010673  0  0  -0.105132  -0.216984  0  3.976618  0
C  C58  1  0.99040922  0.74663366  0.50607775  1  0  0.628931  0  3.800765  0  0  0.580293  0  4.062822  0  0  0.607393  0  4.073406  0  0  0.339795  0.561896  0  4.055514  0
C  C59  1  0.25336700  0.00959084  0.99392240  1  0  0.629098  0  3.80076  0  0  0.580488  0  4.062804  0  0  0.607588  0  4.07338  0  0  0.339871  0.562086  0  4.055506  0
C  C60  1  0.00958079  0.25335709  0.49392193  1  0  0.628991  0  3.800476  0  0  0.580159  0  4.062792  0  0  0.607263  0  4.07337  0  0  0.339782  0.56176  0  4.055494  0
C  C61  1  0.74663864  0.99041899  0.00607784  1  0  0.628961  0  3.800629  0  0  0.580219  0  4.062809  0  0  0.607327  0  4.073381  0  0  0.3398  0.561819  0  4.055511  0
N  N62  1  0.18712554  0.77619146  0.53800536  1  0  -0.464193  0  3.194274  0  0  -0.381451  0  3.479402  0  0  -0.407577  0  3.488679  0  0  -0.352673  -0.363321  0  3.473088  0
N  N63  1  0.22381081  0.81287597  0.96199472  1  0  -0.464191  0  3.194402  0  0  -0.381505  0  3.479614  0  0  -0.407621  0  3.488873  0  0  -0.352689  -0.363374  0  3.473304  0
N  N64  1  0.81286461  0.22380078  0.46199871  1  0  -0.464182  0  3.19409  0  0  -0.381396  0  3.479305  0  0  -0.40752  0  3.488573  0  0  -0.352683  -0.363267  0  3.472993  0
N  N65  1  0.77619124  0.18713077  0.03800250  1  0  -0.464184  0  3.194305  0  0  -0.381408  0  3.479484  0  0  -0.407544  0  3.488767  0  0  -0.352655  -0.363278  0  3.473169  0
N  N66  1  0.80440151  0.71901865  0.53810573  1  0  -0.464734  0  3.256611  0  0  -0.37196  0  3.543374  0  0  -0.400021  0  3.55353  0  0  -0.360749  -0.3526  0  3.536335  0
N  N67  1  0.28098055  0.19559997  0.96189566  1  0  -0.464823  0  3.256654  0  0  -0.372054  0  3.54344  0  0  -0.400114  0  3.553591  0  0  -0.360758  -0.352693  0  3.536402  0
N  N68  1  0.19558753  0.28097678  0.46189934  1  0  -0.464794  0  3.256709  0  0  -0.371917  0  3.543508  0  0  -0.399977  0  3.553662  0  0  -0.360806  -0.352561  0  3.536468  0
N  N69  1  0.71902384  0.80441156  0.03810119  1  0  -0.464821  0  3.256633  0  0  -0.371984  0  3.54342  0  0  -0.400042  0  3.553571  0  0  -0.360827  -0.352625  0  3.536378  0
N  N70  1  0.98012903  0.74399772  0.44150848  1  0  -0.687119  0  3.098163  0  0  -0.645305  0  3.331745  0  0  -0.670746  0  3.331121  0  0  -0.567015  -0.627491  0  3.331942  0
N  N71  1  0.25600149  0.01986790  0.05849096  1  0  -0.687177  0  3.098172  0  0  -0.645342  0  3.331734  0  0  -0.670782  0  3.331112  0  0  -0.567065  -0.627531  0  3.331934  0
N  N72  1  0.01986457  0.25598643  0.55849745  1  0  -0.687005  0  3.097979  0  0  -0.645097  0  3.331805  0  0  -0.670551  0  3.331165  0  0  -0.566982  -0.627259  0  3.331936  0
N  N73  1  0.74400834  0.98013729  0.94150152  1  0  -0.686931  0  3.097937  0  0  -0.645109  0  3.331761  0  0  -0.670578  0  3.331173  0  0  -0.566996  -0.627268  0  3.331885  0
O  O74  1  0.63418227  0.64573841  0.34858736  1  0  -0.652699  0  1.91654  0  0  -0.601285  0  2.140173  0  0  -0.625403  0  2.131722  0  0  -0.341185  -0.584209  0  2.145211  0
O  O75  1  0.35426267  0.36581895  0.15141137  1  0  -0.652695  0  1.916523  0  0  -0.601255  0  2.140178  0  0  -0.625374  0  2.13173  0  0  -0.341203  -0.584178  0  2.145214  0
O  O76  1  0.36581908  0.35425388  0.65141108  1  0  -0.652674  0  1.916566  0  0  -0.60126  0  2.140179  0  0  -0.625381  0  2.131733  0  0  -0.341221  -0.58419  0  2.145216  0
O  O77  1  0.64574593  0.63417963  0.84858970  1  0  -0.652651  0  1.91671  0  0  -0.601241  0  2.140312  0  0  -0.625359  0  2.131867  0  0  -0.341219  -0.584172  0  2.145348  0
O  O78  1  0.38054064  0.82717739  0.38719774  1  0  -0.673987  0  2.070952  0  0  -0.594324  0  2.333783  0  0  -0.62551  0  2.324082  0  0  -0.346975  -0.572159  0  2.339549  0
O  O79  1  0.17281860  0.61945915  0.11280080  1  0  -0.67392  0  2.070888  0  0  -0.594224  0  2.333739  0  0  -0.625408  0  2.324042  0  0  -0.346957  -0.572061  0  2.339513  0
O  O80  1  0.61945757  0.17280526  0.61280291  1  0  -0.673958  0  2.070928  0  0  -0.59424  0  2.333694  0  0  -0.625431  0  2.324003  0  0  -0.346902  -0.572082  0  2.339476  0
O  O81  1  0.82719534  0.38054268  0.88719653  1  0  -0.67388  0  2.07105  0  0  -0.594172  0  2.333807  0  0  -0.625357  0  2.324115  0  0  -0.346877  -0.572015  0  2.339585  0
