# generated using pymatgen
data_Zn2H37C56N7O18
_symmetry_space_group_name_H-M   'P 1'
_cell_length_a   9.89819801
_cell_length_b   10.96215521
_cell_length_c   23.55726382
_cell_angle_alpha   86.63978843
_cell_angle_beta   89.89275107
_cell_angle_gamma   86.83406345
_symmetry_Int_Tables_number   1
_chemical_formula_structural   Zn2H37C56N7O18
_chemical_formula_sum   'Zn2 H37 C56 N7 O18'
_cell_volume   2547.80327252
_cell_formula_units_Z   1
loop_
 _symmetry_equiv_pos_site_id
 _symmetry_equiv_pos_as_xyz
  1  'x, y, z'
loop_
 _atom_site_type_symbol
 _atom_site_label
 _atom_site_symmetry_multiplicity
 _atom_site_fract_x
 _atom_site_fract_y
 _atom_site_fract_z
 _atom_site_occupancy
 _atom_site_pbe_bader_charge
 _atom_site_pbe_bader_spin_density
 _atom_site_pbe_cm5_charge
 _atom_site_pbe_ddec_charge
 _atom_site_pbe_ddec_spin_density
 _atom_site_pbe_ddec_sum_bond_order
 _atom_site_pbe_magmom
Zn  Zn0  1  0.64718561  0.49018431  0.49913143  1  1.299191  0  0.681608  0.836754  0  2.404173  0
Zn  Zn1  1  0.35060838  0.50334583  0.49979172  1  1.301021  0  0.68324  0.856205  0  2.338629  0
H  H2  1  0.25938501  0.34436203  0.05893153  1  0.139206  0  0.12658  0.132162  0  0.96554  0
H  H3  1  0.24178129  0.35476095  0.95133109  1  0.119922  0  0.125864  0.13117  0  0.967518  0
H  H4  1  0.29960064  0.60919905  0.32691052  1  0.086282  0  0.103553  0.105984  0  1.031831  0
H  H5  1  0.70157272  0.44554999  0.31345196  1  0.114  0  0.111299  0.118028  0  0.984487  0
H  H6  1  0.68424665  0.47229363  0.20695544  1  0.059963  0  0.110686  0.117614  0  0.978492  0
H  H7  1  0.40328600  0.74125422  0.76011690  1  0.091169  0  0.112142  0.123596  0  0.97842  0
H  H8  1  0.42460518  0.70055645  0.65720705  1  0.071391  0  0.10707  0.109046  0  0.990582  0
H  H9  1  0.54355350  0.36876369  0.80351480  1  0.065066  0  0.109613  0.12038  0  0.98604  0
H  H10  1  0.32442033  0.91118813  0.45070682  1  0.114097  0  0.116159  0.132608  0  0.990596  0
H  H11  1  0.65419873  0.73836181  0.58675498  1  0.110713  0  0.102144  0.11289  0  1.025604  0
H  H12  1  0.83711945  0.81954780  0.64080509  1  0.054418  0  0.103627  0.103189  0  0.993616  0
H  H13  1  0.73540117  0.18266244  0.56881350  1  0.065186  0  0.100173  0.111972  0  1.04535  0
H  H14  1  0.24039229  0.65249113  0.41797470  1  0.131584  0  0.111548  0.129009  0  1.057905  0
H  H15  1  0.10867973  0.79821263  0.35278232  1  0.076508  0  0.111137  0.105986  0  0.987527  0
H  H16  1  0.85672856  0.81502403  0.35783212  1  0.088707  0  0.117115  0.114973  0  0.968416  0
H  H17  1  0.73613951  0.68085709  0.42769058  1  0.142917  0  0.113871  0.13371  0  1.022938  0
H  H18  1  0.87101552  0.38216530  0.56516045  1  0.111604  0  0.131753  0.111601  0  0.987184  0
H  H19  1  0.38762174  0.20519793  0.72003341  1  0.031268  0  0.086137  0.113106  0  1.001918  0
H  H20  1  0.39878497  0.25495275  0.64699324  1  0.038727  0  0.085902  0.120675  0  1.016028  0
H  H21  1  0.49317306  0.12100481  0.67300580  1  0.052294  0  0.086747  0.116634  0  1.007964  0
H  H22  1  0.64322764  0.29609045  0.66002309  1  0.054318  0  0.090076  0.086847  0  1.026091  0
H  H23  1  0.63595313  0.24334136  0.73220781  1  0.038901  0  0.094254  0.088965  0  0.980478  0
H  H24  1  0.85534301  0.23010506  0.65935617  1  0.033571  0  0.083528  0.105779  0  1.036695  0
H  H25  1  0.84155032  0.11152178  0.71316609  1  0.036431  0  0.090129  0.1199  0  0.998729  0
H  H26  1  0.00201814  0.16916608  0.69635738  1  0.054358  0  0.089151  0.117828  0  1.001209  0
H  H27  1  0.98515882  0.96850071  0.65407101  1  0.030585  0  0.09475  0.087963  0  0.97444  0
H  H28  1  0.99490221  0.08500661  0.60002439  1  0.041394  0  0.093417  0.086685  0  0.983957  0
H  H29  1  0.17740032  0.50324506  0.63865521  1  0.073238  0  0.09053  0.131259  0  1.011552  0
H  H30  1  0.01862431  0.43667786  0.65175804  1  0.05195  0  0.086051  0.110026  0  1.011113  0
H  H31  1  0.17186822  0.35674660  0.67444283  1  0.039457  0  0.093974  0.126449  0  1.002451  0
H  H32  1  0.08943734  0.26909549  0.58606743  1  0.048814  0  0.101355  0.103879  0  0.985692  0
H  H33  1  0.24487333  0.33711754  0.57257216  1  0.110211  0  0.101767  0.117165  0  1.034223  0
H  H34  1  0.27316081  0.83680478  0.26405681  1  0.035161  0  0.084575  0.108724  0  1.01266  0
H  H35  1  0.35466576  0.84464476  0.19713868  1  0.081034  0  0.087969  0.124211  0  1.00477  0
H  H36  1  0.17484022  0.86429236  0.20094522  1  0.05992  0  0.090165  0.119808  0  0.994849  0
H  H37  1  0.23909244  0.65354476  0.17123911  1  0.022037  0  0.089984  0.081012  0  0.996689  0
H  H38  1  0.16221228  0.64538179  0.23861443  1  0.022785  0  0.098454  0.095885  0  0.966611  0
C  C39  1  0.47247325  0.73341135  0.50465510  1  1.593469  0  0.217545  0.598753  0  4.175463  0
C  C40  1  0.50697105  0.50771088  0.38959690  1  1.572598  0  0.222279  0.60191  0  4.151888  0
C  C41  1  0.52715928  0.25925153  0.50434183  1  1.587279  0  0.22019  0.607865  0  4.175383  0
C  C42  1  0.50855637  0.49691779  0.61019140  1  1.576185  0  0.220811  0.6066  0  4.165325  0
C  C43  1  0.36841935  0.49984989  0.87784255  1  1.336959  0  0.24816  0.440015  0  4.096116  0
C  C44  1  0.53843887  0.66095625  0.87103155  1  1.398359  0  0.249627  0.443946  0  4.082529  0
C  C45  1  0.52962575  0.66904413  0.93387031  1  0.003822  0  0.010779  -0.079806  0  3.933012  0
C  C46  1  0.45580187  0.58369279  0.96708404  1  -0.015744  0  0.010059  0.040881  0  3.990561  0
C  C47  1  0.37551949  0.50035608  0.94058163  1  -0.00149  0  0.001972  -0.055959  0  3.975624  0
C  C48  1  0.60179895  0.75303374  0.96163706  1  0.303835  0  0.104092  0.032624  0  3.870296  0
C  C49  1  0.60908756  0.74934796  0.02151339  1  0.181203  0  0.103831  0.032335  0  3.872592  0
C  C50  1  0.53868342  0.66577195  0.05496981  1  0.034781  0  0.010879  -0.082342  0  3.932439  0
C  C51  1  0.46087300  0.58160304  0.02757255  1  0.090899  0  0.011249  0.043085  0  3.988177  0
C  C52  1  0.38964814  0.49285839  0.05976472  1  -0.041399  0  0.001901  -0.055218  0  3.973642  0
C  C53  1  0.31199090  0.41188769  0.03272192  1  0.053645  0  -0.049673  -0.052484  0  3.902635  0
C  C54  1  0.30329046  0.41685389  0.97320883  1  -0.040627  0  -0.050895  -0.054219  0  3.906871  0
C  C55  1  0.53986917  0.66633695  0.11824834  1  1.402023  0  0.251367  0.446156  0  4.085253  0
C  C56  1  0.39988185  0.48273238  0.12259073  1  1.330352  0  0.247771  0.43196  0  4.111888  0
C  C57  1  0.37520219  0.60384288  0.24132530  1  0.084483  0  0.002738  0.066148  0  3.926196  0
C  C58  1  0.38491742  0.58213302  0.30026635  1  0.001492  0  -0.078691  -0.136342  0  3.922475  0
C  C59  1  0.50088494  0.52594018  0.32620557  1  -0.040067  0  -0.010998  -0.017525  0  3.972138  0
C  C60  1  0.61124144  0.48869579  0.29286414  1  -0.079008  0  -0.07752  -0.08027  0  3.96744  0
C  C61  1  0.60180977  0.50449758  0.23399220  1  0.020297  0  -0.082845  -0.146308  0  3.996843  0
C  C62  1  0.48513640  0.56134086  0.20902074  1  0.310351  0  0.08757  0.132043  0  3.984611  0
C  C63  1  0.43897542  0.65150203  0.74698297  1  0.029592  0  -0.086216  -0.156423  0  3.998087  0
C  C64  1  0.45208706  0.62851322  0.68970391  1  0.017986  0  -0.083186  -0.085142  0  3.998064  0
C  C65  1  0.49981376  0.51339649  0.67295790  1  -0.043756  0  -0.009608  -0.076531  0  3.922752  0
C  C66  1  0.53370512  0.41753126  0.71366757  1  -0.025418  0  0.000502  0.119113  0  3.922773  0
C  C67  1  0.51940466  0.44171684  0.77102743  1  0.031233  0  -0.085435  -0.210133  0  3.947299  0
C  C68  1  0.47288206  0.55681560  0.78728092  1  0.22746  0  0.082343  0.188509  0  4.044073  0
C  C69  1  0.67095865  0.83566589  0.58257035  1  -0.073844  0  -0.091524  -0.121737  0  3.994292  0
C  C70  1  0.77412701  0.88140652  0.61256439  1  0.006786  0  -0.087656  -0.133073  0  4.000263  0
C  C71  1  0.80269241  0.00682303  0.60674636  1  0.007634  0  -0.004975  0.127112  0  3.960723  0
C  C72  1  0.71697824  0.08563411  0.57358973  1  -0.022148  0  -0.092033  -0.188731  0  3.908279  0
C  C73  1  0.60863440  0.04259298  0.54195911  1  -0.001545  0  0.004312  0.073089  0  3.943975  0
C  C74  1  0.58859822  0.91310941  0.54479782  1  -0.055935  0  0.000332  0.051846  0  3.953064  0
C  C75  1  0.48620222  0.86743766  0.51038095  1  0.003622  0  -0.007167  -0.047176  0  3.939236  0
C  C76  1  0.40284916  0.94623067  0.47663152  1  0.04525  0  -0.082093  -0.155524  0  3.988843  0
C  C77  1  0.42378404  0.07169585  0.47419261  1  0.152392  0  0.079231  0.054205  0  3.958814  0
C  C78  1  0.52204493  0.12234674  0.50584447  1  0.074651  0  0.004027  -0.099333  0  3.87829  0
C  C79  1  0.13079449  0.65901375  0.42002760  1  -0.018858  0  -0.083092  -0.15394  0  3.941988  0
C  C80  1  0.05627105  0.73982862  0.38370977  1  -0.027115  0  -0.071895  -0.053606  0  3.989479  0
C  C81  1  0.91349810  0.74916762  0.38633222  1  -0.046193  0  -0.070585  -0.054737  0  3.988053  0
C  C82  1  0.84578250  0.67520215  0.42474039  1  0.004476  0  -0.07519  -0.137469  0  3.932245  0
C  C83  1  0.91974191  0.59036866  0.46188912  1  0.488029  0  0.123341  0.165639  0  3.947362  0
C  C84  1  0.06482977  0.58320833  0.46069822  1  0.408388  0  0.12462  0.182709  0  3.928813  0
C  C85  1  0.06984730  0.43644726  0.53679045  1  0.537081  0  0.152622  0.257358  0  3.889221  0
C  C86  1  0.92608732  0.44104495  0.53536441  1  0.608444  0  0.078908  0.025928  0  3.846915  0
C  C87  1  0.57651070  0.29022005  0.69721595  1  -0.010466  0  -0.162243  -0.152616  0  3.974167  0
C  C88  1  0.45674376  0.21344422  0.68359390  1  -0.095602  0  -0.242586  -0.34727  0  3.937002  0
C  C89  1  0.92880135  0.04909582  0.63412100  1  -0.02159  0  -0.156562  -0.142239  0  3.979232  0
C  C90  1  0.90544693  0.14540360  0.67814356  1  -0.10805  0  -0.241079  -0.351615  0  3.963797  0
C  C91  1  0.13852447  0.35700470  0.58318046  1  -0.022196  0  -0.158496  -0.201753  0  3.961917  0
C  C92  1  0.12515097  0.41748880  0.64043276  1  -0.098693  0  -0.23978  -0.349226  0  3.931797  0
C  C93  1  0.25306400  0.67466526  0.21579567  1  0.001333  0  -0.157649  -0.136305  0  3.980966  0
C  C94  1  0.26431515  0.81328069  0.21952658  1  -0.130294  0  -0.240636  -0.352415  0  3.949471  0
N  N95  1  0.45863332  0.57479424  0.84726317  1  -1.156126  0  -0.224354  -0.213712  0  3.583122  0
N  N96  1  0.47685451  0.57015608  0.14754148  1  -1.205308  0  -0.227481  -0.216581  0  3.616491  0
N  N97  1  0.13737117  0.50494858  0.49899925  1  -1.213726  0  -0.28237  -0.25328  0  3.362689  0
N  N98  1  0.85362372  0.51408278  0.49933742  1  -1.231728  0  -0.292932  -0.187474  0  3.498019  0
N  N99  1  0.67317612  0.85117264  0.92953449  1  0.400951  0  0.062039  0.511495  0  4.267785  0
N  N100  1  0.34021922  0.14789916  0.43241477  1  0.408451  0  0.055919  0.522673  0  4.214216  0
N  N101  1  0.69801323  0.83642918  0.04728701  1  0.465092  0  0.061919  0.51126  0  4.269692  0
O  O102  1  0.58330291  0.66899236  0.50188087  1  -1.186521  0  -0.313415  -0.566727  0  2.426718  0
O  O103  1  0.35468200  0.69509582  0.50074706  1  -1.161491  0  -0.311228  -0.537239  0  2.310138  0
O  O104  1  0.62321503  0.49363097  0.41253261  1  -1.163701  0  -0.309642  -0.539582  0  2.33953  0
O  O105  1  0.39410171  0.51034698  0.41592100  1  -1.17418  0  -0.3142  -0.554628  0  2.397919  0
O  O106  1  0.64209056  0.30471762  0.49997217  1  -1.156352  0  -0.305889  -0.521792  0  2.329507  0
O  O107  1  0.41318346  0.31750048  0.50880335  1  -1.178817  0  -0.312423  -0.564412  0  2.361715  0
O  O108  1  0.62409397  0.47435476  0.58818589  1  -1.170546  0  -0.317459  -0.559868  0  2.289739  0
O  O109  1  0.39605311  0.51153670  0.58405816  1  -1.173096  0  -0.306012  -0.542996  0  2.376948  0
O  O110  1  0.29220429  0.43582667  0.85329561  1  -1.088811  0  -0.263325  -0.417327  0  2.06763  0
O  O111  1  0.61488972  0.72277043  0.84182478  1  -1.075215  0  -0.255081  -0.401929  0  2.097666  0
O  O112  1  0.59190221  0.74656493  0.14353042  1  -1.075972  0  -0.253901  -0.40385  0  2.096337  0
O  O113  1  0.34481749  0.40394879  0.15196086  1  -1.076243  0  -0.25753  -0.407229  0  2.062201  0
O  O114  1  0.60133232  0.93874538  0.90989091  1  -0.403993  0  -0.110747  -0.291515  0  1.869227  0
O  O115  1  0.79773161  0.83878442  0.92850589  1  -0.360898  0  -0.113335  -0.29259  0  1.864733  0
O  O116  1  0.39928427  0.21674773  0.39839936  1  -0.429009  0  -0.127155  -0.315723  0  1.89545  0
O  O117  1  0.21682934  0.13298897  0.43280807  1  -0.474461  0  -0.15078  -0.348026  0  1.847413  0
O  O118  1  0.80980389  0.79423995  0.06375443  1  -0.409031  0  -0.108658  -0.288635  0  1.875644  0
O  O119  1  0.65386789  0.94396421  0.04661315  1  -0.415018  0  -0.112807  -0.292348  0  1.859132  0
