# generated using pymatgen
data_Zn4H16C31(Br4O5)3
_symmetry_space_group_name_H-M   'P 1'
_cell_length_a   18.15871790
_cell_length_b   18.17993029
_cell_length_c   18.22515279
_cell_angle_alpha   61.17291914
_cell_angle_beta   61.22023883
_cell_angle_gamma   60.91509153
_symmetry_Int_Tables_number   1
_chemical_formula_structural   Zn4H16C31(Br4O5)3
_chemical_formula_sum   'Zn8 H32 C62 Br24 O30'
_cell_volume   4359.88575860
_cell_formula_units_Z   2
loop_
 _symmetry_equiv_pos_site_id
 _symmetry_equiv_pos_as_xyz
  1  'x, y, z'
loop_
 _atom_site_type_symbol
 _atom_site_label
 _atom_site_symmetry_multiplicity
 _atom_site_fract_x
 _atom_site_fract_y
 _atom_site_fract_z
 _atom_site_occupancy
 _atom_site_pbe_bader_charge
 _atom_site_pbe_bader_spin_density
 _atom_site_pbe_cm5_charge
 _atom_site_pbe_ddec_charge
 _atom_site_pbe_ddec_spin_density
 _atom_site_pbe_ddec_sum_bond_order
 _atom_site_pbe_magmom
Zn  Zn0  1  0.62097807  0.29131954  0.29244460  1  1.313767  0  0.681108  0.984977  0  2.348691  0
Zn  Zn1  1  0.20633233  0.88190265  0.70586851  1  1.322986  0  0.675682  0.978444  0  2.343491  0
Zn  Zn2  1  0.79485237  0.29376058  0.11897734  1  1.305075  0  0.674136  0.974939  0  2.350207  0
Zn  Zn3  1  0.79004685  0.11917550  0.29450415  1  1.31558  0  0.678161  0.993789  0  2.306945  0
Zn  Zn4  1  0.21049412  0.70489747  0.88051782  1  1.316708  0  0.678287  0.993815  0  2.315366  0
Zn  Zn5  1  0.79540297  0.29554869  0.29284676  1  1.323638  0  0.681699  0.990105  0  2.300395  0
Zn  Zn6  1  0.37932960  0.70669890  0.70806477  1  1.308804  0  0.680043  0.983282  0  2.342197  0
Zn  Zn7  1  0.20249885  0.70656507  0.70849147  1  1.317391  0  0.682336  0.988383  0  2.322676  0
H  H8  1  0.35650785  0.03903663  0.49706113  1  0.119841  0  0.117272  0.138414  0  0.986287  0
H  H9  1  0.38544232  0.21661606  0.48035368  1  0.044954  0  0.093427  0.063949  0  0.990474  0
H  H10  1  0.27956321  0.26767157  0.36300458  1  0.016372  0  0.087571  0.084567  0  0.98396  0
H  H11  1  0.26232056  0.19375770  0.47313991  1  0.001349  0  0.089514  0.083182  0  0.9837  0
H  H12  1  0.22145019  0.31576536  0.52874462  1  0.028805  0  0.082626  0.108609  0  1.010296  0
H  H13  1  0.15268026  0.34937009  0.46692333  1  0.038229  0  0.087146  0.114328  0  1.015  0
H  H14  1  0.24231652  0.39044900  0.41889920  1  0.04762  0  0.086289  0.115835  0  1.002585  0
H  H15  1  0.88289444  0.29111580  0.43430261  1  0.036677  0  0.095429  0.071006  0  0.988883  0
H  H16  1  0.99297706  0.21432847  0.42337447  1  0.051876  0  0.102111  0.067106  0  0.974163  0
H  H17  1  0.86228565  0.27077534  0.58845868  1  0.021151  0  0.085812  0.08824  0  0.990567  0
H  H18  1  0.97161371  0.19438191  0.57868260  1  0.007103  0  0.091624  0.086057  0  0.980959  0
H  H19  1  0.00256064  0.04575623  0.59903129  1  0.090486  0  0.116201  0.136504  0  0.994234  0
H  H20  1  0.03423428  0.31406909  0.45239048  1  0.023202  0  0.087047  0.112572  0  1.004923  0
H  H21  1  0.96677736  0.34697015  0.54837349  1  0.021953  0  0.089984  0.118461  0  1.000338  0
H  H22  1  0.92477231  0.39141957  0.46013452  1  0.029705  0  0.086354  0.114137  0  1.00215  0
H  H23  1  0.59734909  0.63129995  0.71241878  1  0.04263  0  0.092891  0.066212  0  0.998862  0
H  H24  1  0.61743754  0.51843699  0.78198682  1  0.048112  0  0.097029  0.063737  0  0.990438  0
H  H25  1  0.71771473  0.63949244  0.73483451  1  0.029452  0  0.087682  0.085526  0  0.98559  0
H  H26  1  0.73797681  0.52817170  0.80686163  1  0.025248  0  0.090585  0.084895  0  0.980857  0
H  H27  1  0.78246204  0.47401345  0.68273884  1  0.022  0  0.084179  0.11078  0  1.003846  0
H  H28  1  0.84833698  0.53718616  0.65285843  1  0.029566  0  0.088968  0.116968  0  1.005002  0
H  H29  1  0.75993751  0.58545821  0.60975674  1  0.032213  0  0.085281  0.113716  0  1.000727  0
H  H30  1  0.64470877  0.50141136  0.96023836  1  0.110991  0  0.117253  0.138088  0  0.98763  0
H  H31  1  0.14484617  0.53368794  0.71804968  1  0.080592  0  0.08783  0.059741  0  1.031953  0
H  H32  1  0.03166966  0.54779926  0.78629811  1  0.049369  0  0.100188  0.066166  0  0.973519  0
H  H33  1  0.17224042  0.37207462  0.75572336  1  0.023683  0  0.084128  0.084014  0  0.991739  0
H  H34  1  0.05865744  0.38731603  0.81931769  1  0.003333  0  0.08912  0.08203  0  0.98565  0
H  H35  1  0.01536769  0.50012605  0.68196727  1  0.007148  0  0.083846  0.108449  0  1.006688  0
H  H36  1  0.08619516  0.39490627  0.66751636  1  0.009491  0  0.08742  0.116251  0  1.001828  0
H  H37  1  0.13000879  0.48262872  0.61875846  1  0.03696  0  0.078684  0.107314  0  1.032937  0
H  H38  1  0.40302565  0.28739052  0.36845366  1  0.083833  0  0.093739  0.067549  0  1.001292  0
H  H39  1  0.01020912  0.38681314  0.96370304  1  0.103061  0  0.115389  0.135893  0  0.994999  0
C  C40  1  0.87876588  0.40104955  0.11128140  1  1.587114  0  0.229392  0.623391  0  4.147503  0
C  C41  1  0.06835343  0.94508200  0.53709517  1  -0.012596  0  -0.014543  -0.04216  0  3.959958  0
C  C42  1  0.92133563  0.53336037  0.07443293  1  -0.011654  0  -0.025278  0.029109  0  3.93258  0
C  C43  1  0.37917317  0.23110731  0.41715518  1  0.355523  0  -0.071853  0.037385  0  3.861325  0
C  C44  1  0.28336917  0.25253963  0.42758487  1  0.024322  0  -0.171639  -0.139168  0  3.989899  0
C  C45  1  0.22152381  0.33138981  0.46239854  1  -0.099647  0  -0.243571  -0.350735  0  3.968992  0
C  C46  1  0.92639678  0.23298923  0.47139082  1  0.398371  0  -0.068413  0.039691  0  3.861625  0
C  C47  1  0.92969426  0.25398814  0.54081259  1  0.035274  0  -0.170766  -0.140079  0  3.986621  0
C  C48  1  0.96582508  0.33087933  0.49806042  1  -0.065845  0  -0.241878  -0.351333  0  3.97566  0
C  C49  1  0.62175325  0.58235826  0.76851952  1  0.406205  0  -0.07182  0.036016  0  3.866194  0
C  C50  1  0.71648418  0.57409895  0.74831165  1  -0.011993  0  -0.171304  -0.140349  0  3.991353  0
C  C51  1  0.78028118  0.54083633  0.66906318  1  -0.072164  0  -0.242593  -0.348773  0  3.973013  0
C  C52  1  0.55373074  0.42860329  0.05406517  1  0.016435  0  -0.015184  -0.041006  0  3.965854  0
C  C53  1  0.09951477  0.49926783  0.77575857  1  0.370211  0  -0.071349  0.03882  0  3.859777  0
C  C54  1  0.10465499  0.42099795  0.76136597  1  0.006999  0  -0.173154  -0.139645  0  3.991114  0
C  C55  1  0.08282504  0.45141157  0.67772450  1  -0.039638  0  -0.244692  -0.34832  0  3.970371  0
C  C56  1  0.93381389  0.46146118  0.05443656  1  -0.018944  0  -0.016767  -0.041727  0  3.960448  0
C  C57  1  0.44766009  0.94491196  0.57044054  1  0.024022  0  -0.015311  -0.042354  0  3.964331  0
C  C58  1  0.41916525  0.02262497  0.50467197  1  0.005295  0  -0.086946  -0.195922  0  3.946503  0
C  C59  1  0.00679234  0.02659822  0.54866435  1  0.099789  0  -0.08826  -0.199167  0  3.952373  0
C  C60  1  0.58216114  0.49395609  0.97633584  1  0.03535  0  -0.087107  -0.196407  0  3.946499  0
C  C61  1  0.61134147  0.37585736  0.11218857  1  1.602115  0  0.229896  0.620815  0  4.15199  0
C  C62  1  0.00196193  0.44185600  0.97897975  1  -0.015459  0  -0.090013  -0.203673  0  3.954134  0
C  C63  1  0.46983491  0.07888767  0.44859281  1  0.600391  0  0.089373  0.250308  0  4.058938  0
C  C64  1  0.95014791  0.08262829  0.49796910  1  0.505048  0  0.091154  0.251572  0  4.063057  0
C  C65  1  0.53131176  0.54990709  0.91987705  1  0.542891  0  0.090748  0.252503  0  4.055282  0
C  C66  1  0.05978657  0.49102549  0.92414942  1  0.565633  0  0.08938  0.251126  0  4.066053  0
C  C67  1  0.12168407  0.88827187  0.59954378  1  1.587246  0  0.230729  0.623287  0  4.146417  0
C  C68  1  0.55294822  0.05556118  0.45577687  1  -0.020371  0  -0.017703  -0.153599  0  3.907964  0
C  C69  1  0.95313150  0.05623757  0.43523103  1  0.00905  0  -0.018656  -0.154086  0  3.911888  0
C  C70  1  0.44866503  0.54246794  0.94271226  1  0.014087  0  -0.018034  -0.153173  0  3.909766  0
C  C71  1  0.05030728  0.56051359  0.94563315  1  0.031345  0  -0.019572  -0.156182  0  3.924163  0
C  C72  1  0.38969702  0.88738144  0.62376811  1  1.583066  0  0.230192  0.621532  0  4.152146  0
C  C73  1  0.90669256  0.03070474  0.02557542  1  0.00044  0  -0.01889  0.044636  0  3.941607  0
C  C74  1  0.95703460  0.97681801  0.97134454  1  -0.090179  0  -0.019358  0.044378  0  3.945715  0
C  C75  1  0.04994823  0.94336356  0.94829837  1  0.095598  0  -0.018972  -0.086163  0  3.949003  0
C  C76  1  0.94961753  0.05098982  0.05647650  1  0.101244  0  -0.018993  -0.086428  0  3.948128  0
C  C77  1  0.09285156  0.96327956  0.97953363  1  -0.00612  0  -0.019003  0.044354  0  3.944072  0
C  C78  1  0.04254030  0.01740905  0.03349991  1  -0.079266  0  -0.019656  0.044769  0  3.94556  0
C  C79  1  0.60940224  0.11384725  0.39064319  1  1.619876  0  0.228955  0.634919  0  4.154045  0
C  C80  1  0.88902102  0.11623132  0.38384647  1  1.620524  0  0.229497  0.639107  0  4.150305  0
C  C81  1  0.39202864  0.60791651  0.88427211  1  1.614652  0  0.229046  0.635768  0  4.154865  0
C  C82  1  0.11338535  0.61245456  0.88590930  1  1.620418  0  0.229349  0.640149  0  4.16008  0
C  C83  1  0.89478173  0.10977360  0.11423249  1  1.624828  0  0.219005  0.613072  0  4.229417  0
C  C84  1  0.10507669  0.88596576  0.88920343  1  1.639876  0  0.218595  0.613902  0  4.226046  0
C  C85  1  0.61605986  0.38227947  0.39383913  1  1.621333  0  0.212408  0.600273  0  4.151276  0
C  C86  1  0.38221595  0.60950663  0.61637201  1  1.653534  0  0.21021  0.596795  0  4.159918  0
C  C87  1  0.57133664  0.39424842  0.55128171  1  0.001995  0  0.00363  0.098908  0  3.396169  0
C  C88  1  0.44800855  0.45836623  0.47590504  1  0.014154  0  0.005879  0.106259  0  3.374474  0
C  C89  1  0.38615825  0.50739574  0.54862371  1  0.004357  0  0.004338  0.100425  0  3.375145  0
C  C90  1  0.51865689  0.46682103  0.60155435  1  0.003472  0  0.005447  0.101084  0  3.399619  0
C  C91  1  0.57012026  0.53515477  0.40612843  1  0.014246  0  0.004219  0.100858  0  3.416551  0
C  C92  1  0.49467859  0.60424641  0.45796051  1  -0.005068  0  0.004086  0.102704  0  3.399481  0
C  C93  1  0.55230038  0.44054940  0.45693265  1  0.047205  0  -0.013776  -0.091131  0  3.499891  0
C  C94  1  0.44376859  0.54826187  0.55660657  1  0.03009  0  -0.014918  -0.092496  0  3.511477  0
C  C95  1  0.58035966  0.97899982  0.52393334  1  0.032452  0  -0.015841  0.053482  0  3.937541  0
C  C96  1  0.01683660  0.97557900  0.42137890  1  -0.012602  0  -0.015897  0.056254  0  3.934412  0
C  C97  1  0.42145719  0.47455497  0.01913779  1  -0.034657  0  -0.015884  0.053455  0  3.941271  0
C  C98  1  0.98032073  0.58216566  0.01984214  1  -0.051994  0  -0.018191  0.055863  0  3.939348  0
C  C99  1  0.52755238  0.92396848  0.58230085  1  -0.097464  0  -0.021455  0.025191  0  3.932827  0
C  C100  1  0.07513160  0.92000120  0.47141766  1  -0.053576  0  -0.022685  0.029451  0  3.923357  0
C  C101  1  0.47412820  0.41661765  0.07470732  1  -0.052008  0  -0.021589  0.024155  0  3.93544  0
Br  Br102  1  0.69775936  0.33472096  0.54963900  1  0.005199  0  0.021621  -0.043834  0  1.79386  0
Br  Br103  1  0.41615488  0.35270034  0.50822895  1  -0.022615  0  0.009689  -0.058342  0  1.707585  0
Br  Br104  1  0.33353900  0.42884722  0.66564336  1  0.006448  0  0.04361  -0.010305  0  1.843327  0
Br  Br105  1  0.47057588  0.41505029  0.73277416  1  -0.015808  0  0.008369  -0.051007  0  1.586997  0
Br  Br106  1  0.53973523  0.28391482  0.62020633  1  -0.014009  0  0.012777  -0.05241  0  1.703432  0
Br  Br107  1  0.69237085  0.51930449  0.39077698  1  0.005456  0  0.026068  -0.022415  0  1.845504  0
Br  Br108  1  0.58393843  0.58470945  0.27760957  1  -0.025236  0  0.008726  -0.046129  0  1.636844  0
Br  Br109  1  0.40512398  0.69851641  0.39914807  1  -0.015191  0  0.007291  -0.058332  0  1.775678  0
Br  Br110  1  0.41500735  0.52660043  0.36573429  1  -0.002219  0  0.013831  -0.03505  0  1.757042  0
Br  Br111  1  0.54512734  0.68701845  0.44681700  1  -0.001436  0  0.004005  -0.043842  0  1.641178  0
Br  Br112  1  0.68662665  0.95442289  0.54029828  1  -0.009455  0  0.036794  -0.029057  0  1.486582  0
Br  Br113  1  0.02835941  0.94611309  0.32878092  1  -0.00893  0  0.032449  -0.039906  0  1.570857  0
Br  Br114  1  0.31551716  0.45840750  0.04293742  1  -0.009258  0  0.037368  -0.027555  0  1.488813  0
Br  Br115  1  0.96213790  0.68331921  0.04085096  1  -0.014611  0  0.029535  -0.040373  0  1.542005  0
Br  Br116  1  0.26911587  0.59100873  0.52688881  1  -0.020925  0  0.011379  -0.053735  0  1.775328  0
Br  Br117  1  0.55997080  0.82731061  0.68004544  1  -0.007217  0  0.04628  -0.027833  0  1.570457  0
Br  Br118  1  0.16516472  0.81557752  0.44604170  1  -0.008559  0  0.023159  -0.036368  0  1.691783  0
Br  Br119  1  0.44202900  0.31924932  0.17179999  1  -0.004911  0  0.04604  -0.02642  0  1.561438  0
Br  Br120  1  0.82244392  0.56833866  0.16923478  1  -0.004344  0  0.016217  -0.059874  0  1.701085  0
Br  Br121  1  0.60084639  0.50907861  0.60220741  1  0.001258  0  0.025284  -0.033093  0  1.796403  0
Br  Br122  1  0.78094353  0.07724441  0.05833257  1  0.009064  0  0.048437  -0.016686  0  1.43051  0
Br  Br123  1  0.90197557  0.94728607  0.92835803  1  -0.007189  0  0.046186  -0.020148  0  1.470065  0
Br  Br124  1  0.21855634  0.91611070  0.94736820  1  0.014855  0  0.047733  -0.016557  0  1.432769  0
Br  Br125  1  0.09788293  0.04684544  0.07621653  1  -0.006479  0  0.044865  -0.022582  0  1.492809  0
O  O126  1  0.75140722  0.25033866  0.24853127  1  -1.208464  0  -0.572534  -1.033014  0  2.505539  0
O  O127  1  0.57205977  0.36031780  0.19511677  1  -1.155261  0  -0.31132  -0.543888  0  2.392803  0
O  O128  1  0.13839304  0.80481084  0.62691289  1  -1.149231  0  -0.309971  -0.541225  0  2.39538  0
O  O129  1  0.42861152  0.80374144  0.64152955  1  -1.162194  0  -0.311509  -0.544244  0  2.396686  0
O  O130  1  0.57276537  0.19581924  0.38422878  1  -1.15692  0  -0.300177  -0.532226  0  2.368537  0
O  O131  1  0.88843876  0.19623305  0.34286802  1  -1.155393  0  -0.302002  -0.527596  0  2.321066  0
O  O132  1  0.42784418  0.61301080  0.80311338  1  -1.148761  0  -0.299861  -0.531375  0  2.363572  0
O  O133  1  0.11336745  0.65262438  0.80626438  1  -1.158892  0  -0.30162  -0.522954  0  2.316829  0
O  O134  1  0.24890043  0.75177790  0.75015695  1  -1.215551  0  -0.573585  -1.033393  0  2.5106  0
O  O135  1  0.69503473  0.35452838  0.07217920  1  -1.170467  0  -0.31071  -0.539729  0  2.323674  0
O  O136  1  0.85901347  0.37683867  0.06972389  1  -1.166519  0  -0.313233  -0.541679  0  2.315523  0
O  O137  1  0.30603264  0.92851993  0.64344341  1  -1.175455  0  -0.310576  -0.539194  0  2.319926  0
O  O138  1  0.14259236  0.93022373  0.62219757  1  -1.173618  0  -0.313528  -0.543311  0  2.315985  0
O  O139  1  0.84052018  0.08228558  0.38630199  1  -1.165457  0  -0.315615  -0.557319  0  2.36708  0
O  O140  1  0.68818477  0.07713629  0.34666206  1  -1.16521  0  -0.312133  -0.543597  0  2.333293  0
O  O141  1  0.16102767  0.61176816  0.91964615  1  -1.156736  0  -0.314638  -0.557322  0  2.364399  0
O  O142  1  0.31386045  0.65363624  0.92036484  1  -1.168913  0  -0.313715  -0.548014  0  2.336599  0
O  O143  1  0.87629798  0.19274770  0.07336411  1  -1.159568  0  -0.307578  -0.534007  0  2.340062  0
O  O144  1  0.12758537  0.92749764  0.80676873  1  -1.167223  0  -0.307678  -0.53576  0  2.337999  0
O  O145  1  0.69873917  0.35511364  0.38045118  1  -1.151631  0  -0.304894  -0.528466  0  2.475965  0
O  O146  1  0.57905084  0.37034841  0.35921710  1  -1.164128  0  -0.30728  -0.529771  0  2.545996  0
O  O147  1  0.30069298  0.61706894  0.65246972  1  -1.170163  0  -0.305431  -0.529824  0  2.487472  0
O  O148  1  0.42113020  0.64595897  0.62359652  1  -1.16268  0  -0.307275  -0.526246  0  2.531888  0
O  O149  1  0.87284808  0.06966828  0.19707130  1  -1.165694  0  -0.305991  -0.533744  0  2.349767  0
O  O150  1  0.85947531  0.37666389  0.19454233  1  -1.144354  0  -0.31099  -0.541437  0  2.384674  0
O  O151  1  0.12332057  0.80270955  0.92868017  1  -1.168905  0  -0.305896  -0.534257  0  2.354298  0
O  O152  1  0.44016371  0.15528759  0.38502454  1  -1.066097  0  -0.212902  -0.24992  0  2.472013  0
O  O153  1  0.88935025  0.16179186  0.51079831  1  -1.076642  0  -0.20932  -0.245987  0  2.497336  0
O  O154  1  0.55973719  0.61415901  0.84404599  1  -1.076632  0  -0.212908  -0.250605  0  2.474623  0
O  O155  1  0.12754573  0.47149852  0.85076856  1  -1.072918  0  -0.210933  -0.247762  0  2.477473  0
