# generated using pymatgen
data_MnH6C9N3O4
_symmetry_space_group_name_H-M   'P 1'
_cell_length_a   6.37313625
_cell_length_b   11.16107100
_cell_length_c   15.09045644
_cell_angle_alpha   91.31148699
_cell_angle_beta   89.97280931
_cell_angle_gamma   106.60644569
_symmetry_Int_Tables_number   1
_chemical_formula_structural   MnH6C9N3O4
_chemical_formula_sum   'Mn4 H24 C36 N12 O16'
_cell_volume   1028.33853569
_cell_formula_units_Z   4
loop_
 _symmetry_equiv_pos_site_id
 _symmetry_equiv_pos_as_xyz
  1  'x, y, z'
loop_
 _atom_site_type_symbol
 _atom_site_label
 _atom_site_symmetry_multiplicity
 _atom_site_fract_x
 _atom_site_fract_y
 _atom_site_fract_z
 _atom_site_occupancy
 _atom_site_pbe_cm5_charge
 _atom_site_pbe_ddec_charge
 _atom_site_pbe_ddec_spin_density
 _atom_site_pbe_ddec_sum_bond_order
 _atom_site_pbe_magmom
Mn  Mn0  1  0.05453681  0.50978303  0.25355325  1  0.661572  1.04937  4.540282  2.508106  4.343
Mn  Mn1  1  0.54492789  0.49058481  0.24649871  1  0.662965  1.051296  4.528943  2.510841  4.339
Mn  Mn2  1  0.94547833  0.49023180  0.74643834  1  0.661657  1.049532  4.539984  2.508047  4.342
Mn  Mn3  1  0.45507976  0.50941506  0.75349260  1  0.663014  1.051328  4.528618  2.510953  4.338
H  H4  1  0.98861475  0.31700274  0.00180684  1  0.124574  0.132228  0.0004  0.977528  0.0
H  H5  1  0.67124423  0.68297224  0.49838533  1  0.124403  0.13173  0.000422  0.977178  0.0
H  H6  1  0.01139448  0.68298775  0.99819093  1  0.124545  0.132229  0.000402  0.977542  0.0
H  H7  1  0.32872736  0.31700889  0.50161360  1  0.12445  0.13182  0.000424  0.977083  0.0
H  H8  1  0.21197049  0.40879092  0.93945361  1  0.130905  0.149649  -0.0004  1.004012  0.001
H  H9  1  0.80263903  0.59113131  0.56065102  1  0.130924  0.149749  -0.000398  1.004397  0.001
H  H10  1  0.78803073  0.59120238  0.06054288  1  0.130922  0.149779  -0.000404  1.003952  0.001
H  H11  1  0.19734216  0.40884703  0.43934189  1  0.130947  0.149799  -0.000402  1.004398  0.001
H  H12  1  0.64957240  0.15338097  0.89091218  1  0.118598  0.128998  8.5e-05  1.016329  0.0
H  H13  1  0.49617660  0.84647813  0.60892963  1  0.118685  0.130162  8.8e-05  1.015688  0.0
H  H14  1  0.35042995  0.84661143  0.10907370  1  0.118469  0.12894  8.3e-05  1.016567  0.0
H  H15  1  0.50377779  0.15351880  0.39109477  1  0.118659  0.129945  8.8e-05  1.015568  0.0
H  H16  1  0.47888168  0.32531871  0.89462627  1  0.134149  0.111554  -0.000272  1.044751  0.0
H  H17  1  0.15335308  0.67455115  0.60531825  1  0.134217  0.111866  -0.00027  1.043647  0.0
H  H18  1  0.52112896  0.67467459  0.10536890  1  0.13424  0.111647  -0.000275  1.044669  0.0
H  H19  1  0.84660969  0.32543744  0.39468744  1  0.134262  0.111856  -0.000274  1.043702  0.0
H  H20  1  0.21074696  0.98462199  0.10430083  1  0.11792  0.135338  0.00018  1.042986  0.0
H  H21  1  0.22608003  0.01540648  0.39583403  1  0.117873  0.135446  0.000183  1.042261  0.0
H  H22  1  0.78925605  0.01535919  0.89568351  1  0.117889  0.135223  0.00018  1.043042  0.0
H  H23  1  0.77388608  0.98460448  0.60419196  1  0.117819  0.135447  0.000183  1.042337  0.0
H  H24  1  0.05248298  0.16076418  0.09604549  1  0.133385  0.120977  0.000384  1.019536  0.0
H  H25  1  0.89143009  0.83937072  0.40428571  1  0.133144  0.120049  0.000384  1.020666  0.0
H  H26  1  0.94753160  0.83922445  0.90394827  1  0.13338  0.120983  0.000385  1.019592  0.0
H  H27  1  0.10855491  0.16063095  0.59572354  1  0.133082  0.119995  0.000385  1.02072  0.0
C  C28  1  0.24635885  0.43879174  0.08152487  1  0.228513  0.623677  0.022407  4.139228  0.02
C  C29  1  0.80749876  0.56137158  0.41856787  1  0.227895  0.62231  0.022364  4.139868  0.02
C  C30  1  0.75365336  0.56120155  0.91847229  1  0.228443  0.623675  0.022411  4.139434  0.02
C  C31  1  0.19251170  0.43863390  0.58142222  1  0.227816  0.622262  0.022373  4.140142  0.02
C  C32  1  0.16710262  0.35364725  0.99926398  1  -0.052334  -0.250483  0.002415  3.824365  0.0
C  C33  1  0.81308366  0.64635219  0.50088331  1  -0.05217  -0.249826  0.002483  3.822611  0.0
C  C34  1  0.83290207  0.64634044  0.00073174  1  -0.052347  -0.250601  0.00242  3.824442  0.0
C  C35  1  0.18690565  0.35363924  0.49911316  1  -0.052263  -0.249956  0.002488  3.822606  0.0
C  C36  1  0.19804042  0.25559526  0.29006037  1  0.292923  0.579945  0.047052  4.328318  0.042
C  C37  1  0.94297009  0.74480896  0.21024082  1  0.29273  0.578663  0.047064  4.330961  0.042
C  C38  1  0.80196025  0.74440637  0.70996080  1  0.292681  0.579818  0.047078  4.328642  0.042
C  C39  1  0.05705142  0.25522174  0.78975769  1  0.292539  0.578555  0.047089  4.331639  0.042
C  C40  1  0.44977540  0.05143771  0.99861321  1  0.028824  0.117603  0.025225  3.932187  0.018
C  C41  1  0.39830176  0.94853354  0.50139837  1  0.02887  0.117973  0.02528  3.932203  0.018
C  C42  1  0.55023779  0.94854814  0.00137387  1  0.028839  0.117663  0.025215  3.932752  0.018
C  C43  1  0.60166295  0.05147462  0.49862558  1  0.028987  0.118085  0.025269  3.932003  0.018
C  C44  1  0.52061857  0.15013201  0.93895221  1  -0.061985  -0.137517  0.006633  3.881955  0.003
C  C45  1  0.37041620  0.84976849  0.56099211  1  -0.062251  -0.139892  0.00671  3.883354  0.003
C  C46  1  0.47938895  0.84986132  0.06103500  1  -0.06197  -0.137726  0.006638  3.8826  0.003
C  C47  1  0.62953977  0.15022846  0.43902832  1  -0.062106  -0.139212  0.006711  3.882543  0.003
C  C48  1  0.42708399  0.24739081  0.93932379  1  0.069251  0.054141  0.013376  3.817862  0.008
C  C49  1  0.17952286  0.75252612  0.56067984  1  0.069827  0.055758  0.013369  3.816494  0.008
C  C50  1  0.57292305  0.75260157  0.06066805  1  0.069285  0.054338  0.01337  3.817772  0.008
C  C51  1  0.82044067  0.24746712  0.43933190  1  0.069607  0.055503  0.013367  3.816557  0.008
C  C52  1  0.27743554  0.05620088  0.05599658  1  -0.065803  -0.148845  0.006451  3.917652  0.003
C  C53  1  0.22114660  0.94382568  0.44412410  1  -0.065549  -0.1486  0.006417  3.917674  0.003
C  C54  1  0.72257576  0.94379058  0.94399060  1  -0.065604  -0.148379  0.00645  3.917845  0.003
C  C55  1  0.77882142  0.05617968  0.55589847  1  -0.06541  -0.148675  0.006422  3.917675  0.003
C  C56  1  0.46900939  0.73001171  0.30804513  1  0.300602  0.60278  0.048374  4.290274  0.043
C  C57  1  0.73883534  0.27039955  0.19194202  1  0.300901  0.603326  0.048361  4.291047  0.043
C  C58  1  0.53099867  0.26999839  0.69195897  1  0.300611  0.602859  0.048392  4.290143  0.043
C  C59  1  0.26119160  0.72961064  0.80803888  1  0.300902  0.603153  0.048368  4.291049  0.043
C  C60  1  0.18694419  0.15409139  0.05330081  1  0.064749  0.043085  0.013828  3.823597  0.009
C  C61  1  0.03262581  0.84597535  0.44691684  1  0.064271  0.043304  0.01379  3.825498  0.009
C  C62  1  0.81306896  0.84590380  0.94669108  1  0.064608  0.042863  0.013825  3.823635  0.009
C  C63  1  0.96734772  0.15402536  0.55309901  1  0.064232  0.043403  0.013784  3.825355  0.009
N  N64  1  0.22008615  0.36517948  0.27812225  1  -0.462027  -0.751937  0.0671  3.318277  0.018
N  N65  1  0.85534874  0.63514216  0.22190963  1  -0.462324  -0.751202  0.067078  3.318732  0.018
N  N66  1  0.77991036  0.63481381  0.72187755  1  -0.461966  -0.751854  0.067105  3.318313  0.018
N  N67  1  0.14467201  0.36488389  0.77808084  1  -0.462335  -0.751174  0.067086  3.319067  0.018
N  N68  1  0.37480166  0.63951954  0.26306919  1  -0.467221  -0.754492  0.061216  3.300045  0.012
N  N69  1  0.73488868  0.36080982  0.23697068  1  -0.467011  -0.754279  0.061172  3.301011  0.012
N  N70  1  0.62522178  0.36049621  0.73692574  1  -0.467273  -0.754579  0.061249  3.299947  0.012
N  N71  1  0.26513762  0.63920222  0.76301622  1  -0.466989  -0.754157  0.061192  3.301109  0.012
N  N72  1  0.26142655  0.24847741  0.99554924  1  -0.207742  0.12264  0.020814  3.757777  0.022
N  N73  1  0.01266586  0.75154017  0.50461284  1  -0.207845  0.121329  0.020767  3.757344  0.022
N  N74  1  0.73858519  0.75151496  0.00444657  1  -0.207771  0.122427  0.020817  3.757607  0.022
N  N75  1  0.98730913  0.24845402  0.49539560  1  -0.207678  0.121232  0.020768  3.757325  0.022
O  O76  1  0.56870225  0.81980513  0.35155429  1  -0.244151  -0.418888  0.027263  2.222576  0.029
O  O77  1  0.74901214  0.18069840  0.14839440  1  -0.244996  -0.420112  0.02722  2.222886  0.029
O  O78  1  0.43128728  0.18019933  0.64846163  1  -0.2441  -0.418912  0.027273  2.222667  0.029
O  O79  1  0.25101321  0.81932115  0.85158336  1  -0.245014  -0.42006  0.027224  2.222632  0.029
O  O80  1  0.17876562  0.14709450  0.30331586  1  -0.246402  -0.413204  0.028499  2.206234  0.03
O  O81  1  0.03231920  0.85339384  0.19728622  1  -0.24591  -0.412276  0.028531  2.207367  0.031
O  O82  1  0.82123797  0.85290986  0.69672922  1  -0.246165  -0.41307  0.028514  2.20653  0.03
O  O83  1  0.96769962  0.14663777  0.80272026  1  -0.245702  -0.412167  0.028543  2.207766  0.031
O  O84  1  0.43950010  0.45099828  0.10953875  1  -0.302973  -0.560757  0.039963  2.300052  0.025
O  O85  1  0.98850863  0.54911683  0.39064812  1  -0.302498  -0.559925  0.040133  2.29805  0.025
O  O86  1  0.56051167  0.54898473  0.89045888  1  -0.302914  -0.560689  0.039985  2.299943  0.025
O  O87  1  0.01150932  0.45090361  0.60934159  1  -0.302444  -0.5599  0.04016  2.298154  0.025
O  O88  1  0.10760125  0.48899474  0.11339736  1  -0.295881  -0.536909  0.034436  2.285671  0.021
O  O89  1  0.61862543  0.51135770  0.38654023  1  -0.29579  -0.536051  0.034364  2.287878  0.021
O  O90  1  0.89242129  0.51100979  0.88659669  1  -0.295828  -0.536901  0.034465  2.285917  0.021
O  O91  1  0.38139071  0.48864031  0.61344642  1  -0.295814  -0.536098  0.034395  2.287951  0.021
