# generated using pymatgen
data_CuH12C18N2(O3F2)2
_symmetry_space_group_name_H-M   'P 1'
_cell_length_a   7.43880140
_cell_length_b   11.07003959
_cell_length_c   12.79573392
_cell_angle_alpha   90.00086686
_cell_angle_beta   90.00043435
_cell_angle_gamma   90.00087191
_symmetry_Int_Tables_number   1
_chemical_formula_structural   CuH12C18N2(O3F2)2
_chemical_formula_sum   'Cu2 H24 C36 N4 O12 F8'
_cell_volume   1053.70087018
_cell_formula_units_Z   2
loop_
 _symmetry_equiv_pos_site_id
 _symmetry_equiv_pos_as_xyz
  1  'x, y, z'
loop_
 _atom_site_type_symbol
 _atom_site_label
 _atom_site_symmetry_multiplicity
 _atom_site_fract_x
 _atom_site_fract_y
 _atom_site_fract_z
 _atom_site_occupancy
 _atom_site_hle17_ddec_charge
 _atom_site_hle17_ddec_spin_density
 _atom_site_hle17_ddec_sum_bond_order
 _atom_site_hle17_magmom
 _atom_site_hse06_10hf_ddec_charge
 _atom_site_hse06_10hf_ddec_spin_density
 _atom_site_hse06_10hf_ddec_sum_bond_order
 _atom_site_hse06_10hf_magmom
 _atom_site_hse06_ddec_charge
 _atom_site_hse06_ddec_spin_density
 _atom_site_hse06_ddec_sum_bond_order
 _atom_site_hse06_magmom
 _atom_site_pbe_cm5_charge
 _atom_site_pbe_ddec_charge
 _atom_site_pbe_ddec_spin_density
 _atom_site_pbe_ddec_sum_bond_order
 _atom_site_pbe_magmom
Cu  Cu0  1  0.50000286  0.68899545  0.50000272  1  0.916581  0.762513  1.742727  0.545  0.902807  0.834288  2.114643  0.666  0.984356  0.903406  2.060127  0.75  0.742575  0.849255  0.779722  2.1569  0.606
Cu  Cu1  1  0.00000485  0.31100521  0.00000125  1  0.916515  -0.762523  1.742776  -0.545  0.902809  -0.83429  2.114597  -0.666  0.98438  -0.903408  2.06002  -0.75  0.742579  0.849243  -0.779722  2.156849  -0.606
H  H2  1  0.21375164  0.66055169  0.63145431  1  0.42431  -5.3e-05  0.889242  -0.001  0.391647  0.000437  0.955916  0.0  0.404941  0.000295  0.937383  0.0  0.279295  0.382258  0.000547  0.968947  0.0
H  H3  1  0.78625210  0.66054691  0.36854920  1  0.424412  -5.3e-05  0.889108  -0.001  0.391691  0.000438  0.95589  0.0  0.40499  0.000295  0.937343  0.0  0.279321  0.382295  0.000547  0.968929  0.0
H  H4  1  0.71375351  0.33944998  0.86854874  1  0.42431  5.2e-05  0.889244  0.001  0.391678  -0.000437  0.955877  0.0  0.404973  -0.000295  0.937344  0.0  0.279286  0.382283  -0.000547  0.968917  0.0
H  H5  1  0.28625241  0.33945489  0.13146385  1  0.424407  5.3e-05  0.889094  0.001  0.391678  -0.000438  0.955871  0.0  0.404972  -0.000295  0.937339  0.0  0.279319  0.382283  -0.000547  0.96891  0.0
H  H6  1  0.40908291  0.63514856  0.68595789  1  0.425383  -0.000494  0.814185  -0.001  0.412061  0.000263  0.864419  0.0  0.421356  9.5e-05  0.85492  0.0  0.323242  0.40534  0.000402  0.871345  0.0
H  H7  1  0.59092026  0.63514714  0.31404450  1  0.425444  -0.000493  0.814114  -0.001  0.412131  0.000263  0.864322  0.0  0.421426  9.5e-05  0.854818  0.0  0.32327  0.405412  0.000402  0.871242  0.0
H  H8  1  0.90908061  0.36485421  0.81404054  1  0.425336  0.000491  0.81418  0.001  0.412045  -0.000263  0.86436  0.0  0.421341  -9.6e-05  0.854872  0.0  0.323257  0.405328  -0.000402  0.871283  0.0
H  H9  1  0.09092051  0.36485896  0.18596535  1  0.42549  0.000491  0.814061  0.001  0.412148  -0.000263  0.86432  0.0  0.421442  -9.6e-05  0.854819  0.0  0.323308  0.405427  -0.000402  0.871238  0.0
H  H10  1  0.56204891  0.87777510  0.34256255  1  0.100508  0.001136  0.945504  0.002  0.105665  0.000742  1.010244  0.002  0.109011  0.000495  1.005871  0.001  0.118534  0.103101  0.000892  1.013485  0.002
H  H11  1  0.43795032  0.87778174  0.65743754  1  0.100541  0.001126  0.945486  0.002  0.105631  0.000742  1.010312  0.002  0.109068  0.000495  1.005708  0.001  0.118565  0.103066  0.000892  1.013549  0.002
H  H12  1  0.06205138  0.12222258  0.15743856  1  0.100476  -0.001124  0.945515  -0.002  0.105638  -0.000742  1.010249  -0.002  0.108984  -0.000495  1.005882  -0.001  0.118543  0.103076  -0.000892  1.013487  -0.002
H  H13  1  0.93795368  0.12222133  0.84256337  1  0.100525  -0.001135  0.945461  -0.002  0.105655  -0.000742  1.010288  -0.002  0.109093  -0.000495  1.005619  -0.001  0.118542  0.103092  -0.000892  1.013522  -0.002
H  H14  1  0.56227270  0.10356011  0.33553875  1  0.116939  0.000615  0.977122  0.0  0.122772  0.000492  1.041072  0.0  0.126366  0.000337  1.039098  0.0  0.103453  0.120013  0.000537  1.042976  0.001
H  H15  1  0.43773193  0.10356596  0.66446060  1  0.117349  0.00062  0.976753  0.0  0.122715  0.000492  1.041121  0.0  0.127076  0.000337  1.038312  0.0  0.103425  0.11996  0.000537  1.043028  0.001
H  H16  1  0.06226986  0.89643758  0.16445847  1  0.116934  -0.000619  0.977182  0.0  0.122754  -0.000492  1.041135  0.0  0.12635  -0.000337  1.039162  0.0  0.103434  0.119999  -0.000537  1.04304  -0.001
H  H17  1  0.93773382  0.89643620  0.83553562  1  0.116873  -0.000616  0.977146  0.0  0.122732  -0.000492  1.041056  0.0  0.12635  -0.000337  1.03905  0.0  0.103435  0.119976  -0.000537  1.04296  -0.001
H  H18  1  0.36075034  0.27534992  0.35133844  1  0.116187  0.000532  0.943287  0.001  0.1245  0.000345  1.004154  0.0  0.127432  0.000231  1.003435  0.0  0.11037  0.122276  0.000346  1.005091  0.001
H  H19  1  0.63925414  0.27535667  0.64866784  1  0.116159  0.000528  0.943466  0.001  0.124511  0.000345  1.004276  0.0  0.127448  0.000231  1.003573  0.0  0.110388  0.122286  0.000345  1.005216  0.001
H  H20  1  0.86074995  0.72464902  0.14865774  1  0.116159  -0.000529  0.943342  -0.001  0.124481  -0.000345  1.004187  0.0  0.127413  -0.000231  1.00347  0.0  0.110371  0.122259  -0.000346  1.005121  -0.001
H  H21  1  0.13925389  0.72464514  0.85133097  1  0.116181  -0.000536  0.943419  -0.001  0.124524  -0.000345  1.004245  0.0  0.12746  -0.000231  1.003532  0.0  0.110373  0.122299  -0.000345  1.005184  -0.001
H  H22  1  0.35712736  0.50083699  0.36114630  1  0.098036  0.001359  0.95835  0.003  0.104321  0.000907  1.021729  0.002  0.10773  0.000632  1.017035  0.001  0.121498  0.101495  0.00105  1.025342  0.002
H  H23  1  0.64287951  0.50084540  0.63886058  1  0.098129  0.001358  0.958176  0.003  0.104194  0.000907  1.021765  0.002  0.10766  0.000632  1.01699  0.001  0.121481  0.101381  0.001051  1.025361  0.002
H  H24  1  0.85712983  0.49916102  0.13885221  1  0.098081  -0.001362  0.958303  -0.003  0.104281  -0.000907  1.021769  -0.002  0.107748  -0.000633  1.017003  -0.001  0.121494  0.101456  -0.001051  1.025381  -0.002
H  H25  1  0.14287834  0.49915644  0.86114059  1  0.09814  -0.001355  0.958225  -0.003  0.104234  -0.000907  1.021784  -0.002  0.107702  -0.000632  1.017016  -0.001  0.121483  0.101421  -0.001051  1.025383  -0.002
C  C26  1  0.53379810  0.93203734  0.41147019  1  0.132754  -0.006517  3.689991  -0.007  0.100609  -0.000254  3.957296  -0.001  0.10959  -0.001381  3.976262  -0.002  0.044256  0.094356  0.000518  3.944905  0.0
C  C27  1  0.46620638  0.93204306  0.58853140  1  0.133136  -0.006486  3.68985  -0.007  0.100955  -0.000254  3.95728  -0.001  0.110057  -0.001382  3.975946  -0.002  0.044404  0.094701  0.000518  3.944892  0.0
C  C28  1  0.03379577  0.06796276  0.08852924  1  0.132998  0.006468  3.690113  0.007  0.100892  0.000254  3.957294  0.001  0.109877  0.001381  3.976303  0.002  0.044372  0.094637  -0.000517  3.944908  0.0
C  C29  1  0.96620538  0.06795850  0.91146807  1  0.133143  0.0065  3.689308  0.007  0.100692  0.000254  3.957168  0.001  0.110098  0.001378  3.975229  0.002  0.044301  0.094437  -0.000519  3.944781  0.0
C  C30  1  0.53348980  0.05739003  0.40850723  1  -0.166196  0.010127  3.710334  0.011  -0.190254  0.003475  3.968576  0.004  -0.199149  0.002969  3.989359  0.004  -0.087589  -0.184535  0.003898  3.955457  0.005
C  C31  1  0.46651783  0.05739490  0.59149151  1  -0.166197  0.010107  3.709861  0.011  -0.190303  0.003475  3.968628  0.004  -0.198888  0.00297  3.988211  0.004  -0.087597  -0.184589  0.003898  3.955516  0.005
C  C32  1  0.03348435  0.94260916  0.09149064  1  -0.166327  -0.010108  3.710416  -0.011  -0.190337  -0.003476  3.968618  -0.004  -0.199227  -0.002968  3.989412  -0.004  -0.08757  -0.18462  -0.003899  3.955509  -0.005
C  C33  1  0.96651634  0.94260846  0.90850483  1  -0.166029  -0.010117  3.710031  -0.011  -0.19023  -0.003476  3.968629  -0.004  -0.198904  -0.002967  3.988773  -0.004  -0.087591  -0.184515  -0.003898  3.955515  -0.005
C  C34  1  0.50000993  0.12273460  0.49999902  1  0.099751  -0.007106  3.777896  -0.007  0.109526  -0.002041  4.014495  -0.002  0.114809  -0.002241  4.035612  -0.002  0.010522  0.105706  -0.002035  4.000914  -0.002
C  C35  1  0.99999874  0.87726640  0.99999669  1  0.099808  0.007108  3.777777  0.007  0.10951  0.002042  4.014499  0.002  0.114801  0.00224  4.035574  0.002  0.010521  0.10569  0.002035  4.000921  0.002
C  C36  1  0.50000471  0.25584614  0.50000067  1  0.101187  -0.008904  3.749667  -0.008  0.110758  -0.002301  3.982961  -0.002  0.11414  -0.002553  4.005233  -0.003  0.014992  0.108289  -0.002221  3.968517  -0.002
C  C37  1  0.00000281  0.74415243  0.99999440  1  0.101195  0.008892  3.749395  0.008  0.110723  0.002301  3.982802  0.002  0.114105  0.002553  4.00505  0.003  0.014973  0.108253  0.002221  3.968357  0.002
C  C38  1  0.42375606  0.32105707  0.41723193  1  -0.137478  0.012167  3.679224  0.013  -0.157681  0.003808  3.925065  0.005  -0.165573  0.003295  3.946262  0.004  -0.073886  -0.152639  0.004207  3.911597  0.005
C  C39  1  0.57625079  0.32106021  0.58277494  1  -0.137567  0.012172  3.679322  0.013  -0.157807  0.003809  3.925049  0.005  -0.165698  0.003294  3.94629  0.004  -0.073903  -0.152769  0.004208  3.911594  0.005
C  C40  1  0.92375512  0.67894162  0.08276687  1  -0.13747  -0.012176  3.6792  -0.013  -0.157639  -0.003808  3.925024  -0.005  -0.165535  -0.003296  3.946234  -0.004  -0.073864  -0.1526  -0.004208  3.91156  -0.005
C  C41  1  0.07624769  0.67893824  0.91722281  1  -0.137586  -0.012149  3.679303  -0.013  -0.157807  -0.003808  3.92506  -0.005  -0.165702  -0.003295  3.94629  -0.004  -0.073899  -0.152766  -0.004208  3.911603  -0.005
C  C42  1  0.42330984  0.44633217  0.42079488  1  0.13212  -0.007866  3.67795  -0.008  0.10485  -0.000357  3.931  -0.001  0.113911  -0.001636  3.949328  -0.002  0.050995  0.098543  0.000579  3.919357  0.0
C  C43  1  0.57669580  0.44633615  0.57921051  1  0.132215  -0.007857  3.677828  -0.008  0.105221  -0.000357  3.930769  -0.001  0.11425  -0.001636  3.949049  -0.002  0.051117  0.09891  0.000579  3.919139  0.0
C  C44  1  0.92331007  0.55366832  0.07920471  1  0.132153  0.007878  3.678007  0.008  0.104947  0.000357  3.931041  0.001  0.113968  0.001636  3.949341  0.002  0.050985  0.098638  -0.000579  3.919397  0.0
C  C45  1  0.07669395  0.55366410  0.92078958  1  0.132076  0.007852  3.67805  0.008  0.10508  0.000356  3.930965  0.001  0.114108  0.001636  3.949269  0.002  0.051027  0.098766  -0.000579  3.919335  0.0
C  C46  1  0.89977909  0.69886198  0.60531454  1  0.6795  -0.001611  3.91384  -0.002  0.632128  -0.000312  4.225672  -0.001  0.667235  -0.000251  4.215316  0.0  0.20586  0.607966  -0.000383  4.231595  -0.001
C  C47  1  0.10022283  0.69885964  0.39468399  1  0.679506  -0.001616  3.913893  -0.002  0.632102  -0.000311  4.225787  -0.001  0.66721  -0.000252  4.215425  0.0  0.205785  0.607934  -0.000383  4.231708  -0.001
C  C48  1  0.39977121  0.30113798  0.89468932  1  0.679391  0.001609  3.913789  0.002  0.631976  0.00031  4.225825  0.001  0.667331  0.00025  4.214774  0.0  0.205733  0.607817  0.000383  4.231743  0.001
C  C49  1  0.60022443  0.30113662  0.10531808  1  0.679529  0.001601  3.913881  0.002  0.632208  0.000309  4.225601  0.001  0.667318  0.000251  4.215266  0.0  0.205881  0.608038  0.000383  4.231528  0.001
C  C50  1  0.95492735  0.81446208  0.54843865  1  -0.130731  0.000237  3.710644  0.0  -0.137653  -8.3e-05  3.978295  0.0  -0.141721  -0.000123  3.995223  0.0  -0.020052  -0.135395  5e-06  3.967471  0.0
C  C51  1  0.04507583  0.81446107  0.45156061  1  -0.130726  0.000221  3.710731  0.0  -0.137654  -8.8e-05  3.978413  0.0  -0.141719  -0.000113  3.995338  0.0  -0.020076  -0.135392  5e-06  3.967582  0.0
C  C52  1  0.45491492  0.18553665  0.95155998  1  -0.130682  -0.000238  3.710362  0.0  -0.137767  8.3e-05  3.978497  0.0  -0.141402  0.000123  3.994075  0.0  -0.0201  -0.135505  -5e-06  3.967667  0.0
C  C53  1  0.54507140  0.18554005  0.04843887  1  -0.130936  -0.000229  3.710791  0.0  -0.137582  8.9e-05  3.97814  0.0  -0.141637  0.000116  3.995121  0.0  -0.020107  -0.135316  -5e-06  3.967319  0.0
C  C54  1  0.91384432  0.92519448  0.59447729  1  0.193157  -0.000168  3.791485  0.0  0.155216  -4.6e-05  4.093742  0.0  0.16481  -3.4e-05  4.102273  0.0  0.085457  0.148479  -2.4e-05  4.088295  0.0
C  C55  1  0.08614926  0.92518948  0.40552030  1  0.193112  -0.000148  3.791436  0.0  0.155142  -4.3e-05  4.093781  0.0  0.164726  -4.3e-05  4.102314  0.0  0.085441  0.148408  -2.4e-05  4.088331  0.0
C  C56  1  0.41383552  0.07480834  0.90552039  1  0.194621  0.000153  3.789721  0.0  0.155371  4.3e-05  4.093807  0.0  0.16698  3.6e-05  4.100778  0.0  0.08564  0.148637  2.4e-05  4.088357  0.0
C  C57  1  0.58614428  0.07480574  0.09447467  1  0.193067  0.000176  3.79169  0.0  0.155125  4.1e-05  4.093841  0.0  0.164709  3.9e-05  4.10248  0.0  0.085441  0.148387  2.4e-05  4.088399  0.0
C  C58  1  0.95776715  0.03533480  0.54852422  1  0.112115  9.3e-05  3.83968  0.0  0.079862  -1.2e-05  4.147633  0.0  0.087642  -2.1e-05  4.154819  0.0  0.079866  0.074347  3.2e-05  4.143129  0.0
C  C59  1  0.04222654  0.03533376  0.45147501  1  0.112053  8e-05  3.839633  0.0  0.079777  -1.4e-05  4.147648  0.0  0.087551  -1.1e-05  4.154843  0.0  0.079848  0.074262  3.2e-05  4.143144  0.0
C  C60  1  0.45776017  0.96466215  0.95146818  1  0.112235  -7.7e-05  3.839008  0.0  0.07984  1.6e-05  4.147506  0.0  0.088131  1.6e-05  4.153128  0.0  0.079848  0.074328  -3.2e-05  4.143002  0.0
C  C61  1  0.54222354  0.96466643  0.04852289  1  0.111847  -0.000103  3.839914  0.0  0.079825  1.5e-05  4.147648  0.0  0.087602  1.6e-05  4.15492  0.0  0.079869  0.074311  -3.2e-05  4.14315  0.0
N  N62  1  0.50000356  0.87014204  0.50000078  1  -0.302199  0.082445  3.326244  0.101  -0.255736  0.050369  3.621758  0.066  -0.288806  0.040543  3.649351  0.056  -0.344444  -0.23392  0.05724  3.603981  0.073
N  N63  1  0.00000012  0.12985681  0.00000085  1  -0.302206  -0.08242  3.326158  -0.101  -0.255714  -0.050369  3.621698  -0.066  -0.288732  -0.040541  3.649067  -0.056  -0.344438  -0.233898  -0.057238  3.603921  -0.073
N  N64  1  0.50000351  0.50782265  0.50000466  1  -0.297385  0.09394  3.33102  0.116  -0.253787  0.055395  3.621643  0.074  -0.286109  0.044073  3.646951  0.062  -0.343157  -0.232814  0.062748  3.605421  0.081
N  N65  1  0.00000266  0.49217862  0.99999901  1  -0.297377  -0.093947  3.331179  -0.116  -0.253747  -0.055397  3.621729  -0.074  -0.286078  -0.044075  3.647067  -0.062  -0.343056  -0.232772  -0.062751  3.605503  -0.081
O  O66  1  0.02295844  0.62652284  0.63369973  1  -0.607389  0.004342  1.931367  0.006  -0.561345  0.001551  2.137329  0.002  -0.585031  0.000677  2.124735  0.001  -0.327765  -0.543834  0.002934  2.144934  0.004
O  O67  1  0.97704319  0.62651728  0.36629630  1  -0.607454  0.00434  1.931289  0.006  -0.561367  0.001551  2.137293  0.002  -0.585058  0.00068  2.124693  0.001  -0.327759  -0.543857  0.002936  2.144906  0.004
O  O68  1  0.52295298  0.37347867  0.86630795  1  -0.607487  -0.004331  1.931369  -0.006  -0.561307  -0.001547  2.137308  -0.002  -0.58498  -0.00068  2.124612  -0.001  -0.327654  -0.543802  -0.002935  2.144923  -0.004
O  O69  1  0.47704967  0.37347383  0.13370977  1  -0.607474  -0.004337  1.931373  -0.006  -0.561384  -0.001549  2.137338  -0.002  -0.585071  -0.000677  2.124746  -0.001  -0.327769  -0.543877  -0.002935  2.144961  -0.004
O  O70  1  0.73403191  0.68545121  0.62177895  1  -0.632146  0.010157  1.999762  0.015  -0.611709  0.003517  2.259695  0.006  -0.638977  0.001427  2.246013  0.003  -0.329403  -0.591066  0.006858  2.267899  0.01
O  O71  1  0.26596836  0.68545209  0.37822019  1  -0.632059  0.010161  1.999692  0.015  -0.611686  0.003517  2.259696  0.006  -0.638944  0.001426  2.246  0.003  -0.329349  -0.591043  0.006858  2.267903  0.01
O  O72  1  0.23402547  0.31455248  0.87822496  1  -0.631843  -0.01017  1.999307  -0.015  -0.611631  -0.003521  2.259676  -0.006  -0.638566  -0.001426  2.245325  -0.003  -0.32941  -0.590983  -0.006862  2.267866  -0.01
O  O73  1  0.76597317  0.31454769  0.12177480  1  -0.63208  -0.010157  1.999653  -0.015  -0.611719  -0.003518  2.25962  -0.006  -0.638995  -0.001429  2.245936  -0.003  -0.329394  -0.591073  -0.006861  2.267827  -0.01
O  O74  1  0.34830189  0.68823525  0.63668387  1  -0.804886  0.061538  1.919536  0.079  -0.776215  0.043357  2.131033  0.061  -0.808224  0.033129  2.102316  0.049  -0.566478  -0.754492  0.050295  2.151502  0.067
O  O75  1  0.65170248  0.68822719  0.36332625  1  -0.804994  0.061537  1.919393  0.079  -0.776326  0.043355  2.130923  0.061  -0.808336  0.03313  2.102212  0.049  -0.566552  -0.754603  0.050295  2.1514  0.067
O  O76  1  0.84830038  0.31176690  0.86331586  1  -0.804883  -0.061524  1.919524  -0.079  -0.776216  -0.043351  2.130938  -0.061  -0.808228  -0.033125  2.102224  -0.049  -0.566489  -0.754487  -0.050289  2.151395  -0.067
O  O77  1  0.15169820  0.31177593  0.13668621  1  -0.805106  -0.061524  1.919347  -0.079  -0.776383  -0.043349  2.130934  -0.061  -0.808394  -0.033125  2.102227  -0.049  -0.566609  -0.754659  -0.05029  2.151406  -0.067
F  F78  1  0.82762948  0.92987325  0.68823416  1  -0.171055  -5.9e-05  1.268142  0.0  -0.108998  -4.1e-05  1.427648  0.0  -0.117612  -2.9e-05  1.417892  0.0  -0.076522  -0.10266  -4.7e-05  1.434338  0.0
F  F79  1  0.17236151  0.92986930  0.31176271  1  -0.170981  -5.9e-05  1.268188  0.0  -0.108947  -4e-05  1.427711  0.0  -0.117562  -3e-05  1.417969  0.0  -0.076497  -0.10261  -4.7e-05  1.434399  0.0
F  F80  1  0.32760994  0.07012416  0.81176235  1  -0.171944  6.2e-05  1.267948  0.0  -0.109077  3.9e-05  1.427653  0.0  -0.12371  3e-05  1.423681  0.0  -0.076627  -0.102742  4.7e-05  1.434343  0.0
F  F81  1  0.67236168  0.07012861  0.18823577  1  -0.170986  5.7e-05  1.26806  0.0  -0.108966  4e-05  1.427596  0.0  -0.117581  2.9e-05  1.417856  0.0  -0.076496  -0.102624  4.7e-05  1.434286  0.0
F  F82  1  0.91964826  0.14080710  0.59689563  1  -0.140577  5.7e-05  1.225715  0.0  -0.096687  1.8e-05  1.386776  0.0  -0.103052  1.2e-05  1.376382  0.0  -0.081484  -0.091937  2.4e-05  1.393798  0.0
F  F83  1  0.08034377  0.14080470  0.40310498  1  -0.140522  5.6e-05  1.225767  0.0  -0.096635  1.7e-05  1.386853  0.0  -0.103004  1.3e-05  1.376468  0.0  -0.081453  -0.091884  2.4e-05  1.393873  0.0
F  F84  1  0.41964904  0.85919036  0.90310207  1  -0.140525  -5.5e-05  1.225668  0.0  -0.09667  -1.8e-05  1.386977  0.0  -0.102785  -1.4e-05  1.37609  0.0  -0.081469  -0.09192  -2.4e-05  1.393997  0.0
F  F85  1  0.58033633  0.85919498  0.09689231  1  -0.140591  -5.6e-05  1.225789  0.0  -0.096674  -1.8e-05  1.386798  0.0  -0.103042  -1.4e-05  1.376432  0.0  -0.081468  -0.091922  -2.4e-05  1.39382  0.0
