# generated using pymatgen
data_CuH24C24S2(N3O4)2
_symmetry_space_group_name_H-M   'P 1'
_cell_length_a   5.63066901
_cell_length_b   7.12248800
_cell_length_c   15.52012172
_cell_angle_alpha   102.64024974
_cell_angle_beta   98.94514679
_cell_angle_gamma   92.73710154
_symmetry_Int_Tables_number   1
_chemical_formula_structural   CuH24C24S2(N3O4)2
_chemical_formula_sum   'Cu1 H24 C24 S2 N6 O8'
_cell_volume   597.78936618
_cell_formula_units_Z   1
loop_
 _symmetry_equiv_pos_site_id
 _symmetry_equiv_pos_as_xyz
  1  'x, y, z'
loop_
 _atom_site_type_symbol
 _atom_site_label
 _atom_site_symmetry_multiplicity
 _atom_site_fract_x
 _atom_site_fract_y
 _atom_site_fract_z
 _atom_site_occupancy
 _atom_site_hle17_ddec_charge
 _atom_site_hle17_ddec_spin_density
 _atom_site_hle17_ddec_sum_bond_order
 _atom_site_hle17_magmom
 _atom_site_hse06_10hf_ddec_charge
 _atom_site_hse06_10hf_ddec_spin_density
 _atom_site_hse06_10hf_ddec_sum_bond_order
 _atom_site_hse06_10hf_magmom
 _atom_site_hse06_ddec_charge
 _atom_site_hse06_ddec_spin_density
 _atom_site_hse06_ddec_sum_bond_order
 _atom_site_hse06_magmom
 _atom_site_pbe_cm5_charge
 _atom_site_pbe_ddec_charge
 _atom_site_pbe_ddec_spin_density
 _atom_site_pbe_ddec_sum_bond_order
 _atom_site_pbe_magmom
Cu  Cu0  1  0.49999608  0.50000346  0.00000039  1  0.933414  0.65289  1.537121  0.434  0.949111  0.771651  1.892676  0.599  1.037715  0.861965  1.838539  0.702  0.697559  0.893839  0.705745  1.935215  0.531
H  H1  1  0.01637788  0.29272032  0.69161606  1  0.102439  0.000643  0.980765  0.001  0.107298  -8e-05  1.050828  0.0  0.109322  -7.9e-05  1.050636  0.0  0.103884  0.105634  -5.3e-05  1.051205  0.0
H  H2  1  0.98361758  0.70727365  0.30838412  1  0.102423  0.000643  0.980775  0.001  0.107294  -8e-05  1.050826  0.0  0.109321  -7.9e-05  1.050624  0.0  0.103889  0.105629  -5.4e-05  1.051203  0.0
H  H3  1  0.29890109  0.62024087  0.77722446  1  0.108604  -0.001618  0.97446  -0.002  0.115857  -9.7e-05  1.039262  0.0  0.117926  -9.6e-05  1.040657  0.0  0.102108  0.114277  -8.7e-05  1.03861  0.0
H  H4  1  0.70109644  0.37976888  0.22277094  1  0.108584  -0.001618  0.974448  -0.002  0.115904  -9.7e-05  1.039188  0.0  0.117973  -9.5e-05  1.040581  0.0  0.102098  0.11432  -8.7e-05  1.038534  0.0
H  H5  1  0.58457189  0.76773474  0.92013459  1  0.336508  -0.000864  0.886368  -0.001  0.322086  -0.000282  0.946243  0.0  0.329437  -0.000611  0.941072  -0.001  0.30581  0.316867  -4.1e-05  0.950149  0.0
H  H6  1  0.41542970  0.23226486  0.07986262  1  0.336506  -0.000864  0.88636  -0.001  0.32208  -0.000282  0.94627  0.0  0.32943  -0.000611  0.941099  -0.001  0.305769  0.316857  -4.1e-05  0.950183  0.0
H  H7  1  0.30385045  0.46246279  0.61751956  1  0.105855  0.000513  0.960568  0.001  0.106542  -0.000166  1.038193  0.0  0.109606  -0.000146  1.035875  0.0  0.104582  0.104047  -0.000169  1.04029  0.0
H  H8  1  0.69613877  0.53753844  0.38247711  1  0.105927  0.000513  0.960589  0.001  0.106588  -0.000166  1.038216  0.0  0.109654  -0.000146  1.035899  0.0  0.104603  0.10409  -0.000169  1.040314  0.0
H  H9  1  0.83400765  0.65947124  0.94966172  1  0.318104  -0.000918  0.896411  -0.002  0.303736  1e-05  0.959192  -0.001  0.31105  -0.000394  0.953899  -0.001  0.300411  0.298561  0.000348  0.963191  0.0
H  H10  1  0.16599017  0.34052697  0.05033515  1  0.318102  -0.000918  0.896491  -0.002  0.303728  1e-05  0.959285  -0.001  0.311053  -0.000394  0.953961  -0.001  0.300424  0.298555  0.000348  0.963284  0.0
H  H11  1  0.23333729  0.76406661  0.95941471  1  0.426285  -0.000241  0.884669  -0.001  0.398047  0.000128  0.945527  0.0  0.410427  -2.5e-05  0.927704  0.0  0.296092  0.389412  0.00025  0.957941  0.0
H  H12  1  0.76666183  0.23594178  0.04058773  1  0.426185  -0.000241  0.884811  -0.001  0.397879  0.000128  0.945732  0.0  0.410274  -2.5e-05  0.927894  0.0  0.296033  0.389253  0.00025  0.958125  0.0
H  H13  1  0.19801839  0.75793497  0.05640105  1  0.432482  -0.000101  0.854755  0.0  0.4081  0.000225  0.916452  0.0  0.419714  9.1e-05  0.899891  0.0  0.301268  0.399908  0.000324  0.92817  0.001
H  H14  1  0.80198054  0.24207196  0.94360060  1  0.432378  -0.000101  0.85479  0.0  0.40796  0.000226  0.916623  0.0  0.419575  9.1e-05  0.900061  0.0  0.301213  0.399765  0.000325  0.928346  0.001
H  H15  1  0.00789807  0.44029364  0.85116452  1  0.120975  -0.001552  0.979205  -0.002  0.126802  -0.000222  1.043387  0.0  0.129413  -0.000174  1.042801  0.0  0.104982  0.124926  -0.000243  1.043916  0.0
H  H16  1  0.99209077  0.55970478  0.14883637  1  0.121013  -0.001552  0.979183  -0.002  0.126805  -0.000223  1.043412  0.0  0.129417  -0.000174  1.042822  0.0  0.104982  0.124929  -0.000243  1.043939  0.0
H  H17  1  0.50094034  0.03621040  0.41603896  1  0.105451  -0.000899  0.970257  -0.001  0.110192  -7.2e-05  1.040241  0.0  0.113104  -9.4e-05  1.039183  0.0  0.105968  0.107888  -5.2e-05  1.041471  0.0
H  H18  1  0.49906399  0.96379641  0.58396040  1  0.10545  -0.000898  0.970049  -0.001  0.110212  -7.2e-05  1.040036  0.0  0.113124  -9.4e-05  1.038979  0.0  0.105991  0.107904  -5.3e-05  1.041265  0.0
H  H19  1  0.21615401  0.17702238  0.28070810  1  0.101595  0.000308  0.975669  0.001  0.108852  9e-06  1.042024  0.0  0.111034  -3.6e-05  1.042588  0.0  0.102695  0.107191  4e-05  1.041862  0.0
H  H20  1  0.78385222  0.82297140  0.71929139  1  0.101639  0.000308  0.975586  0.001  0.108901  9e-06  1.04194  0.0  0.111084  -3.6e-05  1.042502  0.0  0.102688  0.107238  4e-05  1.041783  0.0
H  H21  1  0.50066792  0.90199523  0.25286718  1  0.108825  0.000227  0.9542  0.0  0.11624  1.3e-05  1.018438  0.0  0.118946  -8e-06  1.017926  0.0  0.105427  0.114246  2e-05  1.019031  0.0
H  H22  1  0.49934010  0.09799855  0.74713435  1  0.108869  0.000227  0.954207  0.0  0.116372  1.3e-05  1.018338  0.0  0.119082  -8e-06  1.017815  0.0  0.105434  0.114365  2e-05  1.018946  0.0
H  H23  1  0.21911763  0.30338016  0.44490849  1  0.105909  -0.000624  0.962703  -0.001  0.105482  4.5e-05  1.042912  0.0  0.109532  1.1e-05  1.039809  0.0  0.104317  0.102378  0.000106  1.045549  0.0
H  H24  1  0.78088416  0.69662088  0.55508888  1  0.105891  -0.000624  0.9627  -0.001  0.105474  4.5e-05  1.042907  0.0  0.109524  1.1e-05  1.039805  0.0  0.104308  0.102385  0.000106  1.045528  0.0
C  C25  1  0.65576239  0.54523858  0.82410371  1  0.307046  -0.023625  3.722475  -0.021  0.295511  -0.010834  3.985805  -0.009  0.303646  -0.015501  4.01002  -0.012  0.09502  0.290971  -0.005681  3.969074  -0.006
C  C26  1  0.34423430  0.45475104  0.17589741  1  0.306826  -0.02362  3.722752  -0.021  0.295321  -0.010833  3.986072  -0.009  0.30345  -0.015496  4.010294  -0.012  0.094941  0.290783  -0.00568  3.969331  -0.006
C  C27  1  0.66523584  0.37619302  0.64432420  1  0.141908  0.050744  3.827597  0.046  0.141452  0.01421  4.079347  0.014  0.135845  0.01079  4.107394  0.012  0.084326  0.144785  0.016592  4.060263  0.016
C  C28  1  0.33475895  0.62380959  0.35567357  1  0.14193  0.050738  3.827611  0.046  0.141506  0.014209  4.079319  0.014  0.135899  0.010789  4.107366  0.012  0.08429  0.144834  0.016591  4.060236  0.016
C  C29  1  0.45558592  0.54892690  0.75832031  1  -0.142411  0.046042  3.680583  0.039  -0.164743  0.014586  3.934565  0.014  -0.172873  0.011855  3.959079  0.012  -0.091232  -0.159936  0.016051  3.918445  0.014
C  C30  1  0.54439753  0.45107155  0.24167705  1  -0.142376  0.04602  3.680984  0.039  -0.164771  0.014582  3.934942  0.014  -0.172901  0.011851  3.959457  0.012  -0.091233  -0.159962  0.016047  3.91881  0.014
C  C31  1  0.86147863  0.36635992  0.71092757  1  -0.105598  -0.042083  3.721104  -0.03  -0.123818  -0.010077  3.970854  -0.007  -0.12351  -0.011965  3.994215  -0.008  -0.081021  -0.123432  -0.007703  3.9551  -0.005
C  C32  1  0.13852674  0.63364111  0.28907258  1  -0.105662  -0.04208  3.721288  -0.03  -0.123894  -0.010074  3.971049  -0.007  -0.123587  -0.01196  3.994414  -0.008  -0.08106  -0.123505  -0.007702  3.955287  -0.005
C  C33  1  0.85570351  0.44897581  0.79993152  1  -0.158899  0.041009  3.700812  0.035  -0.182818  0.012531  3.960464  0.012  -0.191417  0.010506  3.984357  0.011  -0.096088  -0.177482  0.013228  3.944473  0.012
C  C34  1  0.14427202  0.55101695  0.20006355  1  -0.158859  0.041024  3.700635  0.035  -0.182766  0.012535  3.960294  0.012  -0.191367  0.010508  3.984193  0.011  -0.096082  -0.177432  0.013232  3.944299  0.012
C  C35  1  0.45942834  0.46304629  0.66916637  1  -0.100246  -0.042675  3.699305  -0.03  -0.116259  -0.009845  3.948658  -0.007  -0.116711  -0.011687  3.971632  -0.008  -0.073447  -0.115551  -0.007719  3.933573  -0.006
C  C36  1  0.54057325  0.53695332  0.33083149  1  -0.100246  -0.042672  3.699241  -0.03  -0.11623  -0.009846  3.948597  -0.007  -0.116685  -0.011687  3.971573  -0.008  -0.0734  -0.115527  -0.00772  3.93352  -0.006
C  C37  1  0.85528811  0.18527014  0.43862984  1  0.166998  -0.016596  3.802097  -0.014  0.172464  -0.002279  4.050083  -0.002  0.174881  -0.003127  4.07287  -0.002  0.090959  0.170977  -0.001657  4.034495  -0.002
C  C38  1  0.14472964  0.81472923  0.56136892  1  0.166837  -0.0166  3.802316  -0.014  0.172319  -0.002282  4.0503  -0.002  0.174734  -0.003126  4.07309  -0.002  0.090916  0.170832  -0.001657  4.034711  -0.002
C  C39  1  0.65414405  0.06838242  0.38527166  1  -0.120509  0.02033  3.692945  0.017  -0.140215  0.003505  3.940797  0.003  -0.144708  0.002919  3.962342  0.003  -0.080761  -0.137323  0.004482  3.926569  0.004
C  C40  1  0.34585283  0.93160863  0.61472833  1  -0.120329  0.020323  3.692976  0.017  -0.140039  0.003505  3.94083  0.003  -0.144528  0.002918  3.962368  0.003  -0.080729  -0.137161  0.004479  3.926646  0.004
C  C41  1  0.85600302  0.03711477  0.25776235  1  -0.121741  0.019586  3.743239  0.017  -0.098889  0.00294  3.988761  0.003  -0.107356  0.002526  4.010256  0.003  -0.016198  -0.09331  0.003879  3.974168  0.004
C  C42  1  0.14400443  0.96287473  0.74224195  1  -0.121582  0.019599  3.74271  0.017  -0.098728  0.002943  3.988255  0.003  -0.107195  0.002527  4.00975  0.003  -0.016092  -0.093153  0.00388  3.973668  0.004
C  C43  1  0.06088950  0.21948234  0.40168997  1  -0.108146  0.020054  3.670834  0.017  -0.12704  0.002998  3.919996  0.003  -0.131855  0.00269  3.94057  0.003  -0.076489  -0.123892  0.003714  3.906413  0.003
C  C44  1  0.93911172  0.78051441  0.59830953  1  -0.108089  0.020064  3.670708  0.017  -0.126997  0.003  3.919871  0.003  -0.131811  0.00269  3.940448  0.003  -0.076486  -0.123856  0.003715  3.906278  0.003
C  C45  1  0.05980980  0.14816413  0.31060074  1  -0.063704  -0.016746  3.747716  -0.012  -0.085541  -0.001883  3.993573  -0.001  -0.084431  -0.002346  4.015539  -0.002  -0.086117  -0.086029  -0.001731  3.97861  -0.001
C  C46  1  0.94020626  0.85182226  0.68939859  1  -0.063808  -0.01675  3.747733  -0.012  -0.085659  -0.001885  3.993621  -0.001  -0.08455  -0.002345  4.015587  -0.002  -0.086119  -0.086145  -0.00173  3.978665  -0.001
C  C47  1  0.65450366  0.99372537  0.29492431  1  -0.05491  -0.016258  3.738017  -0.012  -0.076408  -0.001691  3.985818  -0.001  -0.075219  -0.002173  4.005801  -0.002  -0.082359  -0.077044  -0.001551  3.972462  -0.001
C  C48  1  0.34551551  0.00627104  0.70507167  1  -0.055136  -0.016266  3.737985  -0.012  -0.076709  -0.001691  3.985767  -0.001  -0.075517  -0.002174  4.005748  -0.002  -0.082433  -0.077334  -0.00155  3.972418  -0.001
S  S49  1  0.84515872  0.95270480  0.14076315  1  1.318615  -0.000526  5.604651  -0.001  1.226239  -2.5e-05  6.113751  0.0  1.276716  -0.000104  6.086014  0.0  0.518975  1.191396  5.2e-05  6.131361  0.0
S  S50  1  0.15484541  0.04730060  0.85923864  1  1.318772  -0.000527  5.604673  -0.001  1.226357  -2.9e-05  6.113798  0.0  1.27683  -0.000104  6.086064  0.0  0.519095  1.19152  5.2e-05  6.131411  0.0
N  N51  1  0.65954635  0.63755346  0.91540286  1  -0.64039  0.084702  3.14138  0.097  -0.618279  0.055025  3.406269  0.071  -0.650848  0.043606  3.407121  0.062  -0.608201  -0.598973  0.058546  3.407483  0.071
N  N52  1  0.34044503  0.36245067  0.08459615  1  -0.640334  0.084702  3.141545  0.097  -0.618239  0.055024  3.406422  0.071  -0.6508  0.043607  3.407277  0.062  -0.608153  -0.598932  0.058547  3.407634  0.071
N  N53  1  0.65902646  0.29893116  0.55249185  1  -0.14716  -0.039172  3.003619  -0.035  -0.119294  -0.006713  3.28833  -0.006  -0.11629  -0.009256  3.296235  -0.008  -0.142597  -0.120275  -0.003398  3.282406  -0.004
N  N54  1  0.34097456  0.70106418  0.44751007  1  -0.147085  -0.039175  3.003554  -0.035  -0.119222  -0.006717  3.288246  -0.006  -0.116216  -0.009249  3.296148  -0.008  -0.142518  -0.1202  -0.0034  3.282324  -0.004
N  N55  1  0.86475504  0.27231124  0.52997728  1  -0.150995  0.048021  2.982117  0.052  -0.129059  0.011599  3.26642  0.014  -0.130586  0.009822  3.274993  0.013  -0.145505  -0.127716  0.014373  3.260213  0.017
N  N56  1  0.13524730  0.72769419  0.47002442  1  -0.151015  0.04801  2.982304  0.052  -0.129099  0.011599  3.26661  0.014  -0.130625  0.009814  3.275182  0.013  -0.145535  -0.127758  0.01437  3.260403  0.017
O  O57  1  0.21320602  0.66994099  0.99827208  1  -0.82319  0.043454  1.934816  0.052  -0.774383  0.039633  2.144273  0.055  -0.804138  0.032361  2.109957  0.049  -0.573524  -0.754808  0.042796  2.168823  0.056
O  O58  1  0.78678754  0.33006602  0.00172862  1  -0.823007  0.04345  1.934882  0.052  -0.774088  0.03963  2.144573  0.055  -0.803858  0.032358  2.11023  0.049  -0.573422  -0.754515  0.042793  2.169115  0.056
O  O59  1  0.71881857  0.75884104  0.11626435  1  -0.68904  -0.00014  2.035499  0.002  -0.650557  -0.000783  2.314899  0.001  -0.675241  -0.001388  2.298871  0.0  -0.343527  -0.63285  -0.000142  2.325578  0.001
O  O60  1  0.28117462  0.24116303  0.88373283  1  -0.689012  -0.00014  2.035537  0.002  -0.650554  -0.000781  2.314998  0.001  -0.675241  -0.001388  2.298977  0.0  -0.343492  -0.632824  -0.000142  2.325624  0.001
O  O61  1  0.09603635  0.95850172  0.12486922  1  -0.66322  0.001242  1.945416  0.001  -0.608777  0.00131  2.18408  0.002  -0.628601  0.000864  2.168362  0.001  -0.337826  -0.594596  0.001726  2.194412  0.002
O  O62  1  0.90396618  0.04150513  0.87513069  1  -0.663286  0.001242  1.945528  0.001  -0.608803  0.00131  2.184166  0.002  -0.628641  0.000864  2.168485  0.001  -0.337875  -0.594621  0.001726  2.194496  0.002
O  O63  1  0.70334103  0.09029309  0.09926123  1  -0.684089  0.001327  2.011309  0.002  -0.623339  0.000458  2.253378  0.001  -0.645647  0.000183  2.237068  0.0  -0.340691  -0.607136  0.000834  2.263943  0.001
O  O64  1  0.29666403  0.90971961  0.90074648  1  -0.684275  0.001328  2.011208  0.002  -0.623494  0.00046  2.253223  0.001  -0.645789  0.000184  2.23691  0.0  -0.340845  -0.607287  0.000834  2.263793  0.001
