# generated using pymatgen
data_DyH21C25N4O7
_symmetry_space_group_name_H-M   'P 1'
_cell_length_a   8.66764952
_cell_length_b   16.24274054
_cell_length_c   20.34570579
_cell_angle_alpha   93.68092080
_cell_angle_beta   89.99984164
_cell_angle_gamma   90.00027822
_symmetry_Int_Tables_number   1
_chemical_formula_structural   DyH21C25N4O7
_chemical_formula_sum   'Dy4 H84 C100 N16 O28'
_cell_volume   2858.48920737
_cell_formula_units_Z   4
loop_
 _symmetry_equiv_pos_site_id
 _symmetry_equiv_pos_as_xyz
  1  'x, y, z'
loop_
 _atom_site_type_symbol
 _atom_site_label
 _atom_site_symmetry_multiplicity
 _atom_site_fract_x
 _atom_site_fract_y
 _atom_site_fract_z
 _atom_site_occupancy
 _atom_site_pbe_bader_charge
 _atom_site_pbe_bader_spin_density
 _atom_site_pbe_cm5_charge
 _atom_site_pbe_ddec_charge
 _atom_site_pbe_ddec_spin_density
 _atom_site_pbe_ddec_sum_bond_order
 _atom_site_pbe_magmom
Dy  Dy0  1  0.78133770  0.75699312  0.28627609  1  2.201659  0  1.53966  2.137299  0  2.151882  0
Dy  Dy1  1  0.28133958  0.74301244  0.21371518  1  2.201523  0  1.53971  2.137413  0  2.151537  0
Dy  Dy2  1  0.21867741  0.24300151  0.71372149  1  2.201547  0  1.539731  2.13738  0  2.151753  0
Dy  Dy3  1  0.71866976  0.25699083  0.78628142  1  2.201557  0  1.539691  2.137382  0  2.151643  0
H  H4  1  0.24270591  0.78426361  0.37818468  1  0.110032  0  0.110524  0.119385  0  1.034491  0
H  H5  1  0.74270590  0.71572819  0.12181518  1  0.109923  0  0.110549  0.119353  0  1.034538  0
H  H6  1  0.75730227  0.21574266  0.62182095  1  0.109846  0  0.110509  0.119305  0  1.034608  0
H  H7  1  0.25730113  0.28425535  0.87818029  1  0.109927  0  0.110495  0.119254  0  1.034582  0
H  H8  1  0.04634249  0.85521190  0.45238103  1  0.103242  0  0.108466  0.107664  0  1.028665  0
H  H9  1  0.54634233  0.64477809  0.04762535  1  0.103358  0  0.108387  0.107623  0  1.028678  0
H  H10  1  0.95366570  0.14479746  0.54762429  1  0.103132  0  0.108513  0.107716  0  1.028797  0
H  H11  1  0.45366240  0.35520290  0.95237734  1  0.103188  0  0.108483  0.107684  0  1.02866  0
H  H12  1  0.33295524  0.07137825  0.47080835  1  0.085264  0  0.107679  0.113532  0  0.993195  0
H  H13  1  0.83295660  0.42861901  0.02918734  1  0.085369  0  0.107703  0.113495  0  0.993225  0
H  H14  1  0.66706102  0.92862501  0.52919022  1  0.085363  0  0.107694  0.113545  0  0.993104  0
H  H15  1  0.16705851  0.57137063  0.97081438  1  0.085453  0  0.107667  0.113453  0  0.993243  0
H  H16  1  0.53145639  0.99970613  0.39644430  1  0.100298  0  0.107403  0.114814  0  0.987556  0
H  H17  1  0.03146257  0.50029013  0.10355017  1  0.100942  0  0.107414  0.114801  0  0.987506  0
H  H18  1  0.46855988  0.00029279  0.60355599  1  0.100191  0  0.107377  0.114785  0  0.987601  0
H  H19  1  0.96855600  0.49970204  0.89644629  1  0.10043  0  0.107364  0.114834  0  0.987544  0
H  H20  1  0.36894849  0.51620688  0.13823097  1  0.134186  0  0.114791  0.125274  0  1.003281  0
H  H21  1  0.86895277  0.98380198  0.36176137  1  0.134586  0  0.114753  0.125356  0  1.003438  0
H  H22  1  0.63104585  0.48379394  0.86176402  1  0.134331  0  0.114784  0.125329  0  1.003309  0
H  H23  1  0.13103003  0.01620007  0.63823467  1  0.134521  0  0.114793  0.125383  0  1.003387  0
H  H24  1  0.35961663  0.36206948  0.11299822  1  0.091059  0  0.107939  0.11204  0  0.989993  0
H  H25  1  0.85964532  0.13793642  0.38700334  1  0.091007  0  0.107921  0.11195  0  0.990104  0
H  H26  1  0.64036848  0.63792878  0.88700547  1  0.091061  0  0.107911  0.111958  0  0.990007  0
H  H27  1  0.14035133  0.86206563  0.61299172  1  0.090945  0  0.107932  0.11198  0  0.99009  0
H  H28  1  0.76142515  0.33331494  0.23359061  1  0.102582  0  0.102126  0.105219  0  1.030698  0
H  H29  1  0.26145830  0.16669070  0.26641302  1  0.102583  0  0.102142  0.105207  0  1.030952  0
H  H30  1  0.23855073  0.66668395  0.76641213  1  0.102283  0  0.102154  0.105238  0  1.03079  0
H  H31  1  0.73854296  0.83330821  0.73358775  1  0.102401  0  0.102139  0.105196  0  1.030926  0
H  H32  1  0.77481117  0.48717057  0.25567903  1  0.116896  0  0.102047  0.107101  0  1.026075  0
H  H33  1  0.27482232  0.01283454  0.24431915  1  0.117118  0  0.102128  0.107173  0  1.026079  0
H  H34  1  0.22517163  0.51282771  0.74432319  1  0.116713  0  0.102106  0.107138  0  1.026083  0
H  H35  1  0.72516972  0.98716562  0.75567973  1  0.116966  0  0.102129  0.107149  0  1.025999  0
H  H36  1  0.38778844  0.96424464  0.11801570  1  0.091825  0  0.102784  0.101614  0  1.026867  0
H  H37  1  0.88778970  0.53576108  0.38198577  1  0.092024  0  0.102738  0.101616  0  1.026816  0
H  H38  1  0.61221514  0.03574925  0.88199265  1  0.092277  0  0.102833  0.101705  0  1.026884  0
H  H39  1  0.11223233  0.46424395  0.61802077  1  0.091737  0  0.1028  0.101698  0  1.026798  0
H  H40  1  0.40210107  0.11986310  0.12278164  1  0.106123  0  0.103774  0.104192  0  1.015745  0
H  H41  1  0.90212509  0.38014168  0.37722030  1  0.106238  0  0.103806  0.10425  0  1.015819  0
H  H42  1  0.59789211  0.88012896  0.87722513  1  0.106158  0  0.103786  0.104249  0  1.015661  0
H  H43  1  0.09789118  0.61986213  0.62278469  1  0.106276  0  0.103815  0.104241  0  1.015672  0
H  H44  1  0.82273604  0.11056317  0.23405456  1  0.116775  0  0.101888  0.104927  0  1.040789  0
H  H45  1  0.32274351  0.38945566  0.26594190  1  0.116462  0  0.101797  0.104881  0  1.040935  0
H  H46  1  0.17726869  0.88944318  0.76594272  1  0.116465  0  0.101802  0.10481  0  1.041053  0
H  H47  1  0.67726353  0.61054512  0.73405800  1  0.116513  0  0.101796  0.104827  0  1.041005  0
H  H48  1  0.80690742  0.95571440  0.22899543  1  0.113908  0  0.111226  0.108022  0  1.048807  0
H  H49  1  0.30689329  0.54430174  0.27099396  1  0.113813  0  0.111185  0.107955  0  1.048953  0
H  H50  1  0.19310422  0.04429374  0.77100785  1  0.113904  0  0.111223  0.108006  0  1.04884  0
H  H51  1  0.69311605  0.45569846  0.72900247  1  0.11403  0  0.111194  0.107937  0  1.04906  0
H  H52  1  0.45377633  0.62791291  0.36055551  1  0.130466  0  0.115366  0.18276  0  0.990656  0
H  H53  1  0.95377646  0.87208566  0.13943761  1  0.130847  0  0.115435  0.182855  0  0.990499  0
H  H54  1  0.54621570  0.37208166  0.63944698  1  0.130475  0  0.115418  0.18284  0  0.990542  0
H  H55  1  0.04621789  0.12792622  0.86056294  1  0.13057  0  0.11544  0.18286  0  0.990541  0
H  H56  1  0.46284174  0.57368006  0.43417946  1  0.039751  0  0.094398  0.138336  0  1.014265  0
H  H57  1  0.96284399  0.92632346  0.06581541  1  0.039894  0  0.094452  0.138417  0  1.014199  0
H  H58  1  0.53714683  0.42631453  0.56582205  1  0.039751  0  0.094419  0.138406  0  1.014303  0
H  H59  1  0.03715612  0.07368656  0.93418601  1  0.039745  0  0.094421  0.138386  0  1.014251  0
H  H60  1  0.58735195  0.54588970  0.36659494  1  0.070441  0  0.105674  0.157972  0  0.991588  0
H  H61  1  0.08735741  0.95410982  0.13339572  1  0.070211  0  0.105679  0.15791  0  0.991626  0
H  H62  1  0.41262970  0.45410304  0.63340548  1  0.070408  0  0.105681  0.157959  0  0.99158  0
H  H63  1  0.91264616  0.04589838  0.86660216  1  0.070772  0  0.105685  0.157953  0  0.991622  0
H  H64  1  0.62979787  0.59163465  0.55609676  1  0.030951  0  0.102914  0.115807  0  0.98161  0
H  H65  1  0.12979395  0.90837400  0.94389438  1  0.030755  0  0.102945  0.11588  0  0.981416  0
H  H66  1  0.37018147  0.40837902  0.44390930  1  0.030629  0  0.102881  0.115834  0  0.981593  0
H  H67  1  0.87018424  0.09162313  0.05610039  1  0.031025  0  0.102883  0.115823  0  0.981467  0
H  H68  1  0.82166990  0.56283964  0.53434693  1  0.055559  0  0.10471  0.119174  0  1.012159  0
H  H69  1  0.32166264  0.93717134  0.96564412  1  0.055432  0  0.104787  0.119237  0  1.012247  0
H  H70  1  0.17831521  0.43716844  0.46566175  1  0.055522  0  0.104813  0.119294  0  1.012048  0
H  H71  1  0.67831671  0.06282892  0.03434593  1  0.055345  0  0.104809  0.119287  0  1.012211  0
H  H72  1  0.66651365  0.52550067  0.48378160  1  0.032832  0  0.105793  0.11295  0  1.014516  0
H  H73  1  0.16651199  0.97450397  0.01621123  1  0.032451  0  0.10585  0.112984  0  1.014401  0
H  H74  1  0.33346339  0.47450804  0.51622712  1  0.032155  0  0.105826  0.112966  0  1.014462  0
H  H75  1  0.83346620  0.02549566  0.98377976  1  0.032115  0  0.10584  0.113007  0  1.014489  0
H  H76  1  0.95433983  0.69514186  0.48819679  1  0.081124  0  0.105445  0.121511  0  0.97632  0
H  H77  1  0.45434129  0.80486605  0.01178900  1  0.081498  0  0.105475  0.121579  0  0.976243  0
H  H78  1  0.04564528  0.30486695  0.51180210  1  0.081221  0  0.105463  0.121534  0  0.976316  0
H  H79  1  0.54564267  0.19512738  0.98820507  1  0.081302  0  0.105445  0.121531  0  0.976327  0
H  H80  1  0.82361918  0.72235510  0.55380105  1  0.084334  0  0.101823  0.11569  0  1.024894  0
H  H81  1  0.32361984  0.77765100  0.94618529  1  0.084225  0  0.101845  0.115725  0  1.024858  0
H  H82  1  0.17636593  0.27765617  0.44619847  1  0.084213  0  0.10183  0.115771  0  1.024826  0
H  H83  1  0.67635835  0.22234425  0.05381086  1  0.083902  0  0.10187  0.115736  0  1.024851  0
H  H84  1  0.81018002  0.77133909  0.47755622  1  0.108714  0  0.119314  0.138066  0  1.000259  0
H  H85  1  0.31018188  0.72866906  0.02243074  1  0.108772  0  0.119307  0.138076  0  1.000305  0
H  H86  1  0.18980048  0.22867034  0.52244221  1  0.108739  0  0.119269  0.138044  0  1.000347  0
H  H87  1  0.68979170  0.27132991  0.97756513  1  0.1087  0  0.119293  0.138091  0  1.000301  0
C  C88  1  0.50878656  0.84820123  0.33459353  1  1.55202  0  0.21159  0.616173  0  4.182265  0
C  C89  1  0.00879485  0.65179435  0.16540093  1  1.552631  0  0.211441  0.615804  0  4.182599  0
C  C90  1  0.49121125  0.15179832  0.66540483  1  1.552064  0  0.21164  0.616145  0  4.1822  0
C  C91  1  0.99121449  0.34820030  0.83459420  1  1.552499  0  0.211651  0.616128  0  4.182565  0
C  C92  1  0.39630280  0.88885642  0.38163626  1  -0.054007  0  -0.008081  -0.019375  0  3.927073  0
C  C93  1  0.89631341  0.61114320  0.11836092  1  -0.053828  0  -0.00817  -0.019331  0  3.927099  0
C  C94  1  0.60370654  0.11114743  0.61836480  1  -0.054042  0  -0.008049  -0.019341  0  3.926981  0
C  C95  1  0.10370286  0.38884833  0.88163746  1  -0.053855  0  -0.008077  -0.019436  0  3.927208  0
C  C96  1  0.26230083  0.84679288  0.39918658  1  -0.013893  0  -0.080433  -0.083947  0  3.951017  0
C  C97  1  0.76230385  0.65319957  0.10081477  1  -0.012939  0  -0.080346  -0.083834  0  3.951073  0
C  C98  1  0.73770851  0.15321281  0.60081606  1  -0.013869  0  -0.080466  -0.083961  0  3.9511  0
C  C99  1  0.23770780  0.34678699  0.89918677  1  -0.014198  0  -0.080436  -0.083802  0  3.951237  0
C  C100  1  0.15336015  0.88579893  0.44016104  1  -0.040938  0  -0.083345  -0.144802  0  3.955358  0
C  C101  1  0.65336424  0.61419263  0.05984039  1  -0.041923  0  -0.083312  -0.144787  0  3.955352  0
C  C102  1  0.84665496  0.11420984  0.55984227  1  -0.040908  0  -0.083313  -0.144726  0  3.955164  0
C  C103  1  0.34664164  0.38579147  0.94016003  1  -0.040962  0  -0.083348  -0.144803  0  3.955503  0
C  C104  1  0.17738079  0.96801624  0.46398476  1  0.312228  0  0.087317  0.161238  0  4.064569  0
C  C105  1  0.67737853  0.53197663  0.03601475  1  0.312682  0  0.087219  0.161051  0  4.064686  0
C  C106  1  0.82263432  0.03199007  0.53601743  1  0.311625  0  0.087172  0.161023  0  4.064365  0
C  C107  1  0.32262734  0.46800561  0.96398654  1  0.311571  0  0.087129  0.160967  0  4.064622  0
C  C108  1  0.31566199  0.00849016  0.45000395  1  0.010788  0  -0.079341  -0.14236  0  3.958479  0
C  C109  1  0.81566608  0.49150643  0.04999320  1  0.010505  0  -0.079303  -0.142183  0  3.958328  0
C  C110  1  0.68435543  0.99151366  0.55000056  1  0.011165  0  -0.079264  -0.142241  0  3.958276  0
C  C111  1  0.18434556  0.50848079  0.95000444  1  0.010377  0  -0.079212  -0.142128  0  3.958336  0
C  C112  1  0.42441450  0.96906389  0.40875055  1  -0.043223  0  -0.079867  -0.081634  0  3.962304  0
C  C113  1  0.92441995  0.53093271  0.09124643  1  -0.044129  0  -0.079903  -0.081743  0  3.962185  0
C  C114  1  0.57559484  0.03093811  0.59125041  1  -0.04274  0  -0.079845  -0.081602  0  3.962363  0
C  C115  1  0.07559401  0.46905634  0.90875280  1  -0.042458  0  -0.079879  -0.081712  0  3.962339  0
C  C116  1  0.57323237  0.60094098  0.21719531  1  1.58044  0  0.235939  0.646163  0  4.178168  0
C  C117  1  0.07323635  0.89906901  0.28279449  1  1.580374  0  0.235954  0.646225  0  4.177896  0
C  C118  1  0.42676313  0.39905866  0.78279469  1  1.580923  0  0.236005  0.646253  0  4.178094  0
C  C119  1  0.92677068  0.10093176  0.71720590  1  1.580423  0  0.235936  0.64623  0  4.177958  0
C  C120  1  0.57071576  0.50994647  0.19943053  1  -0.042866  0  -0.007887  -0.034089  0  3.917764  0
C  C121  1  0.07072968  0.99005975  0.30056496  1  -0.043488  0  -0.007891  -0.033797  0  3.917676  0
C  C122  1  0.42927627  0.49005125  0.80056625  1  -0.042903  0  -0.007825  -0.034015  0  3.917888  0
C  C123  1  0.92927966  0.00994161  0.69943744  1  -0.043271  0  -0.007923  -0.033946  0  3.917681  0
C  C124  1  0.45440163  0.47555965  0.15841597  1  -0.03431  0  -0.073217  -0.071326  0  3.931267  0
C  C125  1  0.95441921  0.02444346  0.34158090  1  -0.033754  0  -0.073269  -0.071679  0  3.931332  0
C  C126  1  0.54558695  0.52443808  0.84157982  1  -0.034217  0  -0.073377  -0.071655  0  3.931787  0
C  C127  1  0.04557975  0.97555544  0.65842037  1  -0.033779  0  -0.07329  -0.071618  0  3.931506  0
C  C128  1  0.44895460  0.39057399  0.14463622  1  -0.047825  0  -0.076978  -0.136786  0  3.933572  0
C  C129  1  0.94898324  0.10943398  0.35536635  1  -0.047939  0  -0.076816  -0.136554  0  3.933444  0
C  C130  1  0.55103282  0.60942307  0.85536445  1  -0.04814  0  -0.076896  -0.136502  0  3.933372  0
C  C131  1  0.05102264  0.89056801  0.64463461  1  -0.047838  0  -0.076859  -0.136665  0  3.933302  0
C  C132  1  0.55768502  0.33926822  0.17284368  1  0.25532  0  0.085548  0.162677  0  4.047043  0
C  C133  1  0.05770503  0.16073756  0.32715627  1  0.255542  0  0.085364  0.162742  0  4.047353  0
C  C134  1  0.44229894  0.66072948  0.82715506  1  0.256161  0  0.085475  0.162614  0  4.047155  0
C  C135  1  0.94229508  0.83926130  0.67284893  1  0.256102  0  0.085454  0.162847  0  4.047127  0
C  C136  1  0.67691691  0.37398925  0.21287534  1  -0.065219  0  -0.087643  -0.148688  0  3.95599  0
C  C137  1  0.17694032  0.12602115  0.28712523  1  -0.06562  0  -0.087694  -0.148939  0  3.956282  0
C  C138  1  0.32306590  0.62600842  0.78712635  1  -0.06499  0  -0.087662  -0.148823  0  3.956462  0
C  C139  1  0.82305863  0.87398207  0.71287727  1  -0.065337  0  -0.087689  -0.14895  0  3.956452  0
C  C140  1  0.68323845  0.45871824  0.22538541  1  0.033436  0  -0.082298  -0.080245  0  3.972003  0
C  C141  1  0.18325773  0.04128602  0.27461283  1  0.033347  0  -0.082337  -0.080305  0  3.971627  0
C  C142  1  0.31674781  0.54128009  0.77461140  1  0.033349  0  -0.082323  -0.080198  0  3.971905  0
C  C143  1  0.81674238  0.95871411  0.72538949  1  0.033316  0  -0.082354  -0.080238  0  3.971541  0
C  C144  1  0.58499580  0.85918150  0.17494365  1  1.591214  0  0.233095  0.643194  0  4.167309  0
C  C145  1  0.08499487  0.64082604  0.32504698  1  1.591299  0  0.233201  0.643334  0  4.166912  0
C  C146  1  0.41501124  0.14081740  0.82505860  1  1.590958  0  0.233064  0.643319  0  4.167093  0
C  C147  1  0.91501909  0.35917412  0.67495240  1  1.590929  0  0.233164  0.643258  0  4.167246  0
C  C148  1  0.59849815  0.95110030  0.17209586  1  -0.012052  0  -0.0084  -0.029028  0  3.912712  0
C  C149  1  0.09848830  0.54891155  0.32789894  1  -0.012527  0  -0.008366  -0.029219  0  3.912941  0
C  C150  1  0.40151234  0.04889918  0.82790938  1  0.006404  0  -0.008304  -0.029021  0  3.912857  0
C  C151  1  0.90152912  0.45109108  0.67210058  1  -0.0126  0  -0.008478  -0.029324  0  3.913297  0
C  C152  1  0.48375224  0.99738702  0.14214785  1  -0.10972  0  -0.082151  -0.087513  0  3.981595  0
C  C153  1  0.98375337  0.50262209  0.35784781  1  -0.110036  0  -0.082189  -0.087557  0  3.981887  0
C  C154  1  0.51625249  0.00260689  0.85785903  1  -0.128487  0  -0.082226  -0.08759  0  3.981906  0
C  C155  1  0.01627213  0.49738480  0.64215687  1  -0.109753  0  -0.082197  -0.087571  0  3.982017  0
C  C156  1  0.49104421  0.08300191  0.14485663  1  -0.019055  0  -0.087653  -0.156774  0  3.966862  0
C  C157  1  0.99105139  0.41700744  0.35514253  1  -0.018712  0  -0.087609  -0.156665  0  3.966889  0
C  C158  1  0.50895013  0.91699574  0.85514703  1  -0.01897  0  -0.087719  -0.156899  0  3.96721  0
C  C159  1  0.00895449  0.58299696  0.64486398  1  -0.018861  0  -0.087661  -0.15667  0  3.966984  0
C  C160  1  0.61455874  0.12367057  0.17852965  1  0.354217  0  0.086173  0.164066  0  4.057073  0
C  C161  1  0.11457841  0.37633719  0.32147182  1  0.354204  0  0.086125  0.163949  0  4.056946  0
C  C162  1  0.38544022  0.87633017  0.82147418  1  0.353977  0  0.086183  0.163984  0  4.05702  0
C  C163  1  0.88542516  0.62366294  0.67853001  1  0.353795  0  0.086054  0.163819  0  4.057101  0
C  C164  1  0.72978113  0.07749892  0.20773425  1  -0.108212  0  -0.07902  -0.138288  0  3.941565  0
C  C165  1  0.22978527  0.42251657  0.29226409  1  -0.107961  0  -0.079035  -0.138342  0  3.941668  0
C  C166  1  0.27021436  0.92250986  0.79226759  1  -0.107858  0  -0.078996  -0.138227  0  3.94147  0
C  C167  1  0.77022061  0.57748172  0.70773714  1  -0.10757  0  -0.078992  -0.138191  0  3.941538  0
C  C168  1  0.72170348  0.99199377  0.20444052  1  -0.004203  0  -0.076351  -0.071885  0  3.953133  0
C  C169  1  0.22169809  0.50801663  0.29554619  1  -0.004438  0  -0.076216  -0.071717  0  3.952961  0
C  C170  1  0.27830585  0.00801005  0.79556350  1  -0.004327  0  -0.076347  -0.071858  0  3.953121  0
C  C171  1  0.77832163  0.49197986  0.70445052  1  -0.004416  0  -0.076122  -0.071648  0  3.953084  0
C  C172  1  0.65000711  0.66032038  0.41867409  1  1.39518  0  0.258162  0.549115  0  4.024175  0
C  C173  1  0.15000496  0.83968798  0.08131209  1  1.394977  0  0.257988  0.548908  0  4.02449  0
C  C174  1  0.34998608  0.33967981  0.58132185  1  1.394767  0  0.258059  0.549125  0  4.024138  0
C  C175  1  0.84999399  0.16032454  0.91868603  1  1.394357  0  0.258096  0.548987  0  4.024266  0
C  C176  1  0.53093541  0.59795436  0.39434032  1  -0.124477  0  -0.232975  -0.511974  0  3.887384  0
C  C177  1  0.03093713  0.90204563  0.10565141  1  -0.125029  0  -0.233019  -0.511951  0  3.887332  0
C  C178  1  0.46905662  0.40204023  0.60566070  1  -0.124331  0  -0.233004  -0.512082  0  3.887419  0
C  C179  1  0.96906183  0.09796379  0.89434801  1  -0.124876  0  -0.233063  -0.512069  0  3.88744  0
C  C180  1  0.70878476  0.57875271  0.51425762  1  0.32738  0  -0.131174  -0.269503  0  3.939854  0
C  C181  1  0.20878184  0.92125551  0.98573389  1  0.327866  0  -0.131243  -0.269494  0  3.939556  0
C  C182  1  0.29120035  0.42125785  0.48575022  1  0.328338  0  -0.131235  -0.269598  0  3.939586  0
C  C183  1  0.79120096  0.07874349  0.01425804  1  0.328052  0  -0.131243  -0.26969  0  3.939738  0
C  C184  1  0.83502148  0.71352130  0.50021903  1  0.1998  0  -0.132544  -0.265155  0  3.889071  0
C  C185  1  0.33502187  0.78648668  0.99976740  1  0.199842  0  -0.132608  -0.265216  0  3.888963  0
C  C186  1  0.16496132  0.28648875  0.49977993  1  0.200079  0  -0.132531  -0.265226  0  3.889076  0
C  C187  1  0.66495517  0.21351167  0.00022794  1  0.200203  0  -0.132548  -0.265264  0  3.888959  0
N  N188  1  0.06768689  0.01497616  0.50124988  1  -0.476939  0  -0.14529  -0.132874  0  3.289008  0
N  N189  1  0.56767759  0.48501891  0.99875043  1  -0.476646  0  -0.145188  -0.132679  0  3.289075  0
N  N190  1  0.93232591  0.98503264  0.49875000  1  -0.523566  0  -0.145363  -0.132903  0  3.289078  0
N  N191  1  0.43232713  0.51496145  0.00125370  1  -0.523907  0  -0.145295  -0.132856  0  3.289197  0
N  N192  1  0.53619327  0.25348692  0.15971689  1  -0.464791  0  -0.15286  -0.146661  0  3.29041  0
N  N193  1  0.03622319  0.24651755  0.34028448  1  -0.464444  0  -0.152854  -0.146749  0  3.290556  0
N  N194  1  0.46378492  0.74651136  0.84028532  1  -0.464962  0  -0.152876  -0.146758  0  3.290354  0
N  N195  1  0.96378154  0.75348508  0.65971504  1  -0.465243  0  -0.15282  -0.146629  0  3.290423  0
N  N196  1  0.63386652  0.20963992  0.18814409  1  -0.488586  0  -0.153976  -0.141178  0  3.306915  0
N  N197  1  0.13389010  0.29036791  0.31185491  1  -0.488724  0  -0.153892  -0.14103  0  3.306645  0
N  N198  1  0.36613244  0.79035964  0.81185329  1  -0.488815  0  -0.153856  -0.140916  0  3.306695  0
N  N199  1  0.86612270  0.70963470  0.68814608  1  -0.488586  0  -0.153877  -0.141047  0  3.306589  0
N  N200  1  0.72632053  0.65026177  0.47531703  1  -1.188943  0  -0.276685  -0.028857  0  3.644809  0
N  N201  1  0.22631654  0.84974428  0.02467384  1  -1.189405  0  -0.276669  -0.029037  0  3.645214  0
N  N202  1  0.27366573  0.34974268  0.52468554  1  -1.189252  0  -0.27663  -0.028877  0  3.644982  0
N  N203  1  0.77366626  0.15025778  0.97532122  1  -1.188702  0  -0.276728  -0.028732  0  3.64484  0
O  O204  1  0.64750017  0.87367856  0.33535369  1  -1.162168  0  -0.379124  -0.62917  0  2.233035  0
O  O205  1  0.14750478  0.62632228  0.16464385  1  -1.162352  0  -0.378991  -0.628979  0  2.233328  0
O  O206  1  0.35250456  0.12631665  0.66464736  1  -1.162181  0  -0.379202  -0.629182  0  2.233168  0
O  O207  1  0.85250571  0.37368044  0.83534732  1  -1.16222  0  -0.379235  -0.629211  0  2.233246  0
O  O208  1  0.68568617  0.62971107  0.25163459  1  -1.19994  0  -0.401826  -0.680012  0  2.333513  0
O  O209  1  0.18567858  0.87029916  0.24835903  1  -1.200081  0  -0.401641  -0.679838  0  2.333765  0
O  O210  1  0.31431856  0.37028482  0.74836012  1  -1.200245  0  -0.401752  -0.67987  0  2.333647  0
O  O211  1  0.81432153  0.12970471  0.75163957  1  -1.200063  0  -0.401634  -0.679843  0  2.333762  0
O  O212  1  0.45714674  0.82588804  0.15869515  1  -1.191717  0  -0.38439  -0.657675  0  2.294509  0
O  O213  1  0.95714375  0.67412106  0.34129563  1  -1.191631  0  -0.384479  -0.657711  0  2.29417  0
O  O214  1  0.54286606  0.17410901  0.84130749  1  -1.19158  0  -0.384354  -0.657678  0  2.294426  0
O  O215  1  0.04287136  0.32587597  0.65870848  1  -1.191463  0  -0.384431  -0.657676  0  2.294459  0
O  O216  1  0.70278643  0.82073597  0.19472603  1  -1.209921  0  -0.403894  -0.685499  0  2.370635  0
O  O217  1  0.20277559  0.67927374  0.30526213  1  -1.209869  0  -0.403926  -0.685492  0  2.370674  0
O  O218  1  0.29723214  0.17926789  0.80527405  1  -1.209801  0  -0.403888  -0.685586  0  2.370627  0
O  O219  1  0.79722451  0.32073141  0.69473262  1  -1.20969  0  -0.403956  -0.685402  0  2.370578  0
O  O220  1  0.46103034  0.64331652  0.19791237  1  -1.201299  0  -0.410945  -0.685457  0  2.375768  0
O  O221  1  0.96102003  0.85669075  0.30207731  1  -1.201255  0  -0.411105  -0.685737  0  2.375357  0
O  O222  1  0.53898130  0.35668558  0.80207925  1  -1.201399  0  -0.411069  -0.685652  0  2.375589  0
O  O223  1  0.03898239  0.14330819  0.69792101  1  -1.201349  0  -0.411095  -0.685734  0  2.37543  0
O  O224  1  0.46659158  0.78697061  0.29546126  1  -1.207772  0  -0.39926  -0.736419  0  2.383002  0
O  O225  1  0.96659330  0.71303111  0.20452810  1  -1.208301  0  -0.399277  -0.73633  0  2.383016  0
O  O226  1  0.53340507  0.21303326  0.70453735  1  -1.207746  0  -0.39929  -0.73643  0  2.382925  0
O  O227  1  0.03340450  0.28696288  0.79547043  1  -1.207957  0  -0.399251  -0.736383  0  2.383224  0
O  O228  1  0.67740477  0.72225236  0.38667765  1  -1.184448  0  -0.37592  -0.608782  0  2.36894  0
O  O229  1  0.17740186  0.77774184  0.11331211  1  -1.183742  0  -0.375892  -0.60876  0  2.368338  0
O  O230  1  0.32259418  0.27773183  0.61331393  1  -1.184063  0  -0.37594  -0.608861  0  2.36828  0
O  O231  1  0.82260056  0.22226631  0.88669019  1  -1.183941  0  -0.37589  -0.608804  0  2.368438  0
