# generated using pymatgen
data_SnH10C6(BrN)2
_symmetry_space_group_name_H-M   'P 1'
_cell_length_a   6.47966267
_cell_length_b   6.47996734
_cell_length_c   7.62181893
_cell_angle_alpha   66.86263615
_cell_angle_beta   66.86209644
_cell_angle_gamma   71.52852457
_symmetry_Int_Tables_number   1
_chemical_formula_structural   SnH10C6(BrN)2
_chemical_formula_sum   'Sn1 H10 C6 Br2 N2'
_cell_volume   265.57274737
_cell_formula_units_Z   1
loop_
 _symmetry_equiv_pos_site_id
 _symmetry_equiv_pos_as_xyz
  1  'x, y, z'
loop_
 _atom_site_type_symbol
 _atom_site_label
 _atom_site_symmetry_multiplicity
 _atom_site_fract_x
 _atom_site_fract_y
 _atom_site_fract_z
 _atom_site_occupancy
 _atom_site_pbe_bader_spin_density
 _atom_site_pbe_cm5_charge
 _atom_site_pbe_ddec_charge
 _atom_site_pbe_ddec_spin_density
 _atom_site_pbe_ddec_sum_bond_order
 _atom_site_pbe_magmom
Sn  Sn0  1  0.99999842  0.00000165  0.99999919  1  0  0.458633  1.012872  0  3.534246  0
H  H1  1  0.02884952  0.02886904  0.62716081  1  0  0.083451  0.176565  0  1.037947  0
H  H2  1  0.97116353  0.97114943  0.37286311  1  0  0.083492  0.176608  0  1.038361  0
H  H3  1  0.98628946  0.74822933  0.79787210  1  0  0.078877  0.166442  0  1.061138  0
H  H4  1  0.25176534  0.01366950  0.20215656  1  0  0.078893  0.166451  0  1.061377  0
H  H5  1  0.01369579  0.25173571  0.20216457  1  0  0.078886  0.1664  0  1.061336  0
H  H6  1  0.74817753  0.98632251  0.79788788  1  0  0.078932  0.16647  0  1.060964  0
H  H7  1  0.20767888  0.53983427  0.31193939  1  0  0.115366  0.093842  0  1.025854  0
H  H8  1  0.46020017  0.79228421  0.68805648  1  0  0.11546  0.094017  0  1.026517  0
H  H9  1  0.79233082  0.46017554  0.68801507  1  0  0.115356  0.093798  0  1.026041  0
H  H10  1  0.53983133  0.20772586  0.31191423  1  0  0.115433  0.09388  0  1.026251  0
C  C11  1  0.33860039  0.52224282  0.17239187  1  0  0.069337  0.068  0  3.888678  0
C  C12  1  0.47777877  0.66147848  0.82752557  1  0  0.069242  0.06781  0  3.888007  0
C  C13  1  0.66143081  0.47776039  0.82757861  1  0  0.069356  0.067917  0  3.888099  0
C  C14  1  0.52224711  0.33856749  0.17240220  1  0  0.069316  0.067855  0  3.889136  0
C  C15  1  0.93251150  0.93254574  0.77563409  1  0  -0.330054  -0.693286  0  3.730899  0
C  C16  1  0.06745992  0.06743802  0.22443506  1  0  -0.330136  -0.693281  0  3.731647  0
Br  Br17  1  0.28758819  0.28760720  0.70873394  1  0  -0.238937  -0.469027  0  1.087722  0
Br  Br18  1  0.71238336  0.71235083  0.29129785  1  0  -0.239081  -0.469142  0  1.087428  0
N  N19  1  0.31812520  0.68189102  0.99998309  1  0  -0.270903  -0.177196  0  3.48216  0
N  N20  1  0.68188773  0.31812199  0.99999465  1  0  -0.270919  -0.176996  0  3.482833  0
