# generated using pymatgen
data_KH7C6N4O5
_symmetry_space_group_name_H-M   'P 1'
_cell_length_a   4.58995786
_cell_length_b   9.87302955
_cell_length_c   22.38829673
_cell_angle_alpha   90.00000218
_cell_angle_beta   89.99992424
_cell_angle_gamma   90.00008833
_symmetry_Int_Tables_number   1
_chemical_formula_structural   KH7C6N4O5
_chemical_formula_sum   'K4 H28 C24 N16 O20'
_cell_volume   1014.56573106
_cell_formula_units_Z   4
loop_
 _symmetry_equiv_pos_site_id
 _symmetry_equiv_pos_as_xyz
  1  'x, y, z'
loop_
 _atom_site_type_symbol
 _atom_site_label
 _atom_site_symmetry_multiplicity
 _atom_site_fract_x
 _atom_site_fract_y
 _atom_site_fract_z
 _atom_site_occupancy
 _atom_site_hle17_bader_spin_density
 _atom_site_hle17_ddec_charge
 _atom_site_hle17_ddec_spin_density
 _atom_site_hle17_ddec_sum_bond_order
 _atom_site_hle17_magmom
 _atom_site_hse06_10hf_bader_spin_density
 _atom_site_hse06_10hf_ddec_charge
 _atom_site_hse06_10hf_ddec_spin_density
 _atom_site_hse06_10hf_ddec_sum_bond_order
 _atom_site_hse06_10hf_magmom
 _atom_site_hse06_bader_spin_density
 _atom_site_hse06_ddec_charge
 _atom_site_hse06_ddec_spin_density
 _atom_site_hse06_ddec_sum_bond_order
 _atom_site_hse06_magmom
 _atom_site_pbe_bader_spin_density
 _atom_site_pbe_cm5_charge
 _atom_site_pbe_ddec_charge
 _atom_site_pbe_ddec_spin_density
 _atom_site_pbe_ddec_sum_bond_order
 _atom_site_pbe_magmom
K  K0  1  0.09983580  0.77541454  0.92797278  1  0  0.922952  0  0.49101  0  0  0.862368  0  0.689736  0  0  0.877791  0  0.666551  0  0  0.853798  0.850695  0  0.706589  0
K  K1  1  0.40016388  0.22458371  0.42797221  1  0  0.922968  0  0.490985  0  0  0.862371  0  0.689723  0  0  0.877795  0  0.666538  0  0  0.853803  0.850698  0  0.706576  0
K  K2  1  0.90015720  0.27541328  0.57202642  1  0  0.922971  0  0.49099  0  0  0.862377  0  0.689726  0  0  0.877798  0  0.666543  0  0  0.853808  0.850708  0  0.706578  0
K  K3  1  0.59983654  0.72458531  0.07202774  1  0  0.92297  0  0.490979  0  0  0.862384  0  0.689698  0  0  0.877809  0  0.666513  0  0  0.853792  0.850704  0  0.706547  0
H  H4  1  0.42499459  0.21204655  0.96561382  1  0  0.281633  0  0.926441  0  0  0.25244  0  1.009489  0  0  0.261816  0  1.002143  0  0  0.311917  0.245444  0  1.015201  0
H  H5  1  0.07500484  0.78795272  0.46561335  1  0  0.28164  0  0.926426  0  0  0.252457  0  1.009486  0  0  0.261835  0  1.002133  0  0  0.311911  0.245463  0  1.015187  0
H  H6  1  0.57500691  0.71204611  0.53438672  1  0  0.281664  0  0.926437  0  0  0.252465  0  1.009496  0  0  0.26184  0  1.00215  0  0  0.311933  0.245468  0  1.015204  0
H  H7  1  0.92499361  0.28795247  0.03438704  1  0  0.281662  0  0.926415  0  0  0.252499  0  1.009466  0  0  0.261877  0  1.002108  0  0  0.311935  0.245503  0  1.015177  0
H  H8  1  0.10210958  0.25034775  0.88962818  1  0  0.102981  0  0.944474  0  0  0.107072  0  1.015428  0  0  0.111093  0  1.010746  0  0  0.118236  0.104011  0  1.019024  0
H  H9  1  0.39789252  0.74965151  0.38962763  1  0  0.102981  0  0.944474  0  0  0.107068  0  1.015424  0  0  0.111089  0  1.010744  0  0  0.118237  0.103995  0  1.019033  0
H  H10  1  0.89789204  0.75034754  0.61037191  1  0  0.102987  0  0.944476  0  0  0.107058  0  1.015434  0  0  0.111081  0  1.01075  0  0  0.118226  0.103975  0  1.019056  0
H  H11  1  0.60210798  0.24965206  0.11037277  1  0  0.102962  0  0.944422  0  0  0.107043  0  1.015384  0  0  0.111065  0  1.010702  0  0  0.118227  0.103971  0  1.018997  0
H  H12  1  0.68572310  0.25923580  0.79578934  1  0  0.129341  0  0.949481  0  0  0.142485  0  1.003981  0  0  0.145247  0  1.003251  0  0  0.111925  0.140435  0  1.004817  0
H  H13  1  0.81428008  0.74076482  0.29578926  1  0  0.129332  0  0.949494  0  0  0.142478  0  1.003986  0  0  0.145239  0  1.003258  0  0  0.111907  0.140426  0  1.00483  0
H  H14  1  0.31428073  0.75923417  0.70421075  1  0  0.129333  0  0.949512  0  0  0.142485  0  1.004002  0  0  0.145246  0  1.003272  0  0  0.111911  0.140433  0  1.00484  0
H  H15  1  0.18572258  0.24076407  0.20421114  1  0  0.129341  0  0.949489  0  0  0.142482  0  1.003989  0  0  0.145244  0  1.003261  0  0  0.111915  0.140432  0  1.004834  0
H  H16  1  0.42093188  0.05901044  0.72949492  1  0  0.128694  0  0.98366  0  0  0.135229  0  1.045695  0  0  0.139318  0  1.042983  0  0  0.107091  0.132279  0  1.047661  0
H  H17  1  0.07907126  0.94099084  0.22949445  1  0  0.128739  0  0.983681  0  0  0.135256  0  1.045719  0  0  0.139344  0  1.043011  0  0  0.107098  0.132305  0  1.047688  0
H  H18  1  0.57906911  0.55900900  0.77050562  1  0  0.128725  0  0.983597  0  0  0.13524  0  1.045653  0  0  0.139328  0  1.042945  0  0  0.107096  0.13229  0  1.047617  0
H  H19  1  0.92092770  0.44098960  0.27050594  1  0  0.12873  0  0.983696  0  0  0.135246  0  1.04574  0  0  0.139334  0  1.043031  0  0  0.107097  0.132294  0  1.047709  0
H  H20  1  0.66317487  0.82046170  0.77425712  1  0  0.104881  0  0.955504  0  0  0.113065  0  1.018102  0  0  0.115072  0  1.016471  0  0  0.12904  0.111534  0  1.019449  0
H  H21  1  0.83682844  0.17953892  0.27425657  1  0  0.104837  0  0.955531  0  0  0.113015  0  1.018136  0  0  0.115022  0  1.016506  0  0  0.129025  0.111484  0  1.019485  0
H  H22  1  0.33682262  0.32046004  0.72574297  1  0  0.104868  0  0.955523  0  0  0.113054  0  1.018113  0  0  0.115061  0  1.016483  0  0  0.129042  0.111524  0  1.01946  0
H  H23  1  0.16317183  0.67953921  0.22574337  1  0  0.10484  0  0.955535  0  0  0.113017  0  1.018143  0  0  0.115024  0  1.016514  0  0  0.129023  0.111487  0  1.019494  0
H  H24  1  0.83519964  0.51899098  0.86165946  1  0  0.399841  0  0.912824  0  0  0.364464  0  0.985643  0  0  0.375888  0  0.968617  0  0  0.27907  0.356333  0  0.997752  0
H  H25  1  0.66479876  0.48101066  0.36165985  1  0  0.399873  0  0.912787  0  0  0.364499  0  0.9856  0  0  0.375922  0  0.968577  0  0  0.279092  0.356363  0  0.997717  0
H  H26  1  0.16479904  0.01899122  0.63833974  1  0  0.39983  0  0.912841  0  0  0.364464  0  0.98564  0  0  0.375886  0  0.968619  0  0  0.279076  0.356331  0  0.997753  0
H  H27  1  0.33520033  0.98100904  0.13834055  1  0  0.399857  0  0.912811  0  0  0.364479  0  0.985631  0  0  0.375902  0  0.968607  0  0  0.279087  0.356345  0  0.997744  0
H  H28  1  0.07863298  0.54305019  0.81277375  1  0  0.382481  0  0.910787  0  0  0.359265  0  0.974924  0  0  0.366531  0  0.964573  0  0  0.281391  0.354112  0  0.9823  0
H  H29  1  0.42136527  0.45695210  0.31277408  1  0  0.382554  0  0.910725  0  0  0.359375  0  0.974804  0  0  0.366638  0  0.964455  0  0  0.281446  0.354219  0  0.982187  0
H  H30  1  0.92136796  0.04304996  0.68722589  1  0  0.382555  0  0.910769  0  0  0.359358  0  0.974832  0  0  0.366623  0  0.964483  0  0  0.281428  0.354203  0  0.982212  0
H  H31  1  0.57863374  0.95695167  0.18722632  1  0  0.382523  0  0.91071  0  0  0.359326  0  0.974858  0  0  0.366591  0  0.96451  0  0  0.281422  0.35417  0  0.982243  0
C  C32  1  0.09842965  0.14042607  0.88302250  1  0  0.002105  0  3.721709  0  0  -0.036163  0  4.005174  0  0  -0.029102  0  4.013159  0  0  0.046177  -0.040787  0  3.999835  0
C  C33  1  0.40157250  0.85957421  0.38302150  1  0  0.002072  0  3.721722  0  0  -0.036161  0  4.005177  0  0  -0.029094  0  4.013143  0  0  0.046163  -0.04077  0  3.999835  0
C  C34  1  0.90157379  0.64042485  0.61697759  1  0  0.002027  0  3.721767  0  0  -0.036168  0  4.005138  0  0  -0.029105  0  4.013124  0  0  0.046188  -0.040773  0  3.99982  0
C  C35  1  0.59842837  0.35957475  0.11697890  1  0  0.002097  0  3.721692  0  0  -0.036118  0  4.00512  0  0  -0.029049  0  4.013081  0  0  0.046172  -0.040738  0  3.999797  0
C  C36  1  0.72147923  0.15085368  0.79841482  1  0  -0.176406  0  3.715192  0  0  -0.206934  0  3.971595  0  0  -0.210719  0  3.992553  0  0  -0.107455  -0.204317  0  3.957546  0
C  C37  1  0.77852393  0.84914694  0.29841430  1  0  -0.176394  0  3.71513  0  0  -0.206904  0  3.971522  0  0  -0.210691  0  3.992481  0  0  -0.107387  -0.204282  0  3.957472  0
C  C38  1  0.27852424  0.65085304  0.70158483  1  0  -0.176418  0  3.715161  0  0  -0.206959  0  3.971574  0  0  -0.21074  0  3.99253  0  0  -0.107431  -0.204336  0  3.957524  0
C  C39  1  0.22147908  0.34914621  0.20158565  1  0  -0.176411  0  3.715143  0  0  -0.206919  0  3.971549  0  0  -0.210705  0  3.992508  0  0  -0.107425  -0.204298  0  3.957505  0
C  C40  1  0.90763975  0.08833090  0.83796403  1  0  0.200452  0  3.760558  0  0  0.190562  0  4.0292  0  0  0.196165  0  4.047531  0  0  0.071061  0.186952  0  4.016563  0
C  C41  1  0.59236315  0.91166973  0.33796356  1  0  0.200455  0  3.760564  0  0  0.190512  0  4.029255  0  0  0.196116  0  4.047588  0  0  0.071008  0.186898  0  4.016614  0
C  C42  1  0.09236569  0.58832910  0.66203562  1  0  0.200455  0  3.76061  0  0  0.190555  0  4.029255  0  0  0.196155  0  4.047592  0  0  0.071037  0.186937  0  4.016625  0
C  C43  1  0.40763789  0.41167015  0.16203639  1  0  0.20047  0  3.7606  0  0  0.190512  0  4.029298  0  0  0.196117  0  4.047634  0  0  0.071019  0.186896  0  4.016667  0
C  C44  1  0.61850579  0.02230648  0.98573859  1  0  0.678632  0  3.885472  0  0  0.616604  0  4.202959  0  0  0.651232  0  4.197465  0  0  0.316484  0.593271  0  4.205802  0
C  C45  1  0.88149398  0.97769314  0.48573760  1  0  0.678478  0  3.88555  0  0  0.616553  0  4.202892  0  0  0.651179  0  4.197402  0  0  0.316491  0.593218  0  4.205737  0
C  C46  1  0.38149726  0.52230590  0.51426150  1  0  0.678566  0  3.885474  0  0  0.616512  0  4.203015  0  0  0.65114  0  4.197521  0  0  0.316445  0.593178  0  4.205857  0
C  C47  1  0.11850728  0.47769232  0.01426235  1  0  0.678464  0  3.885586  0  0  0.616525  0  4.202946  0  0  0.65115  0  4.197459  0  0  0.316473  0.593193  0  4.205781  0
C  C48  1  0.58548010  0.04636797  0.76408663  1  0  -0.17858  0  3.821818  0  0  -0.19362  0  4.082001  0  0  -0.198942  0  4.101942  0  0  -0.119176  -0.189938  0  4.068289  0
C  C49  1  0.91452328  0.95363265  0.26408608  1  0  -0.178659  0  3.821845  0  0  -0.193679  0  4.082032  0  0  -0.199001  0  4.101972  0  0  -0.119217  -0.19  0  4.068328  0
C  C50  1  0.41452085  0.54636641  0.73591390  1  0  -0.178605  0  3.821783  0  0  -0.193631  0  4.081986  0  0  -0.198952  0  4.101924  0  0  -0.119195  -0.189948  0  4.068273  0
C  C51  1  0.08547572  0.45363284  0.23591387  1  0  -0.17864  0  3.821863  0  0  -0.19366  0  4.082046  0  0  -0.198983  0  4.101989  0  0  -0.119203  -0.189974  0  4.068339  0
C  C52  1  0.69726247  0.92643527  0.78480281  1  0  0.081544  0  3.617813  0  0  0.042035  0  3.884831  0  0  0.050741  0  3.896949  0  0  0.003671  0.03628  0  3.87675  0
C  C53  1  0.80274295  0.07356637  0.28480226  1  0  0.081655  0  3.617766  0  0  0.04215  0  3.884775  0  0  0.050855  0  3.896893  0  0  0.003732  0.0364  0  3.876695  0
C  C54  1  0.30274191  0.42643358  0.71519729  1  0  0.081544  0  3.617883  0  0  0.042037  0  3.884905  0  0  0.050744  0  3.897024  0  0  0.00369  0.036286  0  3.876824  0
C  C55  1  0.19725697  0.57356668  0.21519813  1  0  0.081665  0  3.617755  0  0  0.042159  0  3.884764  0  0  0.050867  0  3.896885  0  0  0.003736  0.036404  0  3.876689  0
N  N56  1  0.43376795  0.10963726  0.95595877  1  0  -0.315148  0  3.401172  0  0  -0.255893  0  3.656566  0  0  -0.279886  0  3.669938  0  0  -0.290564  -0.239332  0  3.647202  0
N  N57  1  0.06622936  0.89036201  0.45595831  1  0  -0.315052  0  3.40126  0  0  -0.255821  0  3.65657  0  0  -0.279813  0  3.669942  0  0  -0.290488  -0.23926  0  3.647198  0
N  N58  1  0.56623103  0.60963681  0.54404176  1  0  -0.315125  0  3.401186  0  0  -0.255853  0  3.656585  0  0  -0.279845  0  3.669957  0  0  -0.290523  -0.239291  0  3.647214  0
N  N59  1  0.93376943  0.39036076  0.04404208  1  0  -0.315053  0  3.401169  0  0  -0.255848  0  3.656458  0  0  -0.279839  0  3.669828  0  0  -0.290508  -0.239287  0  3.647091  0
N  N60  1  0.25652454  0.05693098  0.91397526  1  0  -0.157161  0  3.154603  0  0  -0.145959  0  3.450189  0  0  -0.147861  0  3.46553  0  0  -0.274716  -0.144831  0  3.439715  0
N  N61  1  0.24347304  0.94306828  0.41397475  1  0  -0.157139  0  3.154633  0  0  -0.145962  0  3.450217  0  0  -0.147864  0  3.465562  0  0  -0.274709  -0.144837  0  3.439742  0
N  N62  1  0.74347644  0.55692965  0.58602483  1  0  -0.157112  0  3.154575  0  0  -0.145938  0  3.450146  0  0  -0.147838  0  3.465485  0  0  -0.27471  -0.144809  0  3.43967  0
N  N63  1  0.75652592  0.44306894  0.08602520  1  0  -0.157143  0  3.154604  0  0  -0.145956  0  3.450165  0  0  -0.147859  0  3.465509  0  0  -0.274697  -0.144824  0  3.439686  0
N  N64  1  0.78271096  0.09602653  0.02678710  1  0  -0.486606  0  2.818956  0  0  -0.48915  0  3.10685  0  0  -0.507714  0  3.108778  0  0  -0.240724  -0.476402  0  3.105197  0
N  N65  1  0.71728524  0.90397306  0.52678630  1  0  -0.48662  0  2.81895  0  0  -0.489239  0  3.106799  0  0  -0.507802  0  3.108726  0  0  -0.240796  -0.476485  0  3.105141  0
N  N66  1  0.21729121  0.59602586  0.47321329  1  0  -0.486523  0  2.819004  0  0  -0.489129  0  3.106851  0  0  -0.507696  0  3.10878  0  0  -0.240718  -0.476384  0  3.105189  0
N  N67  1  0.28271471  0.40397239  0.97321380  1  0  -0.486614  0  2.818935  0  0  -0.489203  0  3.106788  0  0  -0.507767  0  3.108717  0  0  -0.240788  -0.476462  0  3.105146  0
N  N68  1  0.97772125  0.03011370  0.05968373  1  0  0.624849  0  4.048162  0  0  0.677011  0  4.309317  0  0  0.702647  0  4.31895  0  0  0.104291  0.659897  0  4.302305  0
N  N69  1  0.52227256  0.96988589  0.55968209  1  0  0.624836  0  4.048184  0  0  0.677086  0  4.309296  0  0  0.702721  0  4.318931  0  0  0.104297  0.659964  0  4.30229  0
N  N70  1  0.02227852  0.53011289  0.44031711  1  0  0.624524  0  4.04857  0  0  0.676899  0  4.309517  0  0  0.702534  0  4.319154  0  0  0.104183  0.659792  0  4.302492  0
N  N71  1  0.47772325  0.46988739  0.94031756  1  0  0.624854  0  4.048133  0  0  0.677064  0  4.309257  0  0  0.7027  0  4.318889  0  0  0.104309  0.65995  0  4.30224  0
O  O72  1  0.61746805  0.89859982  0.97484809  1  0  -0.688866  0  2.039832  0  0  -0.648949  0  2.290055  0  0  -0.670074  0  2.280469  0  0  -0.4618  -0.634111  0  2.296343  0
O  O73  1  0.88252961  0.10139981  0.47484753  1  0  -0.68881  0  2.039851  0  0  -0.648925  0  2.290021  0  0  -0.67005  0  2.280436  0  0  -0.461808  -0.634087  0  2.296315  0
O  O74  1  0.38253406  0.39859817  0.52515111  1  0  -0.688902  0  2.039822  0  0  -0.648973  0  2.290066  0  0  -0.6701  0  2.280481  0  0  -0.461835  -0.634139  0  2.296357  0
O  O75  1  0.11747040  0.60140005  0.02515197  1  0  -0.688814  0  2.039869  0  0  -0.648929  0  2.290044  0  0  -0.670055  0  2.280461  0  0  -0.4618  -0.634092  0  2.296328  0
O  O76  1  0.89399402  0.94973214  0.82962798  1  0  -0.222826  0  2.421946  0  0  -0.149549  0  2.649987  0  0  -0.166482  0  2.657352  0  0  -0.149681  -0.138056  0  2.644858  0
O  O77  1  0.60600676  0.05026849  0.32962794  1  0  -0.222882  0  2.421864  0  0  -0.149587  0  2.649919  0  0  -0.166519  0  2.65728  0  0  -0.149703  -0.138094  0  2.644787  0
O  O78  1  0.10600826  0.44973132  0.67037167  1  0  -0.222776  0  2.421886  0  0  -0.149523  0  2.649946  0  0  -0.166458  0  2.657315  0  0  -0.149683  -0.138035  0  2.644823  0
O  O79  1  0.39399308  0.55026894  0.17037245  1  0  -0.222913  0  2.421902  0  0  -0.149616  0  2.649956  0  0  -0.166555  0  2.657323  0  0  -0.149702  -0.138121  0  2.644826  0
O  O80  1  0.94626620  0.58985478  0.83993783  1  0  -0.849255  0  1.811012  0  0  -0.803929  0  1.967132  0  0  -0.8203  0  1.938849  0  0  -0.653624  -0.79207  0  1.986974  0
O  O81  1  0.55373451  0.41014788  0.33993780  1  0  -0.849355  0  1.810953  0  0  -0.804091  0  1.966924  0  0  -0.820453  0  1.938656  0  0  -0.653693  -0.792225  0  1.986774  0
O  O82  1  0.05373271  0.08985392  0.66006227  1  0  -0.849315  0  1.811065  0  0  -0.804042  0  1.967027  0  0  -0.820408  0  1.93875  0  0  -0.653661  -0.792176  0  1.98687  0
O  O83  1  0.44626434  0.91014735  0.16006215  1  0  -0.849297  0  1.810916  0  0  -0.804018  0  1.966972  0  0  -0.820383  0  1.938694  0  0  -0.653654  -0.792148  0  1.986819  0
O  O84  1  0.09815978  0.10061151  0.10067759  1  0  -0.477678  0  1.745123  0  0  -0.457782  0  1.95079  0  0  -0.474284  0  1.945123  0  0  -0.185406  -0.446139  0  1.954376  0
O  O85  1  0.40182894  0.89938874  0.60067629  1  0  -0.477728  0  1.745171  0  0  -0.457856  0  1.950807  0  0  -0.474356  0  1.945141  0  0  -0.185415  -0.446206  0  1.954396  0
O  O86  1  0.90183151  0.60061234  0.39932370  1  0  -0.477647  0  1.745166  0  0  -0.457831  0  1.950778  0  0  -0.47433  0  1.945113  0  0  -0.185437  -0.446196  0  1.954381  0
O  O87  1  0.59816228  0.39938931  0.89932202  1  0  -0.477761  0  1.745084  0  0  -0.457893  0  1.950748  0  0  -0.474394  0  1.945077  0  0  -0.18545  -0.446249  0  1.95434  0
O  O88  1  0.05071422  0.90805159  0.05246938  1  0  -0.487879  0  1.80699  0  0  -0.474655  0  2.021171  0  0  -0.488169  0  2.016045  0  0  -0.251012  -0.465234  0  2.024639  0
O  O89  1  0.44928136  0.09194663  0.55246805  1  0  -0.487793  0  1.806924  0  0  -0.4746  0  2.02108  0  0  -0.488112  0  2.015956  0  0  -0.250997  -0.465192  0  2.024585  0
O  O90  1  0.94928899  0.40805140  0.44753057  1  0  -0.487617  0  1.807163  0  0  -0.474465  0  2.02128  0  0  -0.487978  0  2.016158  0  0  -0.250867  -0.465049  0  2.024745  0
O  O91  1  0.55071974  0.59194721  0.94753159  1  0  -0.487768  0  1.807007  0  0  -0.474574  0  2.0212  0  0  -0.488084  0  2.016075  0  0  -0.250972  -0.465165  0  2.02469  0
