# generated using pymatgen
data_CuPH12C9BrN3
_symmetry_space_group_name_H-M   'P 1'
_cell_length_a   7.24457181
_cell_length_b   7.90661151
_cell_length_c   12.42338905
_cell_angle_alpha   74.47366969
_cell_angle_beta   89.71058513
_cell_angle_gamma   64.55253285
_symmetry_Int_Tables_number   1
_chemical_formula_structural   CuPH12C9BrN3
_chemical_formula_sum   'Cu2 P2 H24 C18 Br2 N6'
_cell_volume   614.15671514
_cell_formula_units_Z   2
loop_
 _symmetry_equiv_pos_site_id
 _symmetry_equiv_pos_as_xyz
  1  'x, y, z'
loop_
 _atom_site_type_symbol
 _atom_site_label
 _atom_site_symmetry_multiplicity
 _atom_site_fract_x
 _atom_site_fract_y
 _atom_site_fract_z
 _atom_site_occupancy
 _atom_site_hle17_bader_spin_density
 _atom_site_hle17_ddec_charge
 _atom_site_hle17_ddec_spin_density
 _atom_site_hle17_ddec_sum_bond_order
 _atom_site_hle17_magmom
 _atom_site_hse06_10hf_bader_spin_density
 _atom_site_hse06_10hf_ddec_charge
 _atom_site_hse06_10hf_ddec_spin_density
 _atom_site_hse06_10hf_ddec_sum_bond_order
 _atom_site_hse06_10hf_magmom
 _atom_site_hse06_bader_spin_density
 _atom_site_hse06_ddec_charge
 _atom_site_hse06_ddec_spin_density
 _atom_site_hse06_ddec_sum_bond_order
 _atom_site_hse06_magmom
 _atom_site_pbe_bader_spin_density
 _atom_site_pbe_cm5_charge
 _atom_site_pbe_ddec_charge
 _atom_site_pbe_ddec_spin_density
 _atom_site_pbe_ddec_sum_bond_order
 _atom_site_pbe_magmom
Cu  Cu0  1  0.88471944  0.18590806  0.89225391  1  0  0.255111  0  2.330086  0  0  0.187189  0  2.820524  0  0  0.185377  0  2.777046  0  0  0.398972  0.190631  0  2.848047  0
Cu  Cu1  1  0.11528348  0.81409447  0.10774444  1  0  0.255099  0  2.330267  0  0  0.187183  0  2.820714  0  0  0.185349  0  2.777218  0  0  0.399004  0.190624  0  2.848254  0
P  P2  1  0.70192963  0.17354722  0.75791788  1  0  0.38795  0  3.683019  0  0  0.33746  0  4.189359  0  0  0.352575  0  4.175377  0  0  -0.060067  0.327029  0  4.197961  0
P  P3  1  0.29806983  0.82645679  0.24207863  1  0  0.387951  0  3.68301  0  0  0.337464  0  4.189346  0  0  0.352593  0  4.175355  0  0  -0.060079  0.327019  0  4.197962  0
H  H4  1  0.66654285  0.24036519  0.55219896  1  0  0.117729  0  0.944389  0  0  0.134214  0  1.00011  0  0  0.135843  0  1.000624  0  0  0.101128  0.133078  0  0.999795  0
H  H5  1  0.33345042  0.75964031  0.44779895  1  0  0.117692  0  0.944458  0  0  0.134177  0  1.000178  0  0  0.135806  0  1.000695  0  0  0.101101  0.133036  0  0.999862  0
H  H6  1  0.66542493  0.43858039  0.59561189  1  0  0.115833  0  0.942887  0  0  0.133991  0  0.997247  0  0  0.13504  0  0.998956  0  0  0.104608  0.13322  0  0.996131  0
H  H7  1  0.33456908  0.56142949  0.40438687  1  0  0.115791  0  0.94291  0  0  0.133933  0  0.997282  0  0  0.134984  0  0.998992  0  0  0.104591  0.133162  0  0.996163  0
H  H8  1  0.62329756  0.93194426  0.70296645  1  0  0.125968  0  0.92548  0  0  0.143104  0  0.978648  0  0  0.144834  0  0.978979  0  0  0.105488  0.141839  0  0.978513  0
H  H9  1  0.37670532  0.06805535  0.29703079  1  0  0.126019  0  0.925495  0  0  0.143139  0  0.978684  0  0  0.144875  0  0.979014  0  0  0.105488  0.141876  0  0.978543  0
H  H10  1  0.88973618  0.86564686  0.71955197  1  0  0.111169  0  0.952281  0  0  0.127941  0  1.011349  0  0  0.129011  0  1.012658  0  0  0.102224  0.127073  0  1.010659  0
H  H11  1  0.11026877  0.13435420  0.28044421  1  0  0.111168  0  0.952308  0  0  0.128013  0  1.011289  0  0  0.12908  0  1.012604  0  0  0.102266  0.127139  0  1.010606  0
H  H12  1  0.18179476  0.54337864  0.80007257  1  0  0.113605  0  0.932847  0  0  0.129532  0  0.991367  0  0  0.129668  0  0.992456  0  0  0.112329  0.129357  0  0.990756  0
H  H13  1  0.81820605  0.45661365  0.19993157  1  0  0.113612  0  0.932826  0  0  0.129542  0  0.991355  0  0  0.129681  0  0.992443  0  0  0.112326  0.129381  0  0.990751  0
H  H14  1  0.42786204  0.45811124  0.87561046  1  0  0.110689  0  0.925322  0  0  0.120938  0  0.992273  0  0  0.122905  0  0.991134  0  0  0.106457  0.119471  0  0.993113  0
H  H15  1  0.57214085  0.54187957  0.12439472  1  0  0.110653  0  0.925386  0  0  0.120954  0  0.992297  0  0  0.122926  0  0.991148  0  0  0.106465  0.119498  0  0.993142  0
H  H16  1  0.89088824  0.79908917  0.93125747  1  0  0.100222  0  0.983242  0  0  0.105024  0  1.062491  0  0  0.109242  0  1.058614  0  0  0.095496  0.101753  0  1.065479  0
H  H17  1  0.10910846  0.20091485  0.06873987  1  0  0.100265  0  0.983235  0  0  0.105042  0  1.062499  0  0  0.10927  0  1.058622  0  0  0.095497  0.10177  0  1.065494  0
H  H18  1  0.62682430  0.85139190  0.91564081  1  0  0.11791  0  0.950128  0  0  0.130643  0  1.011325  0  0  0.133229  0  1.010687  0  0  0.09852  0.128617  0  1.012021  0
H  H19  1  0.37317380  0.14861504  0.08435521  1  0  0.117889  0  0.950144  0  0  0.130633  0  1.011297  0  0  0.133226  0  1.010663  0  0  0.098515  0.128606  0  1.011995  0
H  H20  1  0.04084567  0.25091562  0.66385544  1  0  0.112282  0  0.927198  0  0  0.122091  0  0.998399  0  0  0.124791  0  0.995307  0  0  0.110723  0.120046  0  1.000708  0
H  H21  1  0.95914757  0.74908696  0.33614296  1  0  0.112271  0  0.927153  0  0  0.122039  0  0.998416  0  0  0.124741  0  0.995319  0  0  0.110702  0.119996  0  1.000723  0
H  H22  1  0.05670912  0.04745777  0.62407049  1  0  0.112705  0  0.936154  0  0  0.127388  0  0.994843  0  0  0.128406  0  0.995218  0  0  0.110143  0.126602  0  0.994707  0
H  H23  1  0.94328415  0.95254773  0.37592822  1  0  0.112705  0  0.936133  0  0  0.12735  0  0.994861  0  0  0.128367  0  0.995236  0  0  0.110152  0.126566  0  0.994724  0
H  H24  1  0.33938719  0.32734347  0.67584035  1  0  0.112407  0  0.934964  0  0  0.132575  0  0.984859  0  0  0.13349  0  0.986563  0  0  0.103774  0.131935  0  0.983707  0
H  H25  1  0.66061020  0.67265615  0.32416095  1  0  0.112425  0  0.934968  0  0  0.132574  0  0.98487  0  0  0.133486  0  0.986578  0  0  0.103763  0.131935  0  0.983716  0
H  H26  1  0.37966990  0.19571493  0.82039618  1  0  0.121006  0  0.949427  0  0  0.136724  0  1.008372  0  0  0.138676  0  1.00885  0  0  0.097902  0.135241  0  1.008211  0
H  H27  1  0.62033360  0.80427443  0.17960441  1  0  0.121073  0  0.949349  0  0  0.136762  0  1.008308  0  0  0.138744  0  1.00875  0  0  0.097946  0.13528  0  1.008142  0
C  C28  1  0.74020432  0.27849613  0.61302962  1  0  -0.278558  0  3.611698  0  0  -0.300052  0  3.862307  0  0  -0.306631  0  3.875451  0  0  -0.162732  -0.295487  0  3.853186  0
C  C29  1  0.25979035  0.72150935  0.38696989  1  0  -0.278425  0  3.611735  0  0  -0.299932  0  3.862372  0  0  -0.306513  0  3.87551  0  0  -0.162665  -0.29535  0  3.853234  0
C  C30  1  0.74674332  0.92664206  0.75688898  1  0  -0.266678  0  3.607751  0  0  -0.288907  0  3.856214  0  0  -0.294366  0  3.868055  0  0  -0.161855  -0.285026  0  3.848122  0
C  C31  1  0.25325960  0.07336340  0.24310646  1  0  -0.266746  0  3.607791  0  0  -0.289048  0  3.856289  0  0  -0.294508  0  3.86814  0  0  -0.161908  -0.285161  0  3.848208  0
C  C32  1  0.34743641  0.48746829  0.79282603  1  0  -0.140176  0  3.769543  0  0  -0.176762  0  4.01285  0  0  -0.177113  0  4.022903  0  0  -0.132786  -0.176312  0  4.005863  0
C  C33  1  0.65256512  0.51252545  0.20717947  1  0  -0.140083  0  3.769586  0  0  -0.17674  0  4.012909  0  0  -0.177106  0  4.02299  0  0  -0.132754  -0.176353  0  4.005991  0
C  C34  1  0.77137292  0.79693932  0.87774947  1  0  -0.163471  0  3.785697  0  0  -0.189652  0  4.013783  0  0  -0.193184  0  4.02193  0  0  -0.139525  -0.187067  0  4.008817  0
C  C35  1  0.22862789  0.20305883  0.12224884  1  0  -0.163463  0  3.785829  0  0  -0.189588  0  4.013857  0  0  -0.193159  0  4.022051  0  0  -0.139505  -0.186999  0  4.008903  0
C  C36  1  0.97185282  0.20797962  0.60350186  1  0  -0.140915  0  3.769385  0  0  -0.175842  0  4.009237  0  0  -0.176401  0  4.018302  0  0  -0.130085  -0.175225  0  4.002971  0
C  C37  1  0.02814666  0.79202732  0.39649334  1  0  -0.140811  0  3.76908  0  0  -0.175702  0  4.008929  0  0  -0.176256  0  4.017999  0  0  -0.130084  -0.175099  0  4.002663  0
C  C38  1  0.37676472  0.64282707  0.71247272  1  0  0.328545  0  3.69015  0  0  0.315347  0  3.983498  0  0  0.325621  0  4.000905  0  0  0.189042  0.308343  0  3.971798  0
C  C39  1  0.62323958  0.35716372  0.28753487  1  0  0.328545  0  3.690201  0  0  0.315347  0  3.983574  0  0  0.325619  0  4.000976  0  0  0.189041  0.308363  0  3.971887  0
C  C40  1  0.42058725  0.29830947  0.75809455  1  0  -0.271747  0  3.607714  0  0  -0.290659  0  3.85468  0  0  -0.297104  0  3.867062  0  0  -0.161846  -0.28607  0  3.845993  0
C  C41  1  0.57941012  0.70168429  0.24191016  1  0  -0.27188  0  3.607732  0  0  -0.290727  0  3.854673  0  0  -0.297195  0  3.867055  0  0  -0.161894  -0.286121  0  3.845996  0
C  C42  1  0.00887875  0.29199894  0.49139657  1  0  0.336166  0  3.669916  0  0  0.327367  0  3.949177  0  0  0.338515  0  3.966111  0  0  0.194968  0.319779  0  3.9377  0
C  C43  1  0.99112072  0.70799920  0.50860578  1  0  0.336103  0  3.669899  0  0  0.327323  0  3.949114  0  0  0.338466  0  3.966049  0  0  0.194972  0.31974  0  3.937639  0
C  C44  1  0.82827741  0.59537113  0.88424141  1  0  0.379254  0  3.606676  0  0  0.36386  0  3.878924  0  0  0.378459  0  3.89202  0  0  0.213366  0.353605  0  3.870716  0
C  C45  1  0.17172058  0.40462119  0.11575791  1  0  0.379198  0  3.606463  0  0  0.363779  0  3.878716  0  0  0.378391  0  3.891824  0  0  0.213302  0.353513  0  3.870518  0
Br  Br46  1  0.24300926  0.90879660  0.92025846  1  0  -0.507154  0  1.218745  0  0  -0.441583  0  1.553026  0  0  -0.459124  0  1.526919  0  0  -0.272873  -0.429208  0  1.570158  0
Br  Br47  1  0.75699504  0.09120006  0.07974411  1  0  -0.507147  0  1.218702  0  0  -0.441563  0  1.552951  0  0  -0.459104  0  1.526851  0  0  -0.272862  -0.429187  0  1.570084  0
N  N48  1  0.39876926  0.76553607  0.64528940  1  0  -0.440348  0  2.590366  0  0  -0.420424  0  2.810574  0  0  -0.431271  0  2.822392  0  0  -0.320973  -0.413242  0  2.80286  0
N  N49  1  0.60123783  0.23445471  0.35472059  1  0  -0.440386  0  2.590474  0  0  -0.420439  0  2.810644  0  0  -0.431295  0  2.82248  0  0  -0.320998  -0.413265  0  2.802931  0
N  N50  1  0.03463368  0.36240458  0.40092641  1  0  -0.440113  0  2.617304  0  0  -0.418381  0  2.846266  0  0  -0.431004  0  2.860145  0  0  -0.315669  -0.409927  0  2.83699  0
N  N51  1  0.96537130  0.63759648  0.59907218  1  0  -0.440127  0  2.617524  0  0  -0.418392  0  2.846481  0  0  -0.431015  0  2.860359  0  0  -0.315688  -0.40994  0  2.837204  0
N  N52  1  0.87652507  0.43168640  0.89063948  1  0  -0.409385  0  3.110987  0  0  -0.373125  0  3.437525  0  0  -0.379471  0  3.433432  0  0  -0.386719  -0.370043  0  3.440723  0
N  N53  1  0.12347513  0.56832199  0.10935789  1  0  -0.4094  0  3.110674  0  0  -0.373126  0  3.437201  0  0  -0.379465  0  3.433087  0  0  -0.386705  -0.370046  0  3.440413  0
