# generated using pymatgen
data_In2H6C5O11
_symmetry_space_group_name_H-M   'P 1'
_cell_length_a   8.63011885
_cell_length_b   10.82535798
_cell_length_c   12.44301030
_cell_angle_alpha   89.99986307
_cell_angle_beta   105.56501308
_cell_angle_gamma   90.00013116
_symmetry_Int_Tables_number   1
_chemical_formula_structural   In2H6C5O11
_chemical_formula_sum   'In8 H24 C20 O44'
_cell_volume   1119.84536437
_cell_formula_units_Z   4
loop_
 _symmetry_equiv_pos_site_id
 _symmetry_equiv_pos_as_xyz
  1  'x, y, z'
loop_
 _atom_site_type_symbol
 _atom_site_label
 _atom_site_symmetry_multiplicity
 _atom_site_fract_x
 _atom_site_fract_y
 _atom_site_fract_z
 _atom_site_occupancy
 _atom_site_hle17_bader_spin_density
 _atom_site_hle17_ddec_charge
 _atom_site_hle17_ddec_spin_density
 _atom_site_hle17_ddec_sum_bond_order
 _atom_site_hle17_magmom
 _atom_site_hse06_10hf_bader_spin_density
 _atom_site_hse06_10hf_ddec_charge
 _atom_site_hse06_10hf_ddec_spin_density
 _atom_site_hse06_10hf_ddec_sum_bond_order
 _atom_site_hse06_10hf_magmom
 _atom_site_hse06_bader_spin_density
 _atom_site_hse06_ddec_charge
 _atom_site_hse06_ddec_spin_density
 _atom_site_hse06_ddec_sum_bond_order
 _atom_site_hse06_magmom
 _atom_site_pbe_bader_spin_density
 _atom_site_pbe_cm5_charge
 _atom_site_pbe_ddec_charge
 _atom_site_pbe_ddec_spin_density
 _atom_site_pbe_ddec_sum_bond_order
 _atom_site_pbe_magmom
In  In0  1  0.13106039  0.88110340  0.78166968  1  0  1.709157  0  2.22463  0  0  1.530711  0  2.703942  0  0  1.599029  0  2.645512  0  0  0.773939  1.482677  0  2.743473  0
In  In1  1  0.36893897  0.38110268  0.71833154  1  0  1.709125  0  2.224587  0  0  1.530711  0  2.703892  0  0  1.599027  0  2.645465  0  0  0.773928  1.48268  0  2.743421  0
In  In2  1  0.86893987  0.11889633  0.21833209  1  0  1.709091  0  2.224631  0  0  1.530699  0  2.703931  0  0  1.59901  0  2.645507  0  0  0.773921  1.482669  0  2.743461  0
In  In3  1  0.63106250  0.61889612  0.28166885  1  0  1.70911  0  2.224699  0  0  1.530682  0  2.704015  0  0  1.598995  0  2.645591  0  0  0.773923  1.482652  0  2.743546  0
In  In4  1  0.76299063  0.75868301  0.82967094  1  0  1.70369  0  2.233796  0  0  1.524989  0  2.714251  0  0  1.59277  0  2.656134  0  0  0.767709  1.477192  0  2.753714  0
In  In5  1  0.73700502  0.25867942  0.67032932  1  0  1.703739  0  2.233832  0  0  1.525007  0  2.714287  0  0  1.592794  0  2.656171  0  0  0.767733  1.477214  0  2.753748  0
In  In6  1  0.23700242  0.24132133  0.17032547  1  0  1.703732  0  2.233844  0  0  1.525014  0  2.71429  0  0  1.592804  0  2.656176  0  0  0.767739  1.477227  0  2.75375  0
In  In7  1  0.26299885  0.74132123  0.32967312  1  0  1.703733  0  2.233842  0  0  1.525  0  2.7143  0  0  1.592786  0  2.656186  0  0  0.767736  1.477207  0  2.753759  0
H  H8  1  0.85852413  0.98525764  0.79195560  1  0  0.433592  0  0.861224  0  0  0.398288  0  0.933066  0  0  0.41088  0  0.914592  0  0  0.299446  0.389237  0  0.946346  0
H  H9  1  0.64148164  0.48525562  0.70804607  1  0  0.43361  0  0.861186  0  0  0.398317  0  0.933007  0  0  0.410907  0  0.914535  0  0  0.299446  0.389267  0  0.946285  0
H  H10  1  0.14147974  0.01474393  0.20804443  1  0  0.433606  0  0.861199  0  0  0.398303  0  0.933041  0  0  0.410894  0  0.914569  0  0  0.299446  0.389251  0  0.946323  0
H  H11  1  0.35852103  0.51474410  0.29195534  1  0  0.433613  0  0.861192  0  0  0.398317  0  0.933017  0  0  0.410907  0  0.914545  0  0  0.299453  0.389267  0  0.946296  0
H  H12  1  0.00858238  0.16054267  0.55210858  1  0  0.051156  0  0.920431  0  0  0.05556  0  0.993016  0  0  0.056261  0  0.987682  0  0  0.132427  0.0548  0  0.997022  0
H  H13  1  0.49141769  0.66054174  0.94789243  1  0  0.051313  0  0.920331  0  0  0.05565  0  0.99298  0  0  0.05635  0  0.987651  0  0  0.132463  0.054891  0  0.996983  0
H  H14  1  0.99141788  0.83945521  0.44789319  1  0  0.051247  0  0.920379  0  0  0.055593  0  0.993034  0  0  0.056291  0  0.987705  0  0  0.132435  0.054834  0  0.997037  0
H  H15  1  0.50858137  0.33945707  0.05210671  1  0  0.051256  0  0.920386  0  0  0.055601  0  0.993035  0  0  0.056298  0  0.987707  0  0  0.132448  0.054842  0  0.997039  0
H  H16  1  0.18321139  0.60340466  0.02353007  1  0  0.03689  0  0.89533  0  0  0.045965  0  0.961833  0  0  0.045867  0  0.956803  0  0  0.126146  0.045811  0  0.965565  0
H  H17  1  0.31678356  0.10340407  0.47646763  1  0  0.036937  0  0.895238  0  0  0.045958  0  0.961794  0  0  0.045858  0  0.956762  0  0  0.126153  0.045803  0  0.965527  0
H  H18  1  0.81678166  0.39659322  0.97646794  1  0  0.036861  0  0.895298  0  0  0.045896  0  0.961841  0  0  0.045799  0  0.956809  0  0  0.126126  0.045743  0  0.965573  0
H  H19  1  0.68322031  0.89659473  0.52353080  1  0  0.036932  0  0.895262  0  0  0.045958  0  0.961798  0  0  0.045862  0  0.956767  0  0  0.126154  0.045804  0  0.965531  0
H  H20  1  0.91571789  0.59501501  0.57263393  1  0  0.046238  0  0.909536  0  0  0.052991  0  0.978473  0  0  0.053185  0  0.973436  0  0  0.128031  0.052623  0  0.98222  0
H  H21  1  0.58427860  0.09501506  0.92737004  1  0  0.046282  0  0.909495  0  0  0.052999  0  0.978458  0  0  0.053193  0  0.973427  0  0  0.128028  0.052632  0  0.982202  0
H  H22  1  0.08427877  0.40498656  0.42736877  1  0  0.046242  0  0.909505  0  0  0.052933  0  0.978494  0  0  0.053128  0  0.973464  0  0  0.128016  0.052568  0  0.982235  0
H  H23  1  0.41572287  0.90498467  0.07262954  1  0  0.046237  0  0.909521  0  0  0.052933  0  0.978506  0  0  0.053126  0  0.973476  0  0  0.128008  0.052567  0  0.982247  0
H  H24  1  0.08553275  0.09427834  0.94937371  1  0  0.021026  0  0.923714  0  0  0.030063  0  0.991224  0  0  0.031401  0  0.985508  0  0  0.122753  0.028758  0  0.995522  0
H  H25  1  0.41446717  0.59427928  0.55062500  1  0  0.02102  0  0.92373  0  0  0.030061  0  0.991235  0  0  0.031399  0  0.98552  0  0  0.122746  0.028755  0  0.995534  0
H  H26  1  0.91446390  0.90572139  0.05062578  1  0  0.021057  0  0.923735  0  0  0.0301  0  0.991228  0  0  0.031437  0  0.985516  0  0  0.122775  0.028793  0  0.995527  0
H  H27  1  0.58553309  0.40572045  0.44937517  1  0  0.021037  0  0.923684  0  0  0.030075  0  0.991194  0  0  0.031413  0  0.98548  0  0  0.122758  0.028769  0  0.995492  0
H  H28  1  0.36589778  0.92679931  0.62282167  1  0  0.031272  0  0.927829  0  0  0.039639  0  0.997917  0  0  0.040063  0  0.992458  0  0  0.12629  0.039052  0  1.001983  0
H  H29  1  0.13409808  0.42679958  0.87717558  1  0  0.031156  0  0.928006  0  0  0.039573  0  0.998035  0  0  0.039994  0  0.992578  0  0  0.126264  0.038986  0  1.002103  0
H  H30  1  0.63409647  0.07320134  0.37717576  1  0  0.031149  0  0.928033  0  0  0.039568  0  0.998061  0  0  0.039985  0  0.992608  0  0  0.126257  0.038982  0  1.002127  0
H  H31  1  0.86590459  0.57320107  0.12282503  1  0  0.031142  0  0.928076  0  0  0.039574  0  0.998086  0  0  0.040017  0  0.992604  0  0  0.126253  0.038987  0  1.002154  0
C  C32  1  0.00452458  0.09341131  0.61785956  1  0  0.623004  0  3.808968  0  0  0.542328  0  4.126666  0  0  0.579835  0  4.114494  0  0  0.182087  0.516747  0  4.134361  0
C  C33  1  0.49547414  0.59341056  0.88214053  1  0  0.622874  0  3.80896  0  0  0.542243  0  4.126667  0  0  0.579752  0  4.114488  0  0  0.18209  0.51666  0  4.134362  0
C  C34  1  0.99547568  0.90658749  0.38214221  1  0  0.622853  0  3.809159  0  0  0.542198  0  4.126894  0  0  0.579711  0  4.114722  0  0  0.182066  0.516615  0  4.134587  0
C  C35  1  0.50452492  0.40658731  0.11785780  1  0  0.622878  0  3.809139  0  0  0.542246  0  4.126837  0  0  0.579759  0  4.114665  0  0  0.182098  0.516665  0  4.13453  0
C  C36  1  0.11169761  0.66735501  0.96015116  1  0  0.628017  0  3.849256  0  0  0.551187  0  4.165899  0  0  0.588435  0  4.154457  0  0  0.178189  0.525805  0  4.173037  0
C  C37  1  0.38829887  0.16735112  0.53984595  1  0  0.628091  0  3.84892  0  0  0.5513  0  4.165547  0  0  0.58855  0  4.154103  0  0  0.178243  0.525917  0  4.172685  0
C  C38  1  0.88829665  0.33264564  0.03984627  1  0  0.628254  0  3.848891  0  0  0.551454  0  4.165504  0  0  0.588702  0  4.15406  0  0  0.178333  0.526072  0  4.172641  0
C  C39  1  0.61170380  0.83264676  0.46015225  1  0  0.62807  0  3.849029  0  0  0.551279  0  4.165631  0  0  0.588525  0  4.154191  0  0  0.178278  0.525897  0  4.172764  0
C  C40  1  0.91603019  0.66252401  0.63916554  1  0  0.628602  0  3.833558  0  0  0.552419  0  4.14895  0  0  0.589526  0  4.137023  0  0  0.178045  0.527131  0  4.15648  0
C  C41  1  0.58396765  0.16252146  0.86083533  1  0  0.628658  0  3.833464  0  0  0.552504  0  4.148844  0  0  0.589605  0  4.136922  0  0  0.178079  0.527218  0  4.156374  0
C  C42  1  0.08396887  0.33747849  0.36083520  1  0  0.62869  0  3.833556  0  0  0.552562  0  4.148924  0  0  0.589661  0  4.137005  0  0  0.178059  0.527275  0  4.156457  0
C  C43  1  0.41603261  0.83747827  0.13916483  1  0  0.628695  0  3.833568  0  0  0.552557  0  4.148931  0  0  0.589659  0  4.137009  0  0  0.178103  0.527271  0  4.156462  0
C  C44  1  0.21643973  0.09160140  0.95805639  1  0  0.609102  0  3.83548  0  0  0.53304  0  4.145677  0  0  0.568671  0  4.13594  0  0  0.177187  0.508936  0  4.151725  0
C  C45  1  0.28356139  0.59160120  0.54194174  1  0  0.609  0  3.835607  0  0  0.532932  0  4.145811  0  0  0.568562  0  4.136078  0  0  0.177101  0.508828  0  4.151857  0
C  C46  1  0.78355813  0.90839925  0.04194413  1  0  0.609049  0  3.835478  0  0  0.533012  0  4.145663  0  0  0.56864  0  4.13593  0  0  0.177174  0.508908  0  4.151711  0
C  C47  1  0.71644128  0.40839760  0.45805806  1  0  0.609052  0  3.835568  0  0  0.532982  0  4.145777  0  0  0.568611  0  4.136043  0  0  0.177134  0.508878  0  4.151825  0
C  C48  1  0.43550249  0.87177847  0.69413943  1  0  0.613463  0  3.832696  0  0  0.536858  0  4.139837  0  0  0.5733  0  4.130345  0  0  0.180213  0.512132  0  4.145542  0
C  C49  1  0.06449685  0.37177511  0.80585859  1  0  0.613594  0  3.832801  0  0  0.536966  0  4.139954  0  0  0.573408  0  4.130462  0  0  0.180268  0.512238  0  4.145661  0
C  C50  1  0.56449658  0.12822588  0.30585810  1  0  0.613578  0  3.832821  0  0  0.536948  0  4.139973  0  0  0.573393  0  4.130484  0  0  0.180259  0.512221  0  4.145681  0
C  C51  1  0.93550461  0.62822462  0.19414099  1  0  0.613514  0  3.832958  0  0  0.536879  0  4.140106  0  0  0.573308  0  4.13062  0  0  0.180226  0.51215  0  4.145814  0
O  O52  1  0.58309792  0.85579390  0.69981672  1  0  -0.602083  0  2.084945  0  0  -0.53751  0  2.348586  0  0  -0.568772  0  2.338424  0  0  -0.282311  -0.515641  0  2.354644  0
O  O53  1  0.91690156  0.35578843  0.80018084  1  0  -0.602142  0  2.085061  0  0  -0.537537  0  2.34867  0  0  -0.568801  0  2.338504  0  0  -0.282323  -0.515675  0  2.354746  0
O  O54  1  0.41690114  0.14421321  0.30018081  1  0  -0.602155  0  2.085047  0  0  -0.537527  0  2.348625  0  0  -0.568793  0  2.338465  0  0  -0.282301  -0.515653  0  2.35467  0
O  O55  1  0.08309871  0.64421222  0.19981771  1  0  -0.602104  0  2.085077  0  0  -0.537484  0  2.348653  0  0  -0.568751  0  2.338501  0  0  -0.282304  -0.515618  0  2.354715  0
O  O56  1  0.19058660  0.74164552  0.91639550  1  0  -0.617184  0  2.08537  0  0  -0.55085  0  2.348346  0  0  -0.581356  0  2.337624  0  0  -0.28531  -0.529667  0  2.35491  0
O  O57  1  0.30941365  0.24164415  0.58360376  1  0  -0.617256  0  2.085303  0  0  -0.550934  0  2.348279  0  0  -0.581433  0  2.337533  0  0  -0.28532  -0.529751  0  2.354845  0
O  O58  1  0.80941487  0.25835420  0.08360489  1  0  -0.61732  0  2.085287  0  0  -0.550994  0  2.348256  0  0  -0.581494  0  2.337519  0  0  -0.285359  -0.529811  0  2.354823  0
O  O59  1  0.69058661  0.75835373  0.41639399  1  0  -0.61729  0  2.085369  0  0  -0.550942  0  2.348317  0  0  -0.581444  0  2.33758  0  0  -0.285356  -0.529759  0  2.354882  0
O  O60  1  0.91727586  0.91398979  0.83178420  1  0  -1.015947  0  1.849418  0  0  -0.93869  0  2.107674  0  0  -0.971235  0  2.073417  0  0  -0.530501  -0.915675  0  2.130831  0
O  O61  1  0.58272615  0.41398962  0.66821612  1  0  -1.015959  0  1.849302  0  0  -0.938712  0  2.107571  0  0  -0.971259  0  2.073313  0  0  -0.53052  -0.915697  0  2.130728  0
O  O62  1  0.08272440  0.08601086  0.16821596  1  0  -1.015952  0  1.84935  0  0  -0.938691  0  2.107604  0  0  -0.971243  0  2.073347  0  0  -0.530507  -0.915677  0  2.130763  0
O  O63  1  0.41727653  0.58601103  0.33178368  1  0  -1.01595  0  1.849376  0  0  -0.938694  0  2.107651  0  0  -0.971241  0  2.073392  0  0  -0.530516  -0.915678  0  2.130809  0
O  O64  1  0.89466782  0.10243161  0.66870291  1  0  -0.636973  0  2.114785  0  0  -0.562062  0  2.379085  0  0  -0.592503  0  2.364966  0  0  -0.284168  -0.540867  0  2.388032  0
O  O65  1  0.60532989  0.60243307  0.83129645  1  0  -0.636968  0  2.114813  0  0  -0.562072  0  2.379101  0  0  -0.592507  0  2.364969  0  0  -0.28417  -0.540878  0  2.388049  0
O  O66  1  0.10533124  0.89756534  0.33129944  1  0  -0.636912  0  2.114839  0  0  -0.562023  0  2.379192  0  0  -0.592438  0  2.365006  0  0  -0.284163  -0.540827  0  2.38814  0
O  O67  1  0.39466917  0.39756666  0.16870108  1  0  -0.636926  0  2.114808  0  0  -0.562048  0  2.379149  0  0  -0.592465  0  2.364966  0  0  -0.284185  -0.540854  0  2.388097  0
O  O68  1  0.11038955  0.00912409  0.63907408  1  0  -0.601516  0  2.058095  0  0  -0.536633  0  2.31943  0  0  -0.567887  0  2.308861  0  0  -0.280066  -0.514839  0  2.325801  0
O  O69  1  0.38961018  0.50912229  0.86092718  1  0  -0.601508  0  2.058063  0  0  -0.536625  0  2.319366  0  0  -0.567878  0  2.308795  0  0  -0.280093  -0.514842  0  2.325763  0
O  O70  1  0.88961071  0.99087471  0.36092850  1  0  -0.601448  0  2.058145  0  0  -0.536579  0  2.319477  0  0  -0.567833  0  2.308906  0  0  -0.280055  -0.514795  0  2.325869  0
O  O71  1  0.61039008  0.49087466  0.13907298  1  0  -0.601472  0  2.058152  0  0  -0.536608  0  2.319476  0  0  -0.567865  0  2.308908  0  0  -0.280075  -0.514819  0  2.325857  0
O  O72  1  0.30990228  0.15912754  0.03081982  1  0  -0.592466  0  2.064837  0  0  -0.529279  0  2.32873  0  0  -0.558475  0  2.317286  0  0  -0.282591  -0.509146  0  2.335928  0
O  O73  1  0.19009760  0.65912785  0.46917948  1  0  -0.592417  0  2.064965  0  0  -0.529222  0  2.32885  0  0  -0.558417  0  2.317407  0  0  -0.282552  -0.509087  0  2.336046  0
O  O74  1  0.69009437  0.84087311  0.96918208  1  0  -0.59244  0  2.064797  0  0  -0.529268  0  2.328678  0  0  -0.558459  0  2.317231  0  0  -0.282595  -0.509135  0  2.335877  0
O  O75  1  0.80990387  0.34087095  0.53082091  1  0  -0.592481  0  2.065  0  0  -0.529269  0  2.328865  0  0  -0.558463  0  2.31742  0  0  -0.282577  -0.509133  0  2.336062  0
O  O76  1  0.26960005  0.01993554  0.89544452  1  0  -0.590038  0  2.069473  0  0  -0.52635  0  2.331764  0  0  -0.555954  0  2.321234  0  0  -0.280459  -0.505949  0  2.338267  0
O  O77  1  0.23039971  0.51993415  0.60455350  1  0  -0.58997  0  2.069409  0  0  -0.526297  0  2.331717  0  0  -0.555902  0  2.321191  0  0  -0.280406  -0.505895  0  2.338219  0
O  O78  1  0.73040022  0.98006511  0.10455725  1  0  -0.590026  0  2.069439  0  0  -0.526389  0  2.331769  0  0  -0.555994  0  2.321243  0  0  -0.280481  -0.505988  0  2.338274  0
O  O79  1  0.76960055  0.48006373  0.39544505  1  0  -0.589996  0  2.06942  0  0  -0.526326  0  2.331733  0  0  -0.55593  0  2.321205  0  0  -0.280438  -0.505925  0  2.338237  0
O  O80  1  0.36592426  0.82789154  0.76359410  1  0  -0.597765  0  2.088966  0  0  -0.527967  0  2.348047  0  0  -0.558261  0  2.337393  0  0  -0.276183  -0.506886  0  2.354556  0
O  O81  1  0.13407980  0.32789035  0.73640488  1  0  -0.5977  0  2.088835  0  0  -0.527981  0  2.348041  0  0  -0.558268  0  2.33738  0  0  -0.276189  -0.506897  0  2.35455  0
O  O82  1  0.63408082  0.17211004  0.23640454  1  0  -0.597696  0  2.088839  0  0  -0.527995  0  2.34806  0  0  -0.558281  0  2.337398  0  0  -0.276216  -0.506913  0  2.354569  0
O  O83  1  0.86592287  0.67210846  0.26359573  1  0  -0.597697  0  2.088949  0  0  -0.527942  0  2.348084  0  0  -0.558236  0  2.33744  0  0  -0.276166  -0.506859  0  2.354593  0
O  O84  1  0.80916404  0.64856679  0.69163090  1  0  -0.628287  0  2.071068  0  0  -0.559636  0  2.329396  0  0  -0.589679  0  2.317463  0  0  -0.290252  -0.538833  0  2.336988  0
O  O85  1  0.69083377  0.14856274  0.80837241  1  0  -0.628329  0  2.071138  0  0  -0.559673  0  2.329455  0  0  -0.589716  0  2.317525  0  0  -0.290235  -0.538869  0  2.337048  0
O  O86  1  0.19083382  0.35143663  0.30837123  1  0  -0.62833  0  2.071127  0  0  -0.55969  0  2.329439  0  0  -0.589734  0  2.317509  0  0  -0.290242  -0.538888  0  2.337035  0
O  O87  1  0.30916770  0.85143699  0.19162798  1  0  -0.628343  0  2.071133  0  0  -0.559683  0  2.329436  0  0  -0.589726  0  2.317503  0  0  -0.290229  -0.53888  0  2.33703  0
O  O88  1  0.96016237  0.65647580  0.94121958  1  0  -0.624298  0  2.081748  0  0  -0.5608  0  2.348344  0  0  -0.59108  0  2.336644  0  0  -0.290552  -0.539771  0  2.355556  0
O  O89  1  0.53983425  0.15646938  0.55877867  1  0  -0.624391  0  2.081542  0  0  -0.560843  0  2.348042  0  0  -0.591119  0  2.336337  0  0  -0.290631  -0.539833  0  2.3553  0
O  O90  1  0.03983308  0.34352855  0.05877808  1  0  -0.624411  0  2.081549  0  0  -0.560864  0  2.348063  0  0  -0.591143  0  2.336358  0  0  -0.290643  -0.539854  0  2.355323  0
O  O91  1  0.46016842  0.84352942  0.44122114  1  0  -0.624351  0  2.081649  0  0  -0.560811  0  2.34817  0  0  -0.591089  0  2.336468  0  0  -0.290627  -0.539802  0  2.355427  0
O  O92  1  0.02370470  0.74513661  0.65420398  1  0  -0.628661  0  2.11342  0  0  -0.564249  0  2.380612  0  0  -0.594023  0  2.368235  0  0  -0.290054  -0.543603  0  2.388373  0
O  O93  1  0.47629435  0.24513574  0.84579586  1  0  -0.628723  0  2.113315  0  0  -0.564304  0  2.38049  0  0  -0.594078  0  2.368116  0  0  -0.290096  -0.543658  0  2.388253  0
O  O94  1  0.97629556  0.25486404  0.34579699  1  0  -0.628715  0  2.113363  0  0  -0.5643  0  2.380526  0  0  -0.594074  0  2.368154  0  0  -0.29007  -0.543654  0  2.388289  0
O  O95  1  0.52370711  0.75486306  0.15420373  1  0  -0.628689  0  2.113387  0  0  -0.564268  0  2.380546  0  0  -0.594042  0  2.368173  0  0  -0.290095  -0.543623  0  2.38831  0
