# generated using pymatgen
data_Zn2H21C38S3N2O11
_symmetry_space_group_name_H-M   'P 1'
_cell_length_a   12.74401658
_cell_length_b   13.85148194
_cell_length_c   28.06858515
_cell_angle_alpha   89.79923939
_cell_angle_beta   89.77637788
_cell_angle_gamma   89.90704301
_symmetry_Int_Tables_number   1
_chemical_formula_structural   Zn2H21C38S3N2O11
_chemical_formula_sum   'Zn4 H42 C76 S6 N4 O22'
_cell_volume   4954.69076030
_cell_formula_units_Z   2
loop_
 _symmetry_equiv_pos_site_id
 _symmetry_equiv_pos_as_xyz
  1  'x, y, z'
loop_
 _atom_site_type_symbol
 _atom_site_label
 _atom_site_symmetry_multiplicity
 _atom_site_fract_x
 _atom_site_fract_y
 _atom_site_fract_z
 _atom_site_occupancy
 _atom_site_pbe_bader_charge
 _atom_site_pbe_bader_spin_density
 _atom_site_pbe_cm5_charge
 _atom_site_pbe_ddec_charge
 _atom_site_pbe_ddec_spin_density
 _atom_site_pbe_ddec_sum_bond_order
 _atom_site_pbe_magmom
Zn  Zn0  1  0.50137077  0.39973974  0.49896474  1  1.266778  0  0.66293  0.813729  0  2.434217  0
Zn  Zn1  1  0.49792903  0.60039213  0.49881407  1  1.274196  0  0.665181  0.810162  0  2.451976  0
Zn  Zn2  1  0.50162226  0.60066848  0.04416797  1  1.277232  0  0.663303  0.81402  0  2.435957  0
Zn  Zn3  1  0.49907993  0.40003225  0.04435358  1  1.271096  0  0.665047  0.809693  0  2.450733  0
H  H4  1  0.38445506  0.24729532  0.55221439  1  0.1081  0  0.128229  0.104723  0  0.982807  0
H  H5  1  0.31036566  0.08817055  0.58588541  1  0.09781  0  0.120405  0.146196  0  0.968516  0
H  H6  1  0.61329016  0.25134511  0.44835754  1  0.094039  0  0.124487  0.093199  0  1.01076  0
H  H7  1  0.61537476  0.75328852  0.44696084  1  0.091478  0  0.128362  0.102618  0  0.990345  0
H  H8  1  0.69011177  0.91188061  0.41381920  1  0.08686  0  0.119674  0.144517  0  0.969644  0
H  H9  1  0.38586069  0.74862629  0.55048190  1  0.096219  0  0.124516  0.09282  0  1.010598  0
H  H10  1  0.50002864  0.65764252  0.65128030  1  0.091829  0  0.100491  0.107626  0  1.010219  0
H  H11  1  0.50064266  0.74737415  0.72872631  1  0.086735  0  0.107691  0.132198  0  0.982561  0
H  H12  1  0.49886884  0.35011473  0.64835085  1  0.047288  0  0.097794  0.088998  0  1.051081  0
H  H13  1  0.49986375  0.34212373  0.89181819  1  0.077567  0  0.10012  0.1067  0  1.011143  0
H  H14  1  0.49924884  0.25243961  0.81440492  1  0.083686  0  0.10814  0.132595  0  0.983106  0
H  H15  1  0.50047969  0.64967787  0.89479665  1  0.047827  0  0.097922  0.08955  0  1.050822  0
H  H16  1  0.38504173  0.75370286  0.99121081  1  0.112765  0  0.128424  0.104736  0  0.981593  0
H  H17  1  0.31176770  0.91312492  0.95769751  1  0.085496  0  0.120075  0.145345  0  0.968903  0
H  H18  1  0.61376183  0.74835485  0.09429305  1  0.089098  0  0.124379  0.093006  0  1.012189  0
H  H19  1  0.61680181  0.24649741  0.09585751  1  0.079892  0  0.1283  0.10224  0  0.990341  0
H  H20  1  0.69130719  0.08742650  0.12870470  1  0.091056  0  0.119553  0.144961  0  0.969682  0
H  H21  1  0.38791297  0.25223204  0.99284513  1  0.074357  0  0.124651  0.093437  0  1.010459  0
H  H22  1  0.30032867  0.83497998  0.58933912  1  0.6012  0  0.342492  0.370245  0  0.880955  0
H  H23  1  0.69899728  0.16527651  0.40987283  1  0.599122  0  0.342271  0.371118  0  0.882001  0
H  H24  1  0.50322419  0.75168990  0.85388998  1  0.580077  0  0.323281  0.35247  0  0.915248  0
H  H25  1  0.50125295  0.24815918  0.68922828  1  0.588906  0  0.323393  0.352324  0  0.914795  0
H  H26  1  0.30217488  0.16633925  0.95427604  1  0.591293  0  0.342418  0.370563  0  0.880349  0
H  H27  1  0.69975722  0.83394187  0.13245718  1  0.591335  0  0.341727  0.370164  0  0.883124  0
H  H28  1  0.57075209  0.69961510  0.36001924  1  0.039294  0  0.092409  0.129489  0  1.001987  0
H  H29  1  0.50022977  0.73193462  0.30743675  1  0.03853  0  0.0861  0.121724  0  1.004395  0
H  H30  1  0.43278993  0.69911632  0.36111104  1  0.07916  0  0.099118  0.145004  0  0.981467  0
H  H31  1  0.57073566  0.29983578  0.18290211  1  0.041986  0  0.09212  0.128945  0  1.002803  0
H  H32  1  0.49998459  0.26776899  0.23567134  1  0.034158  0  0.086071  0.121002  0  1.00541  0
H  H33  1  0.43280182  0.30095527  0.18219213  1  0.083482  0  0.099091  0.144764  0  0.980543  0
H  H34  1  0.19521166  0.29967167  0.53153754  1  0.050714  0  0.093196  0.130745  0  1.001608  0
H  H35  1  0.07969468  0.26774070  0.49948672  1  0.041523  0  0.086505  0.122243  0  1.004938  0
H  H36  1  0.19795858  0.30047049  0.46890227  1  0.069019  0  0.098776  0.14456  0  0.981904  0
H  H37  1  0.80220501  0.69953084  0.53112748  1  0.068811  0  0.098847  0.14459  0  0.980566  0
H  H38  1  0.92031334  0.73199685  0.50042271  1  0.045288  0  0.086414  0.122293  0  1.004831  0
H  H39  1  0.80438418  0.70052942  0.46850089  1  0.048185  0  0.092522  0.130055  0  1.003248  0
H  H40  1  0.19549561  0.70150825  0.01240490  1  0.067394  0  0.092955  0.129802  0  1.001395  0
H  H41  1  0.07981558  0.73366967  0.04476208  1  0.022664  0  0.086476  0.121782  0  1.004575  0
H  H42  1  0.19809182  0.70099189  0.07502642  1  0.066701  0  0.099014  0.144233  0  0.98137  0
H  H43  1  0.80369042  0.30177874  0.01372231  1  0.061244  0  0.099011  0.144651  0  0.981538  0
H  H44  1  0.92168538  0.26961935  0.04430243  1  -0.001807  0  0.086542  0.122234  0  1.005112  0
H  H45  1  0.80543799  0.30144759  0.07636120  1  0.017116  0  0.09243  0.129413  0  1.002324  0
C  C46  1  0.49814057  0.50337096  0.59256991  1  1.518762  0  0.213528  0.595949  0  4.158881  0
C  C47  1  0.29394526  0.50295088  0.49968784  1  1.579527  0  0.202801  0.603161  0  4.212829  0
C  C48  1  0.50167905  0.49695642  0.40527520  1  1.610841  0  0.202812  0.602993  0  4.212152  0
C  C49  1  0.70547695  0.49750408  0.49869013  1  1.554881  0  0.202429  0.602691  0  4.215351  0
C  C50  1  0.49920011  0.49634450  0.95058362  1  1.506358  0  0.213608  0.596366  0  4.159576  0
C  C51  1  0.29466254  0.49826804  0.04418606  1  1.561154  0  0.203013  0.602545  0  4.215392  0
C  C52  1  0.50188822  0.50277538  0.13788370  1  1.620191  0  0.202296  0.602165  0  4.214536  0
C  C53  1  0.70613485  0.50415785  0.04458172  1  1.593343  0  0.202729  0.602911  0  4.214694  0
C  C54  1  0.43478375  0.20317452  0.52946178  1  0.467986  0  0.062373  0.045407  0  3.863508  0
C  C55  1  0.43146452  0.10180501  0.53100997  1  0.076597  0  0.002948  0.060229  0  4.06679  0
C  C56  1  0.36310549  0.04948019  0.56193986  1  -0.00878  0  -0.098205  -0.261047  0  3.942149  0
C  C57  1  0.56465821  0.20425513  0.47055584  1  0.541568  0  0.05151  0.042443  0  3.90818  0
C  C58  1  0.56887158  0.10337031  0.46879796  1  -0.04021  0  -0.006662  -0.07542  0  4.036778  0
C  C59  1  0.63804604  0.04994832  0.43751002  1  0.507595  0  0.096818  0.289685  0  4.08105  0
C  C60  1  0.56512103  0.79720459  0.46981713  1  0.498621  0  0.064705  0.04869  0  3.861431  0
C  C61  1  0.56889226  0.89853391  0.46858527  1  0.053826  0  0.004036  0.060624  0  4.064551  0
C  C62  1  0.63746029  0.95072633  0.43773598  1  0.016752  0  -0.098319  -0.259791  0  3.942024  0
C  C63  1  0.43496942  0.79583723  0.52856415  1  0.526021  0  0.050744  0.040227  0  3.910094  0
C  C64  1  0.43132718  0.89674661  0.53070116  1  -0.042494  0  -0.00664  -0.075841  0  4.038041  0
C  C65  1  0.36238327  0.95022889  0.56208877  1  0.521697  0  0.095579  0.287135  0  4.083361  0
C  C66  1  0.50048341  0.05109156  0.49975923  1  0.103793  0  0.009303  0.023188  0  3.95963  0
C  C67  1  0.49991673  0.94914685  0.49987698  1  -0.0555  0  0.008201  0.022613  0  3.960418  0
C  C68  1  0.50161205  0.58018471  0.32300498  1  0.060253  0  -0.009632  0.138038  0  3.97091  0
C  C69  1  0.50169470  0.41954778  0.22014369  1  0.090447  0  -0.009919  0.136582  0  3.970823  0
C  C70  1  0.50179785  0.49956537  0.35283792  1  -0.23061  0  -0.030395  -0.183201  0  3.926509  0
C  C71  1  0.50192712  0.50017443  0.19031999  1  -0.242424  0  -0.029882  -0.181726  0  3.925597  0
C  C72  1  0.50201276  0.44953163  0.26838580  1  -0.197841  0  -0.029238  -0.07547  0  4.078941  0
C  C73  1  0.50198063  0.55017938  0.27476918  1  -0.118474  0  -0.029206  -0.077078  0  4.080579  0
C  C74  1  0.49906874  0.58988376  0.67115699  1  -0.107466  0  -0.086916  -0.149437  0  3.931761  0
C  C75  1  0.49928577  0.59048109  0.72119766  1  0.01886  0  -0.00644  0.097757  0  4.066498  0
C  C76  1  0.50004093  0.67841050  0.74759248  1  0.021993  0  -0.111829  -0.276306  0  3.974677  0
C  C77  1  0.49856775  0.41492512  0.67042896  1  0.012972  0  -0.096856  -0.160242  0  3.998179  0
C  C78  1  0.49877157  0.41174179  0.72025676  1  -0.109141  0  -0.018202  -0.035926  0  4.055151  0
C  C79  1  0.49892658  0.32216847  0.74676275  1  0.438004  0  0.079498  0.269614  0  4.097962  0
C  C80  1  0.49923615  0.40991729  0.87196916  1  -0.065792  0  -0.086645  -0.147989  0  3.931675  0
C  C81  1  0.49904026  0.40934304  0.82193414  1  0.033106  0  -0.006778  0.096632  0  4.067754  0
C  C82  1  0.49897172  0.32140155  0.79554027  1  0.010994  0  -0.112947  -0.276896  0  3.977455  0
C  C83  1  0.49975128  0.58486860  0.87272353  1  0.035131  0  -0.096644  -0.160831  0  3.997062  0
C  C84  1  0.49969022  0.58807220  0.82289262  1  -0.040369  0  -0.018648  -0.035608  0  4.054982  0
C  C85  1  0.50026106  0.67764216  0.79637718  1  0.426968  0  0.079373  0.269461  0  4.096797  0
C  C86  1  0.49848668  0.50311372  0.64598840  1  0.069896  0  -0.021827  -0.018225  0  4.006043  0
C  C87  1  0.49896605  0.50027606  0.74630477  1  -0.00033  0  -0.001343  0.006708  0  3.935676  0
C  C88  1  0.49933804  0.49665750  0.89715998  1  0.001223  0  -0.021683  -0.018575  0  4.005216  0
C  C89  1  0.49915044  0.49955810  0.79683308  1  0.090403  0  -0.001285  0.007171  0  3.936296  0
C  C90  1  0.11332160  0.41940347  0.49995238  1  -0.00103  0  -0.009132  0.138248  0  3.970237  0
C  C91  1  0.88621459  0.58045126  0.49987228  1  0.007397  0  -0.009256  0.137782  0  3.970332  0
C  C92  1  0.17860393  0.49996818  0.50004208  1  -0.133071  0  -0.029366  -0.182037  0  3.927562  0
C  C93  1  0.82084197  0.49995274  0.49931775  1  -0.130415  0  -0.029825  -0.182853  0  3.926608  0
C  C94  1  0.99250354  0.55023486  0.50018440  1  -0.117908  0  -0.029877  -0.076568  0  4.079277  0
C  C95  1  0.00696684  0.44954050  0.49996535  1  -0.195265  0  -0.028965  -0.075109  0  4.075896  0
C  C96  1  0.43556269  0.79752469  0.01376750  1  0.474192  0  0.062371  0.046094  0  3.861389  0
C  C97  1  0.43273386  0.89890995  0.01216940  1  0.036899  0  0.002859  0.059148  0  4.067156  0
C  C98  1  0.36462464  0.95156669  0.98143873  1  0.074265  0  -0.097974  -0.260162  0  3.941488  0
C  C99  1  0.56527704  0.79573493  0.07228220  1  0.544094  0  0.051714  0.043707  0  3.90682  0
C  C100  1  0.56984988  0.89659140  0.07400562  1  -0.029957  0  -0.006551  -0.076051  0  4.038121  0
C  C101  1  0.63903001  0.94964427  0.10511339  1  0.495742  0  0.096753  0.290534  0  4.080942  0
C  C102  1  0.56666597  0.20283123  0.07308393  1  0.508141  0  0.064121  0.047253  0  3.86032  0
C  C103  1  0.57032736  0.10147828  0.07426658  1  0.067286  0  0.004449  0.062369  0  4.063677  0
C  C104  1  0.63862782  0.04887807  0.10492975  1  0.017877  0  -0.098511  -0.261555  0  3.941976  0
C  C105  1  0.43686485  0.20483005  0.01463550  1  0.546432  0  0.05028  0.038393  0  3.912113  0
C  C106  1  0.43312548  0.10394751  0.01247422  1  -0.001006  0  -0.007139  -0.075461  0  4.039091  0
C  C107  1  0.36414551  0.05081331  0.98129156  1  0.477801  0  0.096087  0.288135  0  4.080315  0
C  C108  1  0.50179728  0.94925504  0.04321372  1  -0.068119  0  0.008973  0.023819  0  3.960241  0
C  C109  1  0.50146627  0.05119943  0.04311035  1  0.0739  0  0.009144  0.022302  0  3.962617  0
C  C110  1  0.11383116  0.58197063  0.04437366  1  0.054548  0  -0.009638  0.13701  0  3.969948  0
C  C111  1  0.88709893  0.42114630  0.04454268  1  0.170862  0  -0.009246  0.137953  0  3.971565  0
C  C112  1  0.17930308  0.50132248  0.04431450  1  -0.167927  0  -0.029837  -0.18255  0  3.927565  0
C  C113  1  0.82150639  0.50168825  0.04460890  1  -0.231637  0  -0.02998  -0.183  0  3.928975  0
C  C114  1  0.99332476  0.45127339  0.04443355  1  -0.223326  0  -0.02986  -0.077682  0  4.08093  0
C  C115  1  0.00754391  0.55194831  0.04445468  1  -0.138029  0  -0.028978  -0.074881  0  4.076029  0
C  C116  1  0.50117556  0.68351062  0.33848456  1  -0.029907  0  -0.235929  -0.38985  0  3.976558  0
C  C117  1  0.50113069  0.31623396  0.20464053  1  -0.069028  0  -0.235772  -0.3882  0  3.976201  0
C  C118  1  0.14789785  0.31604481  0.49987577  1  -0.040484  0  -0.235726  -0.390985  0  3.977578  0
C  C119  1  0.85193789  0.68389622  0.50004664  1  -0.041434  0  -0.235734  -0.390565  0  3.976727  0
C  C120  1  0.14814430  0.68530693  0.04422465  1  -0.046361  0  -0.23544  -0.388544  0  3.974371  0
C  C121  1  0.85313988  0.31772433  0.04465729  1  0.026269  0  -0.235906  -0.389884  0  3.977024  0
S  S122  1  0.50185557  0.38997006  0.32246128  1  0.212693  0  0.047186  0.079444  0  2.810536  0
S  S123  1  0.50188904  0.60975674  0.22069910  1  0.223279  0  0.04726  0.079504  0  2.80955  0
S  S124  1  0.11129131  0.60965406  0.50023836  1  0.210733  0  0.047723  0.079354  0  2.813556  0
S  S125  1  0.88809656  0.39021918  0.49946612  1  0.214163  0  0.047986  0.080247  0  2.809527  0
S  S126  1  0.11222907  0.39171983  0.04440002  1  0.20666  0  0.048134  0.080663  0  2.813245  0
S  S127  1  0.88849550  0.61137355  0.04443725  1  0.214293  0  0.048421  0.080632  0  2.809172  0
N  N128  1  0.49931562  0.25136201  0.50011436  1  -1.234312  0  -0.315938  -0.170623  0  3.560088  0
N  N129  1  0.50011638  0.74885662  0.49883843  1  -1.220616  0  -0.31669  -0.171817  0  3.557057  0
N  N130  1  0.49979176  0.74899122  0.04295066  1  -1.223621  0  -0.316505  -0.171612  0  3.559183  0
N  N131  1  0.50187624  0.25152121  0.04423903  1  -1.244825  0  -0.316108  -0.16999  0  3.5547  0
O  O132  1  0.49997122  0.42153372  0.57190300  1  -1.165355  0  -0.321338  -0.552378  0  2.320946  0
O  O133  1  0.49611649  0.58531586  0.57182913  1  -1.170491  0  -0.320988  -0.551037  0  2.330189  0
O  O134  1  0.33672997  0.58641421  0.49993816  1  -1.165859  0  -0.328904  -0.556596  0  2.322729  0
O  O135  1  0.34221345  0.42208861  0.49905870  1  -1.160081  0  -0.313844  -0.537029  0  2.329959  0
O  O136  1  0.49936613  0.57821011  0.42664485  1  -1.163677  0  -0.314417  -0.536846  0  2.331229  0
O  O137  1  0.50371346  0.41389353  0.42526038  1  -1.169209  0  -0.328981  -0.557506  0  2.313876  0
O  O138  1  0.66212610  0.41424703  0.49810683  1  -1.162635  0  -0.328681  -0.555018  0  2.323448  0
O  O139  1  0.65775530  0.57858802  0.49883721  1  -1.154131  0  -0.31371  -0.538006  0  2.330595  0
O  O140  1  0.50105680  0.57813507  0.97127338  1  -1.165199  0  -0.321218  -0.552298  0  2.320694  0
O  O141  1  0.49721763  0.41437608  0.97131961  1  -1.172436  0  -0.321057  -0.55155  0  2.331117  0
O  O142  1  0.33776190  0.41481348  0.04383419  1  -1.161835  0  -0.329097  -0.556491  0  2.321688  0
O  O143  1  0.34260807  0.57914894  0.04445667  1  -1.164133  0  -0.313812  -0.536092  0  2.332416  0
O  O144  1  0.50006826  0.42148427  0.11654547  1  -1.1616  0  -0.314822  -0.536958  0  2.333033  0
O  O145  1  0.50353482  0.58581849  0.11787861  1  -1.164548  0  -0.328533  -0.557386  0  2.31494  0
O  O146  1  0.66249054  0.58741498  0.04497493  1  -1.16684  0  -0.328734  -0.554943  0  2.323326  0
O  O147  1  0.65867392  0.42308679  0.04407099  1  -1.172685  0  -0.313627  -0.537859  0  2.329611  0
O  O148  1  0.29529745  0.90483004  0.59251496  1  -1.099197  0  -0.339043  -0.420873  0  2.242973  0
O  O149  1  0.70510189  0.09542002  0.40709737  1  -1.101833  0  -0.341132  -0.425301  0  2.242547  0
O  O150  1  0.50084945  0.76417443  0.81972502  1  -1.10073  0  -0.361168  -0.440307  0  2.244112  0
O  O151  1  0.49885526  0.23565446  0.72339939  1  -1.108807  0  -0.361342  -0.440272  0  2.243274  0
O  O152  1  0.29713538  0.09650864  0.95110269  1  -1.089872  0  -0.339526  -0.422204  0  2.242635  0
O  O153  1  0.70591025  0.90377857  0.13529192  1  -1.095221  0  -0.340621  -0.424519  0  2.243953  0
