# generated using pymatgen
data_Ag2H9C13S2N3O7F6
_symmetry_space_group_name_H-M   'P 1'
_cell_length_a   10.28215555
_cell_length_b   10.27984147
_cell_length_c   11.11231868
_cell_angle_alpha   96.20707286
_cell_angle_beta   103.23550067
_cell_angle_gamma   116.66626203
_symmetry_Int_Tables_number   1
_chemical_formula_structural   Ag2H9C13S2N3O7F6
_chemical_formula_sum   'Ag4 H18 C26 S4 N6 O14 F12'
_cell_volume   991.27235520
_cell_formula_units_Z   2
loop_
 _symmetry_equiv_pos_site_id
 _symmetry_equiv_pos_as_xyz
  1  'x, y, z'
loop_
 _atom_site_type_symbol
 _atom_site_label
 _atom_site_symmetry_multiplicity
 _atom_site_fract_x
 _atom_site_fract_y
 _atom_site_fract_z
 _atom_site_occupancy
 _atom_site_hle17_bader_spin_density
 _atom_site_hle17_ddec_charge
 _atom_site_hle17_ddec_spin_density
 _atom_site_hle17_ddec_sum_bond_order
 _atom_site_hle17_magmom
 _atom_site_hse06_10hf_bader_spin_density
 _atom_site_hse06_10hf_ddec_charge
 _atom_site_hse06_10hf_ddec_spin_density
 _atom_site_hse06_10hf_ddec_sum_bond_order
 _atom_site_hse06_10hf_magmom
 _atom_site_hse06_bader_spin_density
 _atom_site_hse06_ddec_charge
 _atom_site_hse06_ddec_spin_density
 _atom_site_hse06_ddec_sum_bond_order
 _atom_site_hse06_magmom
 _atom_site_pbe_bader_spin_density
 _atom_site_pbe_cm5_charge
 _atom_site_pbe_ddec_charge
 _atom_site_pbe_ddec_spin_density
 _atom_site_pbe_ddec_sum_bond_order
 _atom_site_pbe_magmom
Ag  Ag0  1  0.27277253  0.18504402  0.43908501  1  0  0.632886  0  1.288128  0  0  0.505026  0  1.723177  0  0  0.531084  0  1.676273  0  0  0.471407  0.486811  0  1.755241  0
Ag  Ag1  1  0.72722637  0.81495726  0.56091556  1  0  0.632889  0  1.288135  0  0  0.505009  0  1.723195  0  0  0.531065  0  1.676295  0  0  0.471414  0.486805  0  1.755255  0
Ag  Ag2  1  0.19868698  0.80553602  0.52954405  1  0  0.685688  0  1.183225  0  0  0.566089  0  1.590489  0  0  0.593169  0  1.546182  0  0  0.469568  0.547541  0  1.620687  0
Ag  Ag3  1  0.80131236  0.19446414  0.47045560  1  0  0.68567  0  1.183236  0  0  0.566074  0  1.590503  0  0  0.593151  0  1.546198  0  0  0.469568  0.547528  0  1.620704  0
H  H4  1  0.57723850  0.58197504  0.20620737  1  0  0.11126  0  0.976484  0  0  0.117212  0  1.0438  0  0  0.120272  0  1.043354  0  0  0.101172  0.115049  0  1.044193  0
H  H5  1  0.42276184  0.41802512  0.79379250  1  0  0.111215  0  0.976451  0  0  0.117164  0  1.043777  0  0  0.120224  0  1.043331  0  0  0.101157  0.115002  0  1.04417  0
H  H6  1  0.35614629  0.58649438  0.06034935  1  0  0.09548  0  0.928762  0  0  0.106765  0  0.986794  0  0  0.109053  0  0.985018  0  0  0.106611  0.10512  0  0.987924  0
H  H7  1  0.64385405  0.41350579  0.93964963  1  0  0.095437  0  0.928792  0  0  0.106729  0  0.986808  0  0  0.109016  0  0.985033  0  0  0.106602  0.105083  0  0.987938  0
H  H8  1  0.08979607  0.41243466  0.06334803  1  0  0.098534  0  0.951309  0  0  0.108804  0  1.012248  0  0  0.111612  0  1.011383  0  0  0.101014  0.106648  0  1.013196  0
H  H9  1  0.91020427  0.58756550  0.93665184  1  0  0.098523  0  0.951262  0  0  0.108789  0  1.012213  0  0  0.111598  0  1.011348  0  0  0.101009  0.106634  0  1.013161  0
H  H10  1  0.06031554  0.24956964  0.21916489  1  0  0.085329  0  0.95474  0  0  0.093712  0  1.020076  0  0  0.09616  0  1.017885  0  0  0.111044  0.092067  0  1.021305  0
H  H11  1  0.93968380  0.75043052  0.78083477  1  0  0.085367  0  0.954783  0  0  0.09376  0  1.020099  0  0  0.096209  0  1.017908  0  0  0.111067  0.092116  0  1.021328  0
H  H12  1  0.85517240  0.63593820  0.51156424  1  0  0.079929  0  0.950175  0  0  0.085745  0  1.027338  0  0  0.089173  0  1.022479  0  0  0.112294  0.083076  0  1.031068  0
H  H13  1  0.14482794  0.36406196  0.48843653  1  0  0.079936  0  0.950189  0  0  0.085744  0  1.027368  0  0  0.089173  0  1.022509  0  0  0.112297  0.083075  0  1.031096  0
H  H14  1  0.60293529  0.28747065  0.16272381  1  0  0.11338  0  0.920766  0  0  0.124124  0  0.977744  0  0  0.127007  0  0.975576  0  0  0.111927  0.122077  0  0.979115  0
H  H15  1  0.39706405  0.71252951  0.83727585  1  0  0.113397  0  0.920754  0  0  0.124145  0  0.977728  0  0  0.127028  0  0.975559  0  0  0.111935  0.122099  0  0.979099  0
H  H16  1  0.85206073  0.36438692  0.11778560  1  0  0.101916  0  0.954308  0  0  0.110503  0  1.01523  0  0  0.113218  0  1.01496  0  0  0.104281  0.108555  0  1.015538  0
H  H17  1  0.14793961  0.63561324  0.88221517  1  0  0.10197  0  0.954264  0  0  0.110531  0  1.015214  0  0  0.113246  0  1.014945  0  0  0.104298  0.108584  0  1.015522  0
H  H18  1  0.09244352  0.57486693  0.27561645  1  0  0.076588  0  0.959026  0  0  0.083748  0  1.028308  0  0  0.08606  0  1.026337  0  0  0.111928  0.081943  0  1.029959  0
H  H19  1  0.90755626  0.42513211  0.72438408  1  0  0.076577  0  0.959031  0  0  0.083743  0  1.028314  0  0  0.086056  0  1.026344  0  0  0.111933  0.08194  0  1.029966  0
H  H20  1  0.62333621  0.29526451  0.61189478  1  0  0.373703  0  0.909901  0  0  0.347515  0  0.983618  0  0  0.357675  0  0.973099  0  0  0.313166  0.340329  0  0.990978  0
H  H21  1  0.37666357  0.70473453  0.38810396  1  0  0.373774  0  0.909779  0  0  0.347639  0  0.983436  0  0  0.357802  0  0.972904  0  0  0.313207  0.340452  0  0.990798  0
C  C22  1  0.43450083  0.41111043  0.28594687  1  0  0.176112  0  3.766978  0  0  0.172576  0  4.014853  0  0  0.177648  0  4.035863  0  0  0.116509  0.16917  0  4.000286  0
C  C23  1  0.56549951  0.58888973  0.71405300  1  0  0.176027  0  3.767025  0  0  0.172481  0  4.014885  0  0  0.177551  0  4.035898  0  0  0.116474  0.169075  0  4.000324  0
C  C24  1  0.46072159  0.50753432  0.20376563  1  0  -0.124825  0  3.666996  0  0  -0.145396  0  3.914368  0  0  -0.151992  0  3.934685  0  0  -0.080222  -0.141508  0  3.900907  0
C  C25  1  0.53927875  0.49246584  0.79623424  1  0  -0.124708  0  3.666859  0  0  -0.145278  0  3.914225  0  0  -0.151874  0  3.934544  0  0  -0.080179  -0.141392  0  3.90077  0
C  C26  1  0.33712135  0.51074653  0.12368939  1  0  0.02757  0  3.706575  0  0  0.005942  0  3.965529  0  0  0.011416  0  3.980591  0  0  -0.066281  0.002315  0  3.955225  0
C  C27  1  0.66287899  0.48925363  0.87631048  1  0  0.027577  0  3.706537  0  0  0.005959  0  3.965469  0  0  0.011434  0  3.980532  0  0  -0.06629  0.002335  0  3.955166  0
C  C28  1  0.19026421  0.41685480  0.12708385  1  0  -0.121323  0  3.732894  0  0  -0.143696  0  3.999736  0  0  -0.149033  0  4.018608  0  0  -0.090781  -0.140129  0  3.987161  0
C  C29  1  0.80973513  0.58314537  0.87291491  1  0  -0.12128  0  3.732819  0  0  -0.143661  0  3.999674  0  0  -0.148999  0  4.018547  0  0  -0.090763  -0.140095  0  3.987101  0
C  C30  1  0.17281974  0.32483118  0.21237229  1  0  0.13322  0  3.70158  0  0  0.101891  0  3.959049  0  0  0.108746  0  3.976335  0  0  0.043639  0.09692  0  3.947439  0
C  C31  1  0.82718060  0.67516898  0.78762758  1  0  0.133147  0  3.701587  0  0  0.101803  0  3.959068  0  0  0.108658  0  3.976352  0  0  0.043608  0.096833  0  3.947462  0
C  C32  1  0.56498098  0.40779363  0.37267245  1  0  0.107896  0  3.716611  0  0  0.086515  0  3.979786  0  0  0.095545  0  3.994207  0  0  0.125011  0.080687  0  3.969436  0
C  C33  1  0.43501680  0.59220541  0.62732766  1  0  0.107886  0  3.716635  0  0  0.086547  0  3.979751  0  0  0.095578  0  3.994173  0  0  0.125026  0.080721  0  3.969389  0
C  C34  1  0.84970957  0.57248738  0.42350650  1  0  0.112664  0  3.656901  0  0  0.071263  0  3.911369  0  0  0.079312  0  3.92754  0  0  0.054862  0.065597  0  3.900363  0
C  C35  1  0.15029077  0.42751278  0.57649337  1  0  0.112657  0  3.656877  0  0  0.071256  0  3.911361  0  0  0.079312  0  3.927513  0  0  0.054873  0.065588  0  3.900359  0
C  C36  1  0.70966521  0.45593881  0.34101249  1  0  -0.019771  0  3.758392  0  0  0.003488  0  3.993955  0  0  -0.00254  0  4.015065  0  0  -0.001491  0.007502  0  3.979489  0
C  C37  1  0.29033457  0.54406022  0.65898805  1  0  -0.019756  0  3.758395  0  0  0.003488  0  3.993947  0  0  -0.00254  0  4.015059  0  0  -0.001485  0.007507  0  3.979488  0
C  C38  1  0.70953268  0.38025666  0.22821927  1  0  -0.022193  0  3.671945  0  0  -0.05287  0  3.925857  0  0  -0.048234  0  3.942008  0  0  -0.057739  -0.05573  0  3.914549  0
C  C39  1  0.29046610  0.61974237  0.77178106  1  0  -0.022231  0  3.671983  0  0  -0.052913  0  3.925899  0  0  -0.048274  0  3.942048  0  0  -0.05776  -0.055776  0  3.914598  0
C  C40  1  0.84792617  0.42263700  0.20352597  1  0  -0.114333  0  3.738346  0  0  -0.125756  0  3.993593  0  0  -0.133738  0  4.015794  0  0  -0.083519  -0.120793  0  3.97843  0
C  C41  1  0.15207361  0.57736203  0.79647457  1  0  -0.114397  0  3.73839  0  0  -0.1258  0  3.993641  0  0  -0.133784  0  4.015843  0  0  -0.08354  -0.120836  0  3.978483  0
C  C42  1  0.98191844  0.53935464  0.29105540  1  0  0.130324  0  3.697626  0  0  0.095372  0  3.952282  0  0  0.103541  0  3.970207  0  0  0.045314  0.089769  0  3.94035  0
C  C43  1  0.01808133  0.46064440  0.70894604  1  0  0.130383  0  3.697541  0  0  0.09543  0  3.952191  0  0  0.103601  0  3.970109  0  0  0.045344  0.089827  0  3.940262  0
C  C44  1  0.18114561  0.15058440  0.85346456  1  0  0.604226  0  3.667854  0  0  0.533663  0  4.035472  0  0  0.561501  0  4.008771  0  0  0.288425  0.513475  0  4.055173  0
C  C45  1  0.81885473  0.84941576  0.14653621  1  0  0.604181  0  3.667886  0  0  0.533613  0  4.035517  0  0  0.561437  0  4.008841  0  0  0.288419  0.51344  0  4.055188  0
C  C46  1  0.29601981  0.92010127  0.14178391  1  0  0.598962  0  3.683205  0  0  0.533154  0  4.04657  0  0  0.560459  0  4.020685  0  0  0.291158  0.513324  0  4.065703  0
C  C47  1  0.70398052  0.07989889  0.85821686  1  0  0.598925  0  3.68326  0  0  0.533166  0  4.046544  0  0  0.560469  0  4.020669  0  0  0.291148  0.513338  0  4.065678  0
S  S48  1  0.11262447  0.05898181  0.68068457  1  0  1.144446  0  5.770129  0  0  1.040833  0  6.290732  0  0  1.084606  0  6.273275  0  0  0.490691  1.010704  0  6.301889  0
S  S49  1  0.88737642  0.94101947  0.31931644  1  0  1.144445  0  5.77016  0  0  1.040823  0  6.290773  0  0  1.084601  0  6.27331  0  0  0.490659  1.010695  0  6.301921  0
S  S50  1  0.42597357  0.94860693  0.30193999  1  0  1.153756  0  5.736271  0  0  1.04537  0  6.260248  0  0  1.088976  0  6.243233  0  0  0.504733  1.0154  0  6.271646  0
S  S51  1  0.57402577  0.05139323  0.69806057  1  0  1.153781  0  5.736166  0  0  1.045388  0  6.260124  0  0  1.088997  0  6.243105  0  0  0.504748  1.015417  0  6.271526  0
N  N52  1  0.29158913  0.32150119  0.29001916  1  0  -0.343533  0  3.28129  0  0  -0.276389  0  3.565077  0  0  -0.293397  0  3.580191  0  0  -0.332048  -0.264462  0  3.55439  0
N  N53  1  0.70841022  0.67849897  0.70998050  1  0  -0.343498  0  3.281295  0  0  -0.276352  0  3.565076  0  0  -0.293358  0  3.580189  0  0  -0.332049  -0.264427  0  3.554396  0
N  N54  1  0.54256594  0.35628183  0.47199248  1  0  -0.115795  0  3.083182  0  0  -0.079291  0  3.39117  0  0  -0.084248  0  3.399185  0  0  -0.222796  -0.076424  0  3.385177  0
N  N55  1  0.45743384  0.64371721  0.52800716  1  0  -0.115779  0  3.083186  0  0  -0.079298  0  3.391165  0  0  -0.084258  0  3.399185  0  0  -0.222807  -0.076433  0  3.385174  0
N  N56  1  0.98291784  0.61357177  0.39917305  1  0  -0.309273  0  3.324935  0  0  -0.228693  0  3.610226  0  0  -0.248261  0  3.626695  0  0  -0.335965  -0.215241  0  3.598766  0
N  N57  1  0.01708094  0.38642727  0.60082818  1  0  -0.309296  0  3.324786  0  0  -0.228735  0  3.610101  0  0  -0.248297  0  3.626569  0  0  -0.336014  -0.21528  0  3.598644  0
O  O58  1  0.23843666  0.15966382  0.63864105  1  0  -0.616571  0  2.126982  0  0  -0.562994  0  2.422144  0  0  -0.584881  0  2.406969  0  0  -0.338463  -0.547535  0  2.431919  0
O  O59  1  0.76156368  0.84033634  0.36135972  1  0  -0.616574  0  2.126997  0  0  -0.562968  0  2.422117  0  0  -0.584851  0  2.406936  0  0  -0.338451  -0.547511  0  2.431891  0
O  O60  1  0.09521155  0.90926908  0.67825535  1  0  -0.6247  0  2.05308  0  0  -0.579634  0  2.331471  0  0  -0.599667  0  2.314874  0  0  -0.334257  -0.565362  0  2.342068  0
O  O61  1  0.90478923  0.09072996  0.32174630  1  0  -0.624685  0  2.053152  0  0  -0.579613  0  2.331535  0  0  -0.599646  0  2.314935  0  0  -0.33423  -0.565344  0  2.342132  0
O  O62  1  0.96927961  0.06185169  0.63352028  1  0  -0.619413  0  2.102975  0  0  -0.573794  0  2.392325  0  0  -0.594584  0  2.377039  0  0  -0.334098  -0.559082  0  2.402311  0
O  O63  1  0.03071917  0.93814735  0.36647915  1  0  -0.619427  0  2.10292  0  0  -0.573833  0  2.392306  0  0  -0.594618  0  2.377014  0  0  -0.334112  -0.559106  0  2.402259  0
O  O64  1  0.35088783  0.97392956  0.39154680  1  0  -0.625543  0  2.112074  0  0  -0.577347  0  2.415683  0  0  -0.596978  0  2.396277  0  0  -0.330468  -0.563972  0  2.428836  0
O  O65  1  0.64911151  0.02607060  0.60845286  1  0  -0.625549  0  2.112026  0  0  -0.57735  0  2.415635  0  0  -0.596986  0  2.39623  0  0  -0.330468  -0.563976  0  2.428792  0
O  O66  1  0.42964294  0.80716078  0.29199629  1  0  -0.598219  0  2.067442  0  0  -0.552754  0  2.320337  0  0  -0.572872  0  2.309514  0  0  -0.317969  -0.538833  0  2.327305  0
O  O67  1  0.57035796  0.19284051  0.70800381  1  0  -0.59822  0  2.067398  0  0  -0.552732  0  2.320299  0  0  -0.57285  0  2.309475  0  0  -0.317973  -0.53881  0  2.327266  0
O  O68  1  0.56881775  0.07856269  0.30619321  1  0  -0.606993  0  2.113773  0  0  -0.55073  0  2.395081  0  0  -0.573714  0  2.381819  0  0  -0.330938  -0.534708  0  2.403775  0
O  O69  1  0.43118259  0.92143747  0.69380756  1  0  -0.607018  0  2.113774  0  0  -0.550757  0  2.395105  0  0  -0.573743  0  2.381841  0  0  -0.330961  -0.534734  0  2.4038  0
O  O70  1  0.66572221  0.35402659  0.54995347  1  0  -0.423351  0  2.170816  0  0  -0.371412  0  2.422161  0  0  -0.393607  0  2.419789  0  0  -0.255551  -0.355327  0  2.423206  0
O  O71  1  0.33427813  0.64597357  0.45004730  1  0  -0.423416  0  2.170743  0  0  -0.371509  0  2.422012  0  0  -0.393703  0  2.419639  0  0  -0.255577  -0.355422  0  2.423056  0
F  F72  1  0.19402328  0.28955584  0.86743852  1  0  -0.240494  0  1.233729  0  0  -0.192481  0  1.402937  0  0  -0.204386  0  1.391667  0  0  -0.09116  -0.184061  0  1.411138  0
F  F73  1  0.80597762  0.71044544  0.13256159  1  0  -0.240451  0  1.233739  0  0  -0.19244  0  1.402961  0  0  -0.204344  0  1.391694  0  0  -0.091151  -0.184026  0  1.411155  0
F  F74  1  0.08185242  0.07040339  0.91292928  1  0  -0.219466  0  1.213039  0  0  -0.181803  0  1.381506  0  0  -0.191375  0  1.36615  0  0  -0.093624  -0.174942  0  1.392276  0
F  F75  1  0.91814748  0.92959789  0.08707151  1  0  -0.219453  0  1.21304  0  0  -0.181791  0  1.381521  0  0  -0.191365  0  1.366169  0  0  -0.093623  -0.174938  0  1.392282  0
F  F76  1  0.32077031  0.16715927  0.91204284  1  0  -0.225185  0  1.1798  0  0  -0.184618  0  1.339627  0  0  -0.194489  0  1.324904  0  0  -0.097037  -0.176816  0  1.349039  0
F  F77  1  0.67923003  0.83284089  0.08795703  1  0  -0.22519  0  1.179799  0  0  -0.184622  0  1.339625  0  0  -0.19449  0  1.324912  0  0  -0.097042  -0.176824  0  1.349035  0
F  F78  1  0.15665791  0.79641871  0.11799047  1  0  -0.238809  0  1.186534  0  0  -0.195424  0  1.348204  0  0  -0.205213  0  1.332959  0  0  -0.097031  -0.188568  0  1.359194  0
F  F79  1  0.84334100  0.20358257  0.88200920  1  0  -0.238748  0  1.186481  0  0  -0.195419  0  1.34817  0  0  -0.205209  0  1.332928  0  0  -0.097024  -0.188564  0  1.359161  0
F  F80  1  0.27515336  0.04004283  0.13536340  1  0  -0.209864  0  1.231739  0  0  -0.181183  0  1.413194  0  0  -0.190861  0  1.397771  0  0  -0.08863  -0.174101  0  1.42383  0
F  F81  1  0.72484754  0.95995845  0.86463670  1  0  -0.209862  0  1.231764  0  0  -0.18118  0  1.413199  0  0  -0.190858  0  1.397777  0  0  -0.088607  -0.174097  0  1.423835  0
F  F82  1  0.35478515  0.89888472  0.04840438  1  0  -0.224219  0  1.175793  0  0  -0.183037  0  1.332137  0  0  -0.192159  0  1.316177  0  0  -0.094683  -0.176494  0  1.34334  0
F  F83  1  0.64521563  0.10111432  0.95159547  1  0  -0.224218  0  1.175867  0  0  -0.183041  0  1.332197  0  0  -0.192161  0  1.316241  0  0  -0.094684  -0.176497  0  1.343402  0
