# generated using pymatgen
data_BaP3H10C3NO9
_symmetry_space_group_name_H-M   'P 1'
_cell_length_a   7.61595634
_cell_length_b   8.46908455
_cell_length_c   9.14521619
_cell_angle_alpha   101.72556579
_cell_angle_beta   95.49194804
_cell_angle_gamma   107.24778740
_symmetry_Int_Tables_number   1
_chemical_formula_structural   BaP3H10C3NO9
_chemical_formula_sum   'Ba2 P6 H20 C6 N2 O18'
_cell_volume   543.86072788
_cell_formula_units_Z   2
loop_
 _symmetry_equiv_pos_site_id
 _symmetry_equiv_pos_as_xyz
  1  'x, y, z'
loop_
 _atom_site_type_symbol
 _atom_site_label
 _atom_site_symmetry_multiplicity
 _atom_site_fract_x
 _atom_site_fract_y
 _atom_site_fract_z
 _atom_site_occupancy
 _atom_site_pbe_bader_spin_density
 _atom_site_pbe_cm5_charge
 _atom_site_pbe_ddec_charge
 _atom_site_pbe_ddec_spin_density
 _atom_site_pbe_ddec_sum_bond_order
 _atom_site_pbe_magmom
Ba  Ba0  1  0.39138221  0.22439388  0.55794023  1  0  1.012651  1.542727  0  1.555323  0
Ba  Ba1  1  0.60861767  0.77560694  0.44206078  1  0  1.012654  1.542738  0  1.555301  0
P  P2  1  0.21032378  0.83686324  0.17726527  1  0  0.367484  1.298818  0  5.345549  0
P  P3  1  0.78967565  0.16313631  0.82273437  1  0  0.367459  1.298742  0  5.345587  0
P  P4  1  0.12814478  0.81323304  0.59312059  1  0  0.353888  1.2985  0  5.38956  0
P  P5  1  0.87185597  0.18676651  0.40687915  1  0  0.353933  1.298568  0  5.389534  0
P  P6  1  0.51762148  0.61007014  0.81632772  1  0  0.342812  1.287927  0  5.379539  0
P  P7  1  0.48237927  0.38992940  0.18367311  1  0  0.342814  1.287939  0  5.37954  0
H  H8  1  0.99330152  0.79679395  0.95057159  1  0  0.127712  0.167298  0  1.002153  0
H  H9  1  0.00669968  0.20320687  0.04942844  1  0  0.127727  0.167291  0  1.002165  0
H  H10  1  0.20662433  0.96237321  0.95986496  1  0  0.128443  0.160896  0  0.983487  0
H  H11  1  0.79337687  0.03762761  0.04013506  1  0  0.128425  0.160862  0  0.983423  0
H  H12  1  0.94818033  0.61861379  0.72521923  1  0  0.138129  0.165159  0  0.974402  0
H  H13  1  0.05181955  0.38138703  0.27478068  1  0  0.138127  0.165156  0  0.974402  0
H  H14  1  0.12533555  0.54864883  0.64852322  1  0  0.137375  0.160453  0  1.004934  0
H  H15  1  0.87466519  0.45135071  0.35147762  1  0  0.137384  0.16048  0  1.004931  0
H  H16  1  0.47729331  0.84421092  0.98908314  1  0  0.128042  0.154574  0  1.035784  0
H  H17  1  0.52270611  0.15578863  0.01091759  1  0  0.128051  0.154589  0  1.035787  0
H  H18  1  0.44416541  0.87366383  0.79954825  1  0  0.134054  0.157284  0  1.025097  0
H  H19  1  0.55583447  0.12633700  0.20045167  1  0  0.134061  0.157303  0  1.025092  0
H  H20  1  0.18582341  0.59932486  0.90070973  1  0  0.335397  0.262641  0  0.879062  0
H  H21  1  0.81417646  0.40067595  0.09929128  1  0  0.335387  0.26262  0  0.879098  0
H  H22  1  0.01016441  0.69930512  0.30270805  1  0  0.316847  0.393251  0  0.954154  0
H  H23  1  0.98983545  0.30069189  0.69728786  1  0  0.31685  0.393244  0  0.95416  0
H  H24  1  0.98783742  0.99268161  0.71170818  1  0  0.312052  0.396576  0  0.953038  0
H  H25  1  0.01216201  0.00731793  0.28829145  1  0  0.312041  0.396557  0  0.95306  0
H  H26  1  0.67155075  0.62064000  0.03740868  1  0  0.311129  0.407454  0  0.933625  0
H  H27  1  0.32845044  0.37936082  0.96259244  1  0  0.311143  0.407464  0  0.933609  0
C  C28  1  0.14586411  0.83456587  0.97758107  1  0  -0.073733  -0.389778  0  3.69137  0
C  C29  1  0.85413578  0.16543496  0.02241776  1  0  -0.073715  -0.389701  0  3.691292  0
C  C30  1  0.09513409  0.66005055  0.71129500  1  0  -0.062201  -0.388413  0  3.70992  0
C  C31  1  0.90486579  0.33995027  0.28870491  1  0  -0.062211  -0.388448  0  3.709918  0
C  C32  1  0.41687729  0.78175933  0.87019115  1  0  -0.073893  -0.4074  0  3.70061  0
C  C33  1  0.58312259  0.21824149  0.12980876  1  0  -0.073912  -0.407462  0  3.700658  0
N  N34  1  0.20962933  0.71310340  0.86741192  1  0  -0.323185  0.148297  0  3.56958  0
N  N35  1  0.79037055  0.28689742  0.13258800  1  0  -0.323185  0.148313  0  3.569595  0
O  O36  1  0.19283723  0.00300833  0.26891758  1  0  -0.387402  -0.771363  0  2.22461  0
O  O37  1  0.80716175  0.99698994  0.73108287  1  0  -0.387419  -0.771344  0  2.224571  0
O  O38  1  0.39881538  0.81419571  0.20005047  1  0  -0.411591  -0.787182  0  2.188625  0
O  O39  1  0.60118450  0.18580511  0.79994945  1  0  -0.411586  -0.787184  0  2.188624  0
O  O40  1  0.04734854  0.67814869  0.19724269  1  0  -0.386111  -0.669609  0  2.249506  0
O  O41  1  0.95265132  0.32184831  0.80275540  1  0  -0.386082  -0.669572  0  2.249546  0
O  O42  1  0.31822158  0.85045573  0.54644007  1  0  -0.436281  -0.834029  0  2.242007  0
O  O43  1  0.68177830  0.14954509  0.45355984  1  0  -0.43628  -0.83404  0  2.241975  0
O  O44  1  0.95975524  0.73100283  0.46625350  1  0  -0.395081  -0.786361  0  2.229814  0
O  O45  1  0.04024596  0.26899799  0.53374652  1  0  -0.39511  -0.786384  0  2.22988  0
O  O46  1  0.12215682  0.98720325  0.69306851  1  0  -0.391804  -0.703303  0  2.284948  0
O  O47  1  0.87784306  0.01279757  0.30693141  1  0  -0.39181  -0.70331  0  2.28499  0
O  O48  1  0.36801571  0.44917382  0.83032617  1  0  -0.394016  -0.785877  0  2.248332  0
O  O49  1  0.63198372  0.55082572  0.16967456  1  0  -0.394026  -0.785896  0  2.248341  0
O  O50  1  0.69814370  0.66378706  0.94003441  1  0  -0.377302  -0.659412  0  2.233883  0
O  O51  1  0.30185749  0.33621376  0.05996671  1  0  -0.377322  -0.659428  0  2.233842  0
O  O52  1  0.57145080  0.59621963  0.66086338  1  0  -0.433408  -0.819112  0  2.19174  0
O  O53  1  0.42854862  0.40377992  0.33913735  1  0  -0.433405  -0.819111  0  2.191768  0
