# generated using pymatgen
data_H10PbC15N3Cl3O8
_symmetry_space_group_name_H-M   'P 1'
_cell_length_a   10.04678288
_cell_length_b   10.09123837
_cell_length_c   10.52335873
_cell_angle_alpha   85.56104517
_cell_angle_beta   61.48616131
_cell_angle_gamma   80.67220459
_symmetry_Int_Tables_number   1
_chemical_formula_structural   H10PbC15N3Cl3O8
_chemical_formula_sum   'H20 Pb2 C30 N6 Cl6 O16'
_cell_volume   925.09535359
_cell_formula_units_Z   2
loop_
 _symmetry_equiv_pos_site_id
 _symmetry_equiv_pos_as_xyz
  1  'x, y, z'
loop_
 _atom_site_type_symbol
 _atom_site_label
 _atom_site_symmetry_multiplicity
 _atom_site_fract_x
 _atom_site_fract_y
 _atom_site_fract_z
 _atom_site_occupancy
 _atom_site_pbe_bader_spin_density
 _atom_site_pbe_cm5_charge
 _atom_site_pbe_ddec_charge
 _atom_site_pbe_ddec_spin_density
 _atom_site_pbe_ddec_sum_bond_order
 _atom_site_pbe_magmom
H  H0  1  0.27813976  0.61089894  0.07438459  1  0  0.106893  0.074625  0  1.051068  0
H  H1  1  0.64747427  0.88911196  0.07438434  1  0  0.106887  0.074617  0  1.051039  0
H  H2  1  0.72185287  0.38910127  0.92561638  1  0  0.106898  0.074614  0  1.051077  0
H  H3  1  0.35253280  0.11088427  0.92561413  1  0  0.106899  0.074612  0  1.051104  0
H  H4  1  0.46145349  0.55016212  0.17612647  1  0  0.098771  0.107411  0  1.041274  0
H  H5  1  0.36241689  0.94984726  0.17612755  1  0  0.098768  0.107372  0  1.041266  0
H  H6  1  0.53854264  0.44983809  0.82386871  1  0  0.098748  0.107351  0  1.041373  0
H  H7  1  0.63759145  0.05015098  0.82386703  1  0  0.098752  0.107335  0  1.041305  0
H  H8  1  0.35758530  0.56623657  0.44476801  1  0  0.106812  0.118767  0  1.018734  0
H  H9  1  0.19764689  0.93376819  0.44477213  1  0  0.106829  0.118791  0  1.018762  0
H  H10  1  0.64241755  0.43376266  0.55522739  1  0  0.10685  0.1188  0  1.018687  0
H  H11  1  0.80235876  0.06623306  0.55522238  1  0  0.106849  0.118737  0  1.018761  0
H  H12  1  0.08244559  0.64323599  0.59857463  1  0  0.108373  0.125305  0  1.019874  0
H  H13  1  0.31898012  0.85676394  0.59857463  1  0  0.108362  0.125307  0  1.019941  0
H  H14  1  0.91755595  0.35676525  0.40142516  1  0  0.108363  0.125301  0  1.019914  0
H  H15  1  0.68102046  0.14323930  0.40142465  1  0  0.10836  0.125321  0  1.019949  0
H  H16  1  0.85809323  0.69060011  0.71342590  1  0  0.117325  0.148876  0  1.000185  0
H  H17  1  0.42847689  0.80938783  0.71342729  1  0  0.117327  0.148891  0  1.000152  0
H  H18  1  0.14190803  0.30939711  0.28657484  1  0  0.117342  0.148885  0  1.000194  0
H  H19  1  0.57152199  0.19060838  0.28657829  1  0  0.117334  0.148871  0  1.000193  0
Pb  Pb20  1  0.92579714  0.75000348  0.14840312  1  0  0.643629  1.03177  0  1.797783  0
Pb  Pb21  1  0.07420270  0.24999674  0.85159513  1  0  0.643639  1.031761  0  1.797785  0
C  C22  1  0.23959993  0.61672971  0.19001178  1  0  0.047927  0.100066  0  3.957119  0
C  C23  1  0.57038379  0.88327931  0.19000871  1  0  0.047885  0.100098  0  3.957041  0
C  C24  1  0.76039443  0.38326949  0.80998875  1  0  0.047894  0.100042  0  3.95699  0
C  C25  1  0.42962010  0.11672093  0.80999115  1  0  0.047855  0.100011  0  3.956932  0
C  C26  1  0.34041659  0.58250565  0.24688263  1  0  -0.08682  -0.125667  0  3.965944  0
C  C27  1  0.41269840  0.91750098  0.24688828  1  0  -0.086793  -0.125604  0  3.966167  0
C  C28  1  0.65958076  0.41749657  0.75311211  1  0  -0.086786  -0.125567  0  3.965976  0
C  C29  1  0.58730883  0.08249826  0.75310726  1  0  -0.086766  -0.125533  0  3.966022  0
C  C30  1  0.28262586  0.59217882  0.39588087  1  0  -0.066464  -0.017649  0  3.933619  0
C  C31  1  0.32148777  0.90782812  0.39588162  1  0  -0.066471  -0.01766  0  3.93357  0
C  C32  1  0.71737414  0.40782241  0.60411592  1  0  -0.066506  -0.017669  0  3.933719  0
C  C33  1  0.67851471  0.09217513  0.60411576  1  0  -0.066502  -0.017582  0  3.933576  0
C  C34  1  0.12731574  0.63579740  0.48226704  1  0  -0.075379  -0.143341  0  3.897808  0
C  C35  1  0.39041767  0.86420643  0.48227000  1  0  -0.075381  -0.143389  0  3.897705  0
C  C36  1  0.87268550  0.36420384  0.51773078  1  0  -0.075388  -0.143374  0  3.89786  0
C  C37  1  0.60958336  0.13579983  0.51772833  1  0  -0.075409  -0.143479  0  3.897742  0
C  C38  1  0.03263304  0.66920575  0.41738278  1  0  0.124346  0.168548  0  3.978071  0
C  C39  1  0.54998533  0.83079867  0.41738185  1  0  0.124389  0.168615  0  3.978133  0
C  C40  1  0.96736520  0.33079447  0.58261935  1  0  0.124368  0.168583  0  3.97805  0
C  C41  1  0.45001707  0.16920660  0.58262094  1  0  0.124382  0.168649  0  3.978147  0
C  C42  1  0.86551183  0.71420629  0.50252974  1  0  0.134205  0.207431  0  3.972638  0
C  C43  1  0.63195844  0.78579492  0.50252774  1  0  0.13428  0.207529  0  3.972666  0
C  C44  1  0.13448765  0.28579394  0.49747342  1  0  0.134245  0.207424  0  3.972623  0
C  C45  1  0.36804149  0.21420833  0.49747446  1  0  0.134285  0.207455  0  3.972631  0
C  C46  1  0.79412765  0.71589987  0.65375999  1  0  -0.078305  -0.217987  0  3.907157  0
C  C47  1  0.55211288  0.78409057  0.65375999  1  0  -0.078351  -0.218018  0  3.907096  0
C  C48  1  0.20587558  0.28410038  0.34624280  1  0  -0.07837  -0.218011  0  3.907221  0
C  C49  1  0.44788722  0.21590967  0.34624368  1  0  -0.078352  -0.217973  0  3.907087  0
C  C50  1  0.63598414  0.74999028  0.72803059  1  0  0.034817  0.188685  0  4.072632  0
C  C51  1  0.36401568  0.25000795  0.27197257  1  0  0.034848  0.18868  0  4.072659  0
N  N52  1  0.09025553  0.65911679  0.27303901  1  0  -0.299029  -0.277098  0  3.443392  0
N  N53  1  0.63670413  0.84089120  0.27304067  1  0  -0.298989  -0.277145  0  3.443282  0
N  N54  1  0.90974209  0.34088343  0.72696261  1  0  -0.298998  -0.277108  0  3.443386  0
N  N55  1  0.36330050  0.15911206  0.72696022  1  0  -0.298968  -0.27707  0  3.443257  0
N  N56  1  0.78518945  0.75000100  0.42961742  1  0  -0.287605  -0.318492  0  3.383576  0
N  N57  1  0.21481018  0.25000224  0.57038281  1  0  -0.287622  -0.318442  0  3.383565  0
Cl  Cl58  1  0.54316323  0.74997389  0.91366098  1  0  0.062803  0.003498  0  1.631328  0
Cl  Cl59  1  0.45683380  0.25001830  0.08634599  1  0  0.062801  0.003517  0  1.631386  0
Cl  Cl60  1  0.05132349  0.03728483  0.19113171  1  0  0.730898  1.277199  0  6.761356  0
Cl  Cl61  1  0.75754529  0.46271598  0.19113405  1  0  0.730769  1.277037  0  6.761592  0
Cl  Cl62  1  0.94867256  0.96271539  0.80887035  1  0  0.73083  1.276999  0  6.761584  0
Cl  Cl63  1  0.24245361  0.53728224  0.80886662  1  0  0.730808  1.276996  0  6.761764  0
O  O64  1  0.90451793  0.01515426  0.19998539  1  0  -0.303001  -0.520446  0  2.103326  0
O  O65  1  0.89549320  0.48485628  0.19999184  1  0  -0.303012  -0.520467  0  2.103357  0
O  O66  1  0.09548112  0.98484696  0.80001235  1  0  -0.30302  -0.52048  0  2.103362  0
O  O67  1  0.10450698  0.51514194  0.80000641  1  0  -0.303036  -0.520449  0  2.103393  0
O  O68  1  0.08908990  0.16774706  0.12421216  1  0  -0.296452  -0.50441  0  2.14546  0
O  O69  1  0.78671422  0.33225546  0.12421355  1  0  -0.296383  -0.504352  0  2.145558  0
O  O70  1  0.91091243  0.83225117  0.87578961  1  0  -0.296459  -0.504366  0  2.145447  0
O  O71  1  0.21328468  0.66774276  0.87578712  1  0  -0.296434  -0.504392  0  2.145609  0
O  O72  1  0.03588796  0.03473961  0.33564769  1  0  -0.292669  -0.460523  0  2.096379  0
O  O73  1  0.62846051  0.46525157  0.33564875  1  0  -0.292635  -0.460486  0  2.096409  0
O  O74  1  0.96410558  0.96526060  0.66435577  1  0  -0.292645  -0.460468  0  2.096379  0
O  O75  1  0.37153773  0.53474866  0.66435338  1  0  -0.292632  -0.460493  0  2.09646  0
O  O76  1  0.17028779  0.93026819  0.10196190  1  0  -0.30431  -0.513918  0  2.114393  0
O  O77  1  0.72774823  0.56973298  0.10196224  1  0  -0.304252  -0.513794  0  2.114394  0
O  O78  1  0.82971014  0.06973003  0.89804317  1  0  -0.304232  -0.513763  0  2.11453  0
O  O79  1  0.27224943  0.43026523  0.89803740  1  0  -0.304221  -0.513717  0  2.114434  0
