# generated using pymatgen
data_H5PbC6N3O4
_symmetry_space_group_name_H-M   'P 1'
_cell_length_a   4.59301626
_cell_length_b   12.12510026
_cell_length_c   17.72699029
_cell_angle_alpha   89.99993727
_cell_angle_beta   90.00004970
_cell_angle_gamma   89.99972859
_symmetry_Int_Tables_number   1
_chemical_formula_structural   H5PbC6N3O4
_chemical_formula_sum   'H20 Pb4 C24 N12 O16'
_cell_volume   987.22996265
_cell_formula_units_Z   4
loop_
 _symmetry_equiv_pos_site_id
 _symmetry_equiv_pos_as_xyz
  1  'x, y, z'
loop_
 _atom_site_type_symbol
 _atom_site_label
 _atom_site_symmetry_multiplicity
 _atom_site_fract_x
 _atom_site_fract_y
 _atom_site_fract_z
 _atom_site_occupancy
 _atom_site_pbe_bader_charge
 _atom_site_pbe_bader_spin_density
 _atom_site_pbe_cm5_charge
 _atom_site_pbe_ddec_charge
 _atom_site_pbe_ddec_spin_density
 _atom_site_pbe_ddec_sum_bond_order
 _atom_site_pbe_magmom
H  H0  1  0.75017035  0.34965121  0.60357788  1  0.161376  0  0.15033  0.125773  0  0.963537  0
H  H1  1  0.74982798  0.65034768  0.10357805  1  0.161401  0  0.150349  0.125819  0  0.963526  0
H  H2  1  0.24981677  0.84965142  0.89642317  1  0.161346  0  0.150319  0.125772  0  0.96353  0
H  H3  1  0.25019479  0.15034873  0.39642542  1  0.161326  0  0.150355  0.125809  0  0.963566  0
H  H4  1  0.14457822  0.48937106  0.54026639  1  0.070319  0  0.115204  0.095544  0  0.966894  0
H  H5  1  0.35541691  0.51062800  0.04026670  1  0.070297  0  0.1152  0.095546  0  0.966875  0
H  H6  1  0.85542022  0.98937173  0.95973286  1  0.070308  0  0.115197  0.095534  0  0.966868  0
H  H7  1  0.64458148  0.01062742  0.45973350  1  0.070305  0  0.115187  0.0955  0  0.966928  0
H  H8  1  0.12854218  0.62873567  0.57133986  1  0.138849  0  0.125415  0.114843  0  0.971111  0
H  H9  1  0.37146176  0.37126252  0.07133914  1  0.138827  0  0.125425  0.114847  0  0.971166  0
H  H10  1  0.87145858  0.12873721  0.92865967  1  0.13882  0  0.125414  0.11482  0  0.971169  0
H  H11  1  0.62854954  0.87126282  0.42866021  1  0.138793  0  0.125392  0.114784  0  0.971195  0
H  H12  1  0.68060911  0.51780340  0.46516458  1  0.057374  0  0.106655  0.130269  0  0.96764  0
H  H13  1  0.81939261  0.48219657  0.96516544  1  0.057366  0  0.106655  0.130256  0  0.967653  0
H  H14  1  0.31939790  0.01779995  0.03483335  1  0.057332  0  0.106669  0.130271  0  0.967612  0
H  H15  1  0.18060374  0.98219912  0.53483269  1  0.057359  0  0.106656  0.13028  0  0.96759  0
H  H16  1  0.64790869  0.65142456  0.50285338  1  0.125956  0  0.111149  0.143604  0  1.010259  0
H  H17  1  0.85209148  0.34857532  0.00285268  1  0.125968  0  0.111158  0.143634  0  1.010225  0
H  H18  1  0.35209179  0.15142444  0.99714669  1  0.125972  0  0.111162  0.143599  0  1.010312  0
H  H19  1  0.14791140  0.84857555  0.49714613  1  0.125967  0  0.111169  0.143663  0  1.010241  0
Pb  Pb20  1  0.17835923  0.31954544  0.78620838  1  1.433957  0  0.632622  1.059919  0  1.841487  0
Pb  Pb21  1  0.32163671  0.68045571  0.28620855  1  1.434002  0  0.632635  1.059941  0  1.841463  0
Pb  Pb22  1  0.82166963  0.81954161  0.71378649  1  1.43389  0  0.632627  1.059953  0  1.841498  0
Pb  Pb23  1  0.67832690  0.18045958  0.21378757  1  1.433855  0  0.63263  1.059931  0  1.841519  0
C  C24  1  0.34743156  0.59575580  0.77095359  1  1.621543  0  0.204421  0.53386  0  4.295873  0
C  C25  1  0.15256434  0.40424125  0.27095336  1  1.621884  0  0.204383  0.533773  0  4.29584  0
C  C26  1  0.65257615  0.09574814  0.72904709  1  1.621814  0  0.204538  0.534033  0  4.295639  0
C  C27  1  0.84741825  0.90425797  0.22904766  1  1.621744  0  0.204515  0.534119  0  4.295659  0
C  C28  1  0.52189011  0.54552188  0.70790908  1  1.016823  0  0.217452  0.165446  0  4.03022  0
C  C29  1  0.97810857  0.45447602  0.20790946  1  1.017067  0  0.217512  0.165504  0  4.03014  0
C  C30  1  0.47811169  0.04552021  0.79209163  1  1.016995  0  0.217441  0.165422  0  4.030302  0
C  C31  1  0.02189081  0.95448423  0.29209153  1  1.017012  0  0.217429  0.165228  0  4.030479  0
C  C32  1  0.69583525  0.42592937  0.63240394  1  0.982885  0  0.166273  0.075104  0  3.925235  0
C  C33  1  0.80416100  0.57406865  0.13240419  1  0.982881  0  0.166214  0.074993  0  3.925266  0
C  C34  1  0.30416397  0.92592870  0.86759648  1  0.982858  0  0.166254  0.075064  0  3.92537  0
C  C35  1  0.19584531  0.07407397  0.36759765  1  0.982758  0  0.16634  0.075186  0  3.925568  0
C  C36  1  0.99748792  0.55821508  0.55299846  1  0.258391  0  -0.044725  -0.066784  0  3.887314  0
C  C37  1  0.50250807  0.44178389  0.05299817  1  0.258404  0  -0.044716  -0.06676  0  3.887346  0
C  C38  1  0.00250937  0.05821649  0.94700168  1  0.258402  0  -0.044692  -0.066682  0  3.887268  0
C  C39  1  0.49749364  0.94178357  0.44700113  1  0.258389  0  -0.044667  -0.066601  0  3.887315  0
C  C40  1  0.80673061  0.58864227  0.48574617  1  -0.04585  0  -0.16421  -0.326921  0  3.916658  0
C  C41  1  0.69326899  0.41135931  0.98574650  1  -0.045469  0  -0.164206  -0.326922  0  3.916575  0
C  C42  1  0.19327116  0.08863991  0.01425340  1  -0.045473  0  -0.164236  -0.326992  0  3.916673  0
C  C43  1  0.30673041  0.91135838  0.51425225  1  -0.045455  0  -0.164206  -0.327075  0  3.916578  0
C  C44  1  0.97798586  0.63578075  0.42051796  1  1.582999  0  0.215632  0.637185  0  4.128358  0
C  C45  1  0.52201788  0.36421846  0.92051828  1  1.582604  0  0.215621  0.637136  0  4.12829  0
C  C46  1  0.02201967  0.13577776  0.07948158  1  1.582585  0  0.215639  0.637216  0  4.128092  0
C  C47  1  0.47797994  0.86421877  0.57948163  1  1.58258  0  0.215657  0.637252  0  4.128173  0
N  N48  1  0.50928902  0.43658260  0.68941980  1  -1.222716  0  -0.308092  -0.348239  0  3.420124  0
N  N49  1  0.99070742  0.56341616  0.18942066  1  -1.222742  0  -0.308097  -0.348232  0  3.420053  0
N  N50  1  0.49071225  0.93657921  0.81058118  1  -1.222711  0  -0.308074  -0.348227  0  3.420165  0
N  N51  1  0.00929685  0.06342520  0.31058287  1  -1.222737  0  -0.308097  -0.348187  0  3.420376  0
N  N52  1  0.70473032  0.60224458  0.66415885  1  -0.685501  0  -0.192077  -0.271762  0  3.200124  0
N  N53  1  0.79526821  0.39775339  0.16415922  1  -0.685709  0  -0.192101  -0.271785  0  3.200104  0
N  N54  1  0.29526642  0.10224399  0.83584070  1  -0.68555  0  -0.19204  -0.271705  0  3.200058  0
N  N55  1  0.20473405  0.89775872  0.33583899  1  -0.685487  0  -0.192056  -0.271675  0  3.200097  0
N  N56  1  0.81543575  0.52538907  0.61679270  1  -0.80338  0  -0.12412  0.172108  0  3.727432  0
N  N57  1  0.68456263  0.47460898  0.11679299  1  -0.803378  0  -0.124089  0.172154  0  3.727431  0
N  N58  1  0.18456413  0.02538861  0.88320747  1  -0.803262  0  -0.124123  0.172085  0  3.72744  0
N  N59  1  0.31544303  0.97461238  0.38320685  1  -0.803236  0  -0.124177  0.172017  0  3.727395  0
O  O60  1  0.17181322  0.53200717  0.80493172  1  -1.151473  0  -0.309112  -0.536942  0  2.169842  0
O  O61  1  0.32818062  0.46799064  0.30493149  1  -1.151737  0  -0.309127  -0.536938  0  2.169805  0
O  O62  1  0.82819964  0.03200091  0.69507069  1  -1.151614  0  -0.309194  -0.53707  0  2.169801  0
O  O63  1  0.67179029  0.96800608  0.19507287  1  -1.151652  0  -0.309193  -0.537059  0  2.169836  0
O  O64  1  0.23692364  0.66795186  0.43145880  1  -1.175687  0  -0.294924  -0.539299  0  2.178375  0
O  O65  1  0.26307715  0.33204906  0.93145808  1  -1.175654  0  -0.29492  -0.539281  0  2.178363  0
O  O66  1  0.76307714  0.16795086  0.06854240  1  -1.175618  0  -0.294938  -0.53933  0  2.178222  0
O  O67  1  0.73692107  0.83204644  0.56854298  1  -1.175619  0  -0.294925  -0.539335  0  2.17831  0
O  O68  1  0.85708260  0.64106499  0.35533541  1  -1.177026  0  -0.294781  -0.57106  0  2.237003  0
O  O69  1  0.64291657  0.35893598  0.85533521  1  -1.177022  0  -0.29479  -0.57105  0  2.236987  0
O  O70  1  0.14291634  0.14106003  0.14466411  1  -1.176967  0  -0.294812  -0.571059  0  2.236916  0
O  O71  1  0.35708132  0.85893804  0.64466414  1  -1.176982  0  -0.294812  -0.571049  0  2.236898  0
O  O72  1  0.38522746  0.69770295  0.78360939  1  -1.188874  0  -0.313125  -0.592692  0  2.224084  0
O  O73  1  0.11477066  0.30229408  0.28361037  1  -1.188972  0  -0.313105  -0.592638  0  2.224089  0
O  O74  1  0.61478768  0.19769539  0.71638895  1  -1.189102  0  -0.31317  -0.592696  0  2.223871  0
O  O75  1  0.88520232  0.80231075  0.21638848  1  -1.188928  0  -0.313164  -0.592746  0  2.223905  0
