# generated using pymatgen
data_ZnH25C28NO4
_symmetry_space_group_name_H-M   'P 1'
_cell_length_a   11.85978503
_cell_length_b   13.10435150
_cell_length_c   13.10493039
_cell_angle_alpha   96.90339537
_cell_angle_beta   90.70263758
_cell_angle_gamma   90.70735843
_symmetry_Int_Tables_number   1
_chemical_formula_structural   ZnH25C28NO4
_chemical_formula_sum   'Zn2 H50 C56 N2 O8'
_cell_volume   2021.58644100
_cell_formula_units_Z   2
loop_
 _symmetry_equiv_pos_site_id
 _symmetry_equiv_pos_as_xyz
  1  'x, y, z'
loop_
 _atom_site_type_symbol
 _atom_site_label
 _atom_site_symmetry_multiplicity
 _atom_site_fract_x
 _atom_site_fract_y
 _atom_site_fract_z
 _atom_site_occupancy
 _atom_site_pbe_bader_charge
 _atom_site_pbe_bader_spin_density
 _atom_site_pbe_cm5_charge
 _atom_site_pbe_ddec_charge
 _atom_site_pbe_ddec_spin_density
 _atom_site_pbe_ddec_sum_bond_order
 _atom_site_pbe_magmom
Zn  Zn0  1  0.38075012  0.50621919  0.51618674  1  1.294873  0  0.670496  0.833647  0  2.378331  0
Zn  Zn1  1  0.61923963  0.48382621  0.49377980  1  1.293874  0  0.67054  0.833596  0  2.377931  0
H  H2  1  0.19403285  0.41062059  0.41379850  1  0.161073  0  0.126312  0.106817  0  1.009438  0
H  H3  1  0.36712483  0.49864670  0.83095155  1  0.098933  0  0.100075  0.097046  0  1.070607  0
H  H4  1  0.03062056  0.81597270  0.62902675  1  0.058108  0  0.102777  0.099048  0  1.016856  0
H  H5  1  0.36278385  0.82510555  0.54274687  1  0.081578  0  0.100408  0.100678  0  1.050101  0
H  H6  1  0.63287470  0.16907560  0.50141073  1  0.098841  0  0.099996  0.097069  0  1.070747  0
H  H7  1  0.28076391  0.49345332  0.19076549  1  0.116523  0  0.099441  0.109043  0  1.029783  0
H  H8  1  0.72007548  0.44589056  0.81267049  1  0.086934  0  0.09794  0.103226  0  1.040665  0
H  H9  1  0.71922944  0.80924099  0.50649955  1  0.116394  0  0.099341  0.106996  0  1.032163  0
H  H10  1  0.27993443  0.18736562  0.55418448  1  0.086323  0  0.097949  0.103462  0  1.040314  0
H  H11  1  0.80591871  0.58620223  0.58935117  1  0.161915  0  0.12616  0.106489  0  1.009765  0
H  H12  1  0.15741855  0.68932940  0.81527519  1  0.058894  0  0.080052  0.104645  0  1.040502  0
H  H13  1  0.24543147  0.58176336  0.78313097  1  0.041316  0  0.085516  0.111223  0  1.043025  0
H  H14  1  0.30692694  0.70542072  0.81472688  1  0.046193  0  0.093408  0.129066  0  0.979393  0
H  H15  1  0.31702510  0.67193781  0.63065333  1  0.126424  0  0.102803  0.11702  0  1.034669  0
H  H16  1  0.20548755  0.75801727  0.65393109  1  0.052367  0  0.092749  0.088891  0  1.012243  0
H  H17  1  0.84248558  0.18474018  0.31062926  1  0.059076  0  0.080023  0.104718  0  1.040548  0
H  H18  1  0.75441932  0.21689554  0.41815593  1  0.040955  0  0.085358  0.111097  0  1.042803  0
H  H19  1  0.69299355  0.18531334  0.29448061  1  0.044992  0  0.093395  0.129101  0  0.979712  0
H  H20  1  0.68295576  0.36940894  0.32801636  1  0.126476  0  0.102734  0.11708  0  1.034642  0
H  H21  1  0.79448438  0.34612919  0.24193545  1  0.052425  0  0.092891  0.089133  0  1.012162  0
H  H22  1  0.82888320  0.31721065  0.88722829  1  0.044317  0  0.088516  0.119083  0  0.994852  0
H  H23  1  0.88585688  0.44404659  0.89776791  1  0.012651  0  0.083984  0.106585  0  1.030761  0
H  H24  1  0.93000448  0.35913699  0.98508355  1  0.008021  0  0.083896  0.109465  0  1.029805  0
H  H25  1  0.79270159  0.48503954  0.06969796  1  0.01538  0  0.092322  0.086505  0  0.969786  0
H  H26  1  0.74358826  0.35779332  0.06384925  1  0.023561  0  0.092453  0.087458  0  0.98224  0
H  H27  1  0.12204007  0.43525674  0.09023593  1  0.05128  0  0.081302  0.104748  0  1.045358  0
H  H28  1  0.13681011  0.57082141  0.11641852  1  0.017956  0  0.086891  0.113823  0  1.001383  0
H  H29  1  0.05478438  0.51613786  0.00907493  1  0.036093  0  0.083161  0.10954  0  1.024911  0
H  H30  1  0.23934880  0.57473417  0.94994458  1  0.043469  0  0.096189  0.095369  0  0.995915  0
H  H31  1  0.63722620  0.45725211  0.17487645  1  0.081615  0  0.100404  0.10067  0  1.049927  0
H  H32  1  0.22222503  0.44156087  0.92105859  1  0.00368  0  0.093793  0.088474  0  0.970997  0
H  H33  1  0.17107792  0.11273732  0.68283566  1  0.044153  0  0.088552  0.11913  0  0.994679  0
H  H34  1  0.11410606  0.10222529  0.55599746  1  0.013023  0  0.084008  0.106539  0  1.030541  0
H  H35  1  0.06997198  0.01484987  0.64087602  1  -0.022396  0  0.083918  0.109446  0  1.029659  0
H  H36  1  0.20728925  0.93027902  0.51497246  1  0.01539  0  0.092333  0.086469  0  0.969564  0
H  H37  1  0.25640899  0.93613947  0.64221940  1  0.02404  0  0.092453  0.087472  0  0.98187  0
H  H38  1  0.87788979  0.90976179  0.56478350  1  0.05266  0  0.081256  0.10464  0  1.045358  0
H  H39  1  0.86315710  0.88361116  0.42922110  1  0.018117  0  0.087  0.114045  0  1.000908  0
H  H40  1  0.94523522  0.99093518  0.48393790  1  0.036907  0  0.083038  0.109426  0  1.024679  0
H  H41  1  0.76066544  0.05012370  0.42531811  1  0.043518  0  0.096051  0.095103  0  0.995695  0
H  H42  1  0.77777989  0.07898328  0.55849907  1  0.002885  0  0.093693  0.08836  0  0.970301  0
H  H43  1  0.07986044  0.23787959  0.45217777  1  0.026045  0  0.10214  0.097601  0  1.013706  0
H  H44  1  0.16642920  0.09386894  0.34093406  1  0.079294  0  0.105238  0.103917  0  0.993518  0
H  H45  1  0.15103267  0.08632515  0.15011429  1  0.048534  0  0.10545  0.101218  0  0.989409  0
H  H46  1  0.05428422  0.22636646  0.07220892  1  0.017786  0  0.102578  0.096266  0  0.999403  0
H  H47  1  0.96942229  0.37101278  0.18407203  1  0.057939  0  0.102674  0.098918  0  1.016729  0
H  H48  1  0.92006257  0.54784868  0.76211367  1  0.026535  0  0.10213  0.097613  0  1.013864  0
H  H49  1  0.83350603  0.65909349  0.90611757  1  0.080803  0  0.105207  0.103823  0  0.993537  0
H  H50  1  0.84898674  0.84992669  0.91369087  1  0.04866  0  0.105475  0.101372  0  0.989454  0
H  H51  1  0.94574634  0.92782403  0.77366762  1  0.017426  0  0.1025  0.096065  0  0.999576  0
C  C52  1  0.53181308  0.69324122  0.51680017  1  1.553194  0  0.214622  0.595562  0  4.154552  0
C  C53  1  0.02734491  0.46280205  0.46505032  1  0.063408  0  0.004492  0.006964  0  4.014109  0
C  C54  1  0.98843121  0.78180900  0.69044256  1  -0.077539  0  -0.085871  -0.132549  0  3.984847  0
C  C55  1  0.01728799  0.31301813  0.32541868  1  -0.004288  0  -0.007968  0.075247  0  4.013676  0
C  C56  1  0.07451052  0.23501713  0.36867310  1  0.029757  0  -0.085106  -0.13135  0  3.97443  0
C  C57  1  0.12248577  0.15390314  0.30608297  1  -0.07818  0  -0.086304  -0.073857  0  4.018862  0
C  C58  1  0.11423707  0.14996909  0.19925036  1  -0.044531  0  -0.088625  -0.085192  0  4.019478  0
C  C59  1  0.05954442  0.22836588  0.15558830  1  0.014074  0  -0.089776  -0.080057  0  4.035014  0
C  C60  1  0.01158573  0.30958536  0.21822328  1  -0.077688  0  -0.085545  -0.132132  0  3.984214  0
C  C61  1  0.98269552  0.67459414  0.68698673  1  -0.004752  0  -0.007946  0.074975  0  4.01345  0
C  C62  1  0.92543807  0.63135225  0.76498294  1  0.030665  0  -0.085285  -0.131521  0  3.975013  0
C  C63  1  0.87748091  0.69394107  0.84610265  1  -0.080035  0  -0.086156  -0.073575  0  4.018714  0
C  C64  1  0.97261556  0.53495259  0.53718787  1  0.018565  0  0.00468  0.006941  0  4.014086  0
C  C65  1  0.88576798  0.80078406  0.85005083  1  -0.04483  0  -0.088662  -0.085445  0  4.019409  0
C  C66  1  0.94048425  0.84443907  0.77165929  1  0.013341  0  -0.089476  -0.079477  0  4.03554  0
C  C67  1  0.84427337  0.40313773  0.39540120  1  0.468655  0  0.125158  0.216272  0  3.866577  0
C  C68  1  0.15569740  0.60456280  0.59689030  1  0.468432  0  0.124994  0.216308  0  3.866358  0
C  C69  1  0.96145357  0.39462417  0.39459603  1  -0.027744  0  0.009033  -0.047041  0  3.921684  0
C  C70  1  0.03851650  0.60539651  0.60537549  1  -0.026996  0  0.009026  -0.046798  0  3.921179  0
C  C71  1  0.46218861  0.29824199  0.50845282  1  1.569532  0  0.212617  0.5926  0  4.158681  0
C  C72  1  0.85332055  0.53396165  0.53533588  1  0.495063  0  0.069477  0.075924  0  3.869338  0
C  C73  1  0.14664351  0.46463783  0.46605091  1  0.496148  0  0.069386  0.075777  0  3.869032  0
C  C74  1  0.46055287  0.47656588  0.19189859  1  0.02623  0  -0.019415  -0.019096  0  4.001844  0
C  C75  1  0.54301077  0.47808067  0.81385237  1  -0.072619  0  -0.020606  -0.021918  0  3.998177  0
C  C76  1  0.53944099  0.80811763  0.52340335  1  0.025607  0  -0.019367  -0.019261  0  4.001874  0
C  C77  1  0.45700405  0.18615073  0.52195802  1  -0.07214  0  -0.020729  -0.022406  0  3.998678  0
C  C78  1  0.46821387  0.48317934  0.30676714  1  1.55211  0  0.214659  0.595671  0  4.1542  0
C  C79  1  0.65325906  0.44672593  0.96512345  1  -0.071913  0  -0.010489  0.067388  0  3.92708  0
C  C80  1  0.34664950  0.48795667  0.03772320  1  0.004708  0  -0.00678  0.075969  0  3.920696  0
C  C81  1  0.34673609  0.03487966  0.55328230  1  -0.073291  0  -0.010666  0.066902  0  3.927745  0
C  C82  1  0.65334606  0.96230620  0.51206385  1  0.004404  0  -0.006819  0.07595  0  3.920732  0
C  C83  1  0.53784117  0.49159545  0.70177537  1  1.570017  0  0.212347  0.591832  0  4.159929  0
C  C84  1  0.64640682  0.45608298  0.86138221  1  -0.013609  0  -0.09724  -0.167293  0  3.979247  0
C  C85  1  0.35502393  0.48585210  0.14260236  1  -0.061874  0  -0.095333  -0.166453  0  3.968093  0
C  C86  1  0.35360531  0.13864482  0.54398511  1  -0.010766  0  -0.097136  -0.167288  0  3.978915  0
C  C87  1  0.64497652  0.85742047  0.51412853  1  -0.061222  0  -0.095221  -0.164655  0  3.968198  0
C  C88  1  0.44548818  0.48558041  0.87079659  1  -0.000395  0  -0.088311  -0.148258  0  3.967074  0
C  C89  1  0.55749739  0.46365903  0.13439985  1  -0.143173  0  -0.089239  -0.15093  0  3.966477  0
C  C90  1  0.55453192  0.12923011  0.51448115  1  -0.001052  0  -0.088219  -0.148185  0  3.967726  0
C  C91  1  0.44249901  0.86558705  0.53632733  1  -0.143219  0  -0.089362  -0.150995  0  3.967132  0
C  C92  1  0.44729123  0.47803589  0.97752412  1  -0.057655  0  -0.006772  0.024641  0  3.97652  0
C  C93  1  0.55373412  0.46204936  0.02631365  1  0.032349  0  -0.009696  0.024572  0  3.983868  0
C  C94  1  0.55270748  0.02250280  0.52197124  1  -0.057134  0  -0.006797  0.024612  0  3.976266  0
C  C95  1  0.44624740  0.97368527  0.53796680  1  0.03191  0  -0.009447  0.02511  0  3.983103  0
C  C96  1  0.23202571  0.67930529  0.66193468  1  -0.071518  0  -0.166198  -0.19103  0  3.963522  0
C  C97  1  0.23482768  0.66343233  0.77577422  1  -0.100862  0  -0.242222  -0.342599  0  3.947552  0
C  C98  1  0.76793699  0.33810313  0.32063821  1  -0.071947  0  -0.166496  -0.191591  0  3.963806  0
C  C99  1  0.76508457  0.22426496  0.33649544  1  -0.099495  0  -0.241915  -0.342428  0  3.947683  0
C  C100  1  0.76247137  0.41896658  0.01552601  1  0.012229  0  -0.15715  -0.136944  0  3.99521  0
C  C101  1  0.85678182  0.38295903  0.94215162  1  -0.053639  0  -0.2456  -0.355819  0  3.986769  0
C  C102  1  0.23455450  0.50299676  0.98570501  1  -0.014198  0  -0.159927  -0.141374  0  3.989521  0
C  C103  1  0.13150533  0.50645764  0.05444975  1  -0.088828  0  -0.247906  -0.353287  0  3.986161  0
C  C104  1  0.23754411  0.98447614  0.58103741  1  0.011638  0  -0.157103  -0.136702  0  3.995171  0
C  C105  1  0.14320711  0.05781184  0.61706851  1  -0.023386  0  -0.245682  -0.355906  0  3.98631  0
C  C106  1  0.76542327  0.01431489  0.49704816  1  -0.013746  0  -0.159727  -0.141104  0  3.988931  0
C  C107  1  0.86847515  0.94556834  0.49360018  1  -0.09079  0  -0.247824  -0.353038  0  3.985042  0
N  N108  1  0.20681130  0.53215193  0.52867656  1  -1.233203  0  -0.30527  -0.231536  0  3.462443  0
N  N109  1  0.79315957  0.47134767  0.46781097  1  -1.233946  0  -0.305297  -0.2312  0  3.462699  0
O  O110  1  0.43305828  0.65343305  0.50425130  1  -1.174481  0  -0.319091  -0.555594  0  2.377339  0
O  O111  1  0.37204236  0.34969539  0.52405474  1  -1.161665  0  -0.321366  -0.548243  0  2.305212  0
O  O112  1  0.37727283  0.47699454  0.35642328  1  -1.166294  0  -0.316477  -0.544727  0  2.307237  0
O  O113  1  0.62798071  0.47596160  0.65032812  1  -1.161958  0  -0.32131  -0.547952  0  2.30513  0
O  O114  1  0.62273359  0.64359099  0.52289525  1  -1.166627  0  -0.316284  -0.544322  0  2.307921  0
O  O115  1  0.55660623  0.33392142  0.48203331  1  -1.179468  0  -0.316643  -0.550448  0  2.335162  0
O  O116  1  0.56694820  0.49578470  0.34655128  1  -1.173858  0  -0.319004  -0.555535  0  2.377633  0
O  O117  1  0.44341021  0.51797960  0.66609096  1  -1.179314  0  -0.3166  -0.550342  0  2.335419  0
