# generated using pymatgen
data_CuH12C14N2(ClO)2
_symmetry_space_group_name_H-M   'P 1'
_cell_length_a   6.80010634
_cell_length_b   13.15646564
_cell_length_c   19.92500000
_cell_angle_alpha   90.00000000
_cell_angle_beta   90.00000000
_cell_angle_gamma   90.00000000
_symmetry_Int_Tables_number   1
_chemical_formula_structural   CuH12C14N2(ClO)2
_chemical_formula_sum   'Cu4 H48 C56 N8 Cl8 O8'
_cell_volume   1782.59740631
_cell_formula_units_Z   4
loop_
 _symmetry_equiv_pos_site_id
 _symmetry_equiv_pos_as_xyz
  1  'x, y, z'
loop_
 _atom_site_type_symbol
 _atom_site_label
 _atom_site_symmetry_multiplicity
 _atom_site_fract_x
 _atom_site_fract_y
 _atom_site_fract_z
 _atom_site_occupancy
 _atom_site_pbe_bader_charge
 _atom_site_pbe_bader_spin_density
 _atom_site_pbe_cm5_charge
 _atom_site_pbe_ddec_charge
 _atom_site_pbe_ddec_spin_density
 _atom_site_pbe_ddec_sum_bond_order
 _atom_site_pbe_magmom
Cu  Cu0  1  0.24999903  0.00000152  0.02971593  1  0.937637  -0.513192  0.586803  0.599834  -0.716348  2.587624  -0.512
Cu  Cu1  1  0.74999562  0.49999979  0.47027905  1  0.938229  0.514271  0.586744  0.599403  0.689874  2.587804  0.514
Cu  Cu2  1  0.75000445  0.00000076  0.97028407  1  0.937526  0.513663  0.586823  0.599758  0.689142  2.587604  0.513
Cu  Cu3  1  0.25000050  0.50000131  0.52972045  1  0.937915  0.513889  0.586655  0.599253  0.689337  2.587788  0.514
H  H4  1  0.39142623  0.09698273  0.28221129  1  0.081273  7e-06  0.102729  0.102861  7e-06  1.017175  0.0
H  H5  1  0.89143753  0.40302085  0.21776863  1  0.081094  2.5e-05  0.102764  0.102751  -1.4e-05  1.017191  0.0
H  H6  1  0.60856107  0.59698024  0.21776763  1  0.081131  2.5e-05  0.102743  0.10273  -1.4e-05  1.017225  0.0
H  H7  1  0.10857183  0.90301760  0.28221029  1  0.081304  7e-06  0.102736  0.102836  7e-06  1.017099  0.0
H  H8  1  0.60857284  0.90302444  0.71778871  1  0.081287  3.3e-05  0.102742  0.102798  -6e-06  1.017171  0.0
H  H9  1  0.10854683  0.59698328  0.78222886  1  0.081083  1.1e-05  0.102739  0.102711  -2e-06  1.017149  0.0
H  H10  1  0.39145123  0.40301857  0.78222886  1  0.081058  1.1e-05  0.10274  0.102758  -2e-06  1.017136  0.0
H  H11  1  0.89142577  0.09697589  0.71778921  1  0.081316  3.3e-05  0.102751  0.102845  -6e-06  1.017111  0.0
H  H12  1  0.25347692  0.17839138  0.38428306  1  0.068964  0.000211  0.099976  0.107034  0.000182  0.996056  0.0
H  H13  1  0.75346763  0.32160005  0.11570389  1  0.068602  0.000259  0.099921  0.106863  0.000148  0.996201  0.0
H  H14  1  0.74653538  0.67839724  0.11570238  1  0.068564  0.000259  0.099938  0.106909  0.000148  0.996196  0.0
H  H15  1  0.24651820  0.82160668  0.38428306  1  0.068949  0.000211  0.099965  0.107039  0.000182  0.996054  0.0
H  H16  1  0.74651333  0.82161428  0.61571794  1  0.068886  0.000479  0.099967  0.106952  0.000316  0.996103  0.0
H  H17  1  0.24652409  0.67839648  0.88429812  1  0.068486  6.5e-05  0.099905  0.106887  9e-06  0.996334  0.0
H  H18  1  0.25347986  0.32160385  0.88429812  1  0.068483  6.5e-05  0.099895  0.106888  9e-06  0.996171  0.0
H  H19  1  0.75348969  0.17838301  0.61571694  1  0.068868  0.000479  0.09995  0.106959  0.000316  0.996086  0.0
H  H20  1  0.89762861  0.22096740  0.38956085  1  0.065908  0.001085  0.092515  0.09774  0.000883  1.025006  0.0
H  H21  1  0.39763643  0.27900274  0.11043664  1  0.065655  0.001149  0.09248  0.097806  0.000938  1.025024  0.0
H  H22  1  0.10236605  0.72099531  0.11043363  1  0.065622  0.001149  0.092502  0.097791  0.000938  1.025002  0.0
H  H23  1  0.60236852  0.77902989  0.38955985  1  0.065915  0.001085  0.092498  0.097697  0.000883  1.025062  0.0
H  H24  1  0.10234840  0.77901469  0.61044316  1  0.065899  0.00114  0.092506  0.097754  0.000913  1.02502  0.0
H  H25  1  0.60236264  0.72097175  0.88957641  1  0.065604  -0.00106  0.092546  0.097814  -0.000921  1.025067  0.0
H  H26  1  0.89763890  0.27902479  0.88957591  1  0.065583  -0.00106  0.092527  0.097814  -0.000921  1.024929  0.0
H  H27  1  0.39765113  0.22097956  0.61044166  1  0.065879  0.00114  0.092487  0.097725  0.000913  1.025069  0.0
H  H28  1  0.68083788  0.18492581  0.29214655  1  0.073922  0.000101  0.099638  0.099651  6e-05  1.022369  0.0
H  H29  1  0.18084276  0.31507854  0.20784793  1  0.073976  -7.2e-05  0.099609  0.099595  -9.5e-05  1.022399  0.0
H  H30  1  0.31915971  0.68492103  0.20784743  1  0.073988  -7.2e-05  0.09963  0.099614  -9.5e-05  1.022306  0.0
H  H31  1  0.81915631  0.81506845  0.29214555  1  0.073905  0.000101  0.099636  0.099602  6e-05  1.022452  0.0
H  H32  1  0.31914354  0.81507301  0.70785144  1  0.073985  8.1e-05  0.099637  0.09964  4.6e-05  1.022544  0.0
H  H33  1  0.81914601  0.68493091  0.79215859  1  0.073951  6.5e-05  0.099584  0.099602  7.2e-05  1.022416  0.0
H  H34  1  0.68085259  0.31507018  0.79215759  1  0.074012  6.5e-05  0.099597  0.099615  7.2e-05  1.022343  0.0
H  H35  1  0.18085452  0.18491820  0.70784893  1  0.073961  8.1e-05  0.099599  0.099644  4.6e-05  1.022586  0.0
H  H36  1  0.81924307  0.10690333  0.18878595  1  0.078904  -0.000154  0.101803  0.112426  -0.000102  1.010433  0.0
H  H37  1  0.31927001  0.39309721  0.31120753  1  0.079374  0.000169  0.101765  0.112396  7.9e-05  1.010188  0.0
H  H38  1  0.18072953  0.60690464  0.31120703  1  0.079592  0.000169  0.101798  0.11244  7.9e-05  1.010154  0.0
H  H39  1  0.68076288  0.89309092  0.18878444  1  0.079047  -0.000154  0.101798  0.112376  -0.000102  1.010476  0.0
H  H40  1  0.18076629  0.89308636  0.81121706  1  0.079074  0.000205  0.101807  0.112427  0.000122  1.010381  0.0
H  H41  1  0.68073494  0.60691908  0.68879548  1  0.079632  0.000141  0.101791  0.112431  5.9e-05  1.010134  0.0
H  H42  1  0.81926807  0.39308809  0.68879649  1  0.079466  0.000141  0.101776  0.112419  5.9e-05  1.010133  0.0
H  H43  1  0.31923177  0.10691017  0.81121656  1  0.078871  0.000205  0.101789  0.112402  0.000122  1.010371  0.0
H  H44  1  0.05345799  0.17620614  0.04937716  1  0.624967  -0.001137  0.288214  0.316151  -0.000637  0.989558  -0.002
H  H45  1  0.55340311  0.32377009  0.45058018  1  0.625438  0.00113  0.288254  0.316373  0.000584  0.989557  0.002
H  H46  1  0.94659402  0.67623101  0.45058118  1  0.625484  0.00113  0.288269  0.316385  0.000583  0.989438  0.002
H  H47  1  0.44653713  0.82379647  0.04937566  1  0.624619  -0.001139  0.288211  0.316091  -0.000637  0.989555  -0.002
H  H48  1  0.94659990  0.82380255  0.95061782  1  0.624643  0.001149  0.288212  0.316126  0.000616  0.989583  0.002
H  H49  1  0.44654449  0.67623405  0.54941280  1  0.625699  0.001129  0.28826  0.316321  0.000585  0.989382  0.002
H  H50  1  0.05345505  0.32376628  0.54941481  1  0.62537  0.001129  0.288274  0.316338  0.000585  0.989381  0.002
H  H51  1  0.55339723  0.17619778  0.95061932  1  0.624564  0.001149  0.288204  0.316141  0.000616  0.989598  0.002
C  C52  1  0.19169994  0.04783732  0.16781681  1  0.568865  0.00335  0.140306  0.112588  0.000962  3.909919  0.0
C  C53  1  0.69168624  0.45217387  0.33216612  1  0.603749  -0.003152  0.140084  0.112202  -0.001087  3.910308  0.0
C  C54  1  0.80830795  0.54783178  0.33216612  1  0.569324  -0.003192  0.140143  0.112351  -0.001087  3.910263  0.0
C  C55  1  0.30830547  0.95216606  0.16781681  1  0.603466  0.003311  0.140296  0.112552  0.000962  3.909843  0.0
C  C56  1  0.80830501  0.95216910  0.83218469  1  0.603589  -0.003291  0.140329  0.112487  -0.001262  3.909857  0.0
C  C57  1  0.30830988  0.54783482  0.66783689  1  0.603352  -0.003132  0.14005  0.112196  -0.001078  3.910092  0.0
C  C58  1  0.19169112  0.45216855  0.66783739  1  0.568923  -0.003171  0.140042  0.112114  -0.001078  3.910239  0.0
C  C59  1  0.69169948  0.04783808  0.83218419  1  0.568662  -0.003327  0.140347  0.112584  -0.001262  3.90968  0.0
C  C60  1  0.11408939  0.09563815  0.22918243  1  -0.070051  -0.003824  -0.01302  0.035894  -0.002939  4.008157  -0.003
C  C61  1  0.61409334  0.40435556  0.27080100  1  -0.069932  0.004355  -0.012986  0.035981  0.003129  4.00804  0.004
C  C62  1  0.88590526  0.59564705  0.27080050  1  -0.069778  0.004355  -0.013015  0.035953  0.003129  4.00807  0.004
C  C63  1  0.38591308  0.90435914  0.22918243  1  -0.069878  -0.003823  -0.012998  0.036004  -0.002939  4.00818  -0.003
C  C64  1  0.88591703  0.90435914  0.77081706  1  -0.070193  0.004316  -0.01297  0.03593  0.003114  4.008362  0.004
C  C65  1  0.38590279  0.59564857  0.72920251  1  -0.069706  0.003856  -0.012999  0.036022  0.002817  4.008288  0.003
C  C66  1  0.11409822  0.40435328  0.72920100  1  -0.069801  0.003855  -0.013038  0.036049  0.002816  4.008107  0.003
C  C67  1  0.61408598  0.09564423  0.77081656  1  -0.070322  0.004316  -0.013063  0.035867  0.003113  4.008473  0.004
C  C68  1  0.23573161  0.11572941  0.28458570  1  -0.058012  -0.001654  -0.083264  -0.115092  -0.001228  3.983261  -0.001
C  C69  1  0.73574732  0.38427266  0.21539875  1  -0.058078  0.001695  -0.083154  -0.114817  0.001097  3.98312  0.001
C  C70  1  0.76425717  0.61572768  0.21539875  1  -0.057591  0.001694  -0.083106  -0.11475  0.001097  3.983225  0.001
C  C71  1  0.26427675  0.88426864  0.28458570  1  -0.057063  -0.001654  -0.083241  -0.11505  -0.001228  3.983337  -0.001
C  C72  1  0.76427775  0.88428080  0.71541531  1  -0.057869  0.001736  -0.083267  -0.114977  0.001141  3.983453  0.001
C  C73  1  0.26425910  0.61573224  0.78460025  1  -0.056957  0.001721  -0.083082  -0.114754  0.001208  3.983496  0.001
C  C74  1  0.23574778  0.38426810  0.78460075  1  -0.057756  0.001722  -0.083118  -0.114891  0.001209  3.983358  0.001
C  C75  1  0.73571791  0.11572029  0.71541631  1  -0.057251  0.001735  -0.083246  -0.115  0.00114  3.983596  0.001
C  C76  1  0.15785488  0.16076430  0.34198896  1  0.020992  0.000489  -0.090216  -0.075818  0.000425  3.998973  0.0
C  C77  1  0.65786324  0.33923092  0.15799598  1  0.0201  0.000552  -0.090306  -0.075752  0.000449  3.998845  0.0
C  C78  1  0.84213977  0.66076713  0.15799398  1  0.020056  0.000553  -0.090305  -0.075811  0.000449  3.998926  0.0
C  C79  1  0.34214318  0.83923375  0.34198795  1  0.020647  0.000489  -0.090294  -0.07591  0.000425  3.999134  0.0
C  C80  1  0.84212801  0.83923983  0.65800853  1  0.020986  0.00066  -0.090261  -0.075764  0.000558  3.998847  0.0
C  C81  1  0.34212259  0.66076865  0.84200703  1  0.020095  -0.000337  -0.090326  -0.075854  -0.000302  3.999196  0.0
C  C82  1  0.15787400  0.33923092  0.84200602  1  0.020223  -0.000336  -0.090282  -0.075761  -0.000301  3.998968  0.0
C  C83  1  0.65787501  0.16075822  0.65800803  1  0.020566  0.00066  -0.090239  -0.075802  0.000558  3.998846  0.0
C  C84  1  0.95804678  0.18491668  0.34487880  1  -0.000806  0.000213  -0.089307  -0.06858  0.000321  3.977053  0.0
C  C85  1  0.45804872  0.31507398  0.15511117  1  0.000245  0.002277  -0.08923  -0.068615  0.001735  3.976671  0.001
C  C86  1  0.04195081  0.68492407  0.15511267  1  0.000224  0.002276  -0.089265  -0.068611  0.001734  3.976852  0.001
C  C87  1  0.54194741  0.81508137  0.34487829  1  -0.000779  0.000214  -0.089219  -0.068465  0.000321  3.977026  0.0
C  C88  1  0.04194199  0.81507757  0.65511970  1  -0.000698  0.002368  -0.089265  -0.06862  0.001782  3.976797  0.001
C  C89  1  0.54194741  0.68492255  0.84489686  1  -7.3e-05  -6.1e-05  -0.089263  -0.068618  -0.000273  3.976345  0.0
C  C90  1  0.95805855  0.31508006  0.84489335  1  -9.1e-05  -6.1e-05  -0.089243  -0.068626  -0.000273  3.976671  0.0
C  C91  1  0.45805460  0.18491744  0.65511870  1  -0.000192  0.002367  -0.089229  -0.068529  0.001781  3.976629  0.001
C  C92  1  0.83600604  0.16448034  0.29007378  1  -0.099194  0.000225  -0.091926  -0.082573  7.3e-05  4.01326  0.0
C  C93  1  0.33601533  0.33552096  0.20991719  1  -0.09945  0.00026  -0.091996  -0.082639  8.2e-05  4.013511  0.0
C  C94  1  0.16398126  0.66447785  0.20991669  1  -0.0994  0.00026  -0.092006  -0.082632  8.2e-05  4.013724  0.0
C  C95  1  0.66399991  0.83551315  0.29007428  1  -0.099691  0.000225  -0.092032  -0.082629  7.3e-05  4.013114  0.0
C  C96  1  0.16400185  0.83551543  0.70992422  1  -0.099339  0.000413  -0.091941  -0.082495  0.000202  4.013295  0.0
C  C97  1  0.66399109  0.66449153  0.79008532  1  -0.09955  -5.4e-05  -0.091972  -0.082613  4e-05  4.013041  0.0
C  C98  1  0.83601781  0.33551336  0.79008582  1  -0.099473  -5.4e-05  -0.092002  -0.082633  4.1e-05  4.013407  0.0
C  C99  1  0.33598886  0.16447806  0.70992221  1  -0.099329  0.000413  -0.091864  -0.082498  0.000202  4.013088  0.0
C  C100  1  0.91327101  0.12087821  0.23209435  1  0.027284  -0.000208  -0.085742  -0.114319  -0.000127  3.95186  0.0
C  C101  1  0.41329501  0.37912006  0.26788708  1  0.027318  0.000352  -0.085687  -0.114306  0.000176  3.952263  0.0
C  C102  1  0.08670453  0.62088180  0.26788557  1  0.027279  0.000352  -0.085747  -0.1144  0.000176  3.952464  0.0
C  C103  1  0.58673200  0.87911680  0.23209335  1  0.027633  -0.000209  -0.085656  -0.114241  -0.000127  3.951717  0.0
C  C104  1  0.08672217  0.87911680  0.76790263  1  0.027309  0.000495  -0.085767  -0.114417  0.000274  3.952074  0.0
C  C105  1  0.58669965  0.62088940  0.73211343  1  0.02713  0.000322  -0.085722  -0.114371  0.000163  3.952047  0.0
C  C106  1  0.91329748  0.37911322  0.73211343  1  0.027089  0.000322  -0.085684  -0.114358  0.000163  3.951969  0.0
C  C107  1  0.41327736  0.12087973  0.76790314  1  0.027323  0.000495  -0.085765  -0.114404  0.000274  3.951905  0.0
N  N108  1  0.16063866  0.08295009  0.10757641  1  -0.571167  -0.095596  -0.258843  -0.072541  -0.069352  3.599961  -0.085
N  N109  1  0.66053967  0.41707858  0.39240301  1  -0.571595  0.097039  -0.258853  -0.072286  0.067774  3.599746  0.086
N  N110  1  0.83945599  0.58292327  0.39240301  1  -0.571641  0.097037  -0.258897  -0.072422  0.067772  3.599814  0.086
N  N111  1  0.33936234  0.91705328  0.10757541  1  -0.571201  -0.095595  -0.258843  -0.072586  -0.069351  3.599868  -0.085
N  N112  1  0.83939570  0.91706240  0.89242560  1  -0.571335  0.095842  -0.258918  -0.072443  0.06683  3.599763  0.085
N  N113  1  0.33943881  0.58292935  0.60759900  1  -0.571204  0.096844  -0.258836  -0.072268  0.067643  3.599591  0.085
N  N114  1  0.16056219  0.41707326  0.60759950  1  -0.571171  0.096844  -0.258845  -0.072203  0.067643  3.599653  0.085
N  N115  1  0.66060732  0.08294173  0.89242660  1  -0.570893  0.095837  -0.258892  -0.072492  0.066829  3.59971  0.085
Cl  Cl116  1  0.11895990  0.11288594  0.95657064  1  -0.584393  -0.122456  -0.27708  -0.479759  -0.085945  1.364869  -0.094
Cl  Cl117  1  0.61902708  0.38707508  0.54338570  1  -0.584608  0.119606  -0.277003  -0.479476  0.079919  1.364838  0.093
Cl  Cl118  1  0.88097446  0.61292145  0.54338670  1  -0.5846  0.119604  -0.276993  -0.479471  0.079916  1.364861  0.093
Cl  Cl119  1  0.38103816  0.88711819  0.95657014  1  -0.584381  -0.12246  -0.277086  -0.479778  -0.085947  1.364889  -0.094
Cl  Cl120  1  0.88107887  0.88712503  0.04342384  1  -0.584564  0.12271  -0.277108  -0.479793  0.082332  1.36502  0.094
Cl  Cl121  1  0.38092493  0.61293589  0.45660728  1  -0.584413  0.119451  -0.276963  -0.479466  0.079815  1.364727  0.093
Cl  Cl122  1  0.11906873  0.38706596  0.45660828  1  -0.584514  0.119453  -0.276967  -0.479454  0.079817  1.364724  0.093
Cl  Cl123  1  0.61892120  0.11287378  0.04342484  1  -0.584518  0.122709  -0.277106  -0.479778  0.082331  1.365012  0.094
O  O124  1  0.06417988  0.17275460  0.09972647  1  -0.713892  -0.015952  -0.229095  -0.275492  -0.010586  2.299299  -0.011
O  O125  1  0.56418971  0.32723682  0.40023438  1  -0.714197  0.016236  -0.229123  -0.275853  0.010221  2.299502  0.011
O  O126  1  0.93580742  0.67276579  0.40023639  1  -0.714241  0.016236  -0.229117  -0.275793  0.010221  2.299278  0.011
O  O127  1  0.43582260  0.82724725  0.09972547  1  -0.71349  -0.015949  -0.229084  -0.275387  -0.010586  2.299234  -0.011
O  O128  1  0.93582507  0.82724877  0.90026951  1  -0.713336  0.016112  -0.229045  -0.275433  0.010266  2.299147  0.011
O  O129  1  0.43581965  0.67276199  0.59976010  1  -0.714425  0.016134  -0.229113  -0.27576  0.01015  2.299267  0.011
O  O130  1  0.06417988  0.32724062  0.59976211  1  -0.71412  0.016134  -0.229093  -0.275771  0.01015  2.299303  0.011
O  O131  1  0.56417794  0.17275460  0.90027102  1  -0.713391  0.016113  -0.22907  -0.275497  0.010267  2.299211  0.011
