# generated using pymatgen
data_ErCuH22C18IN5O9
_symmetry_space_group_name_H-M   'P 1'
_cell_length_a   10.90913200
_cell_length_b   12.67987771
_cell_length_c   14.54373593
_cell_angle_alpha   91.96415541
_cell_angle_beta   96.44925869
_cell_angle_gamma   120.16215780
_symmetry_Int_Tables_number   1
_chemical_formula_structural   ErCuH22C18IN5O9
_chemical_formula_sum   'Er2 Cu2 H44 C36 I2 N10 O18'
_cell_volume   1718.73329971
_cell_formula_units_Z   2
loop_
 _symmetry_equiv_pos_site_id
 _symmetry_equiv_pos_as_xyz
  1  'x, y, z'
loop_
 _atom_site_type_symbol
 _atom_site_label
 _atom_site_symmetry_multiplicity
 _atom_site_fract_x
 _atom_site_fract_y
 _atom_site_fract_z
 _atom_site_occupancy
 _atom_site_hle17_bader_spin_density
 _atom_site_hle17_ddec_charge
 _atom_site_hle17_ddec_spin_density
 _atom_site_hle17_ddec_sum_bond_order
 _atom_site_hle17_magmom
 _atom_site_hse06_10hf_bader_spin_density
 _atom_site_hse06_10hf_ddec_charge
 _atom_site_hse06_10hf_ddec_spin_density
 _atom_site_hse06_10hf_ddec_sum_bond_order
 _atom_site_hse06_10hf_magmom
 _atom_site_hse06_bader_spin_density
 _atom_site_hse06_ddec_charge
 _atom_site_hse06_ddec_spin_density
 _atom_site_hse06_ddec_sum_bond_order
 _atom_site_hse06_magmom
 _atom_site_pbe_bader_spin_density
 _atom_site_pbe_cm5_charge
 _atom_site_pbe_ddec_charge
 _atom_site_pbe_ddec_spin_density
 _atom_site_pbe_ddec_sum_bond_order
 _atom_site_pbe_magmom
Er  Er0  1  0.22109922  0.12404579  0.53723188  1  0  2.235798  0  1.668251  0  0  2.086842  0  2.155242  0  0  2.225474  0  1.947708  0  0  1.525345  2.048442  0  2.187652  0
Er  Er1  1  0.77893466  0.87596817  0.46277964  1  0  2.235936  0  1.66798  0  0  2.087134  0  2.154717  0  0  2.225608  0  1.947435  0  0  1.525305  2.048766  0  2.187074  0
Cu  Cu2  1  0.01187121  0.49689341  0.08781902  1  0  0.303241  0  2.223078  0  0  0.204393  0  2.723714  0  0  0.200521  0  2.679512  0  0  0.367259  0.211142  0  2.748733  0
Cu  Cu3  1  0.98812875  0.50310932  0.91218911  1  0  0.303144  0  2.222789  0  0  0.204285  0  2.723429  0  0  0.200431  0  2.679223  0  0  0.367153  0.211011  0  2.748448  0
H  H4  1  0.26010816  0.70853207  0.20563975  1  0  0.084386  0  0.970434  0  0  0.087393  0  1.043464  0  0  0.091019  0  1.040129  0  0  0.10297  0.084736  0  1.045901  0
H  H5  1  0.73989194  0.29147708  0.79434246  1  0  0.08441  0  0.970465  0  0  0.087499  0  1.043369  0  0  0.091137  0  1.040018  0  0  0.102982  0.084822  0  1.04583  0
H  H6  1  0.29676240  0.85495088  0.34038564  1  0  0.116534  0  0.948449  0  0  0.123598  0  1.013867  0  0  0.127634  0  1.011398  0  0  0.109603  0.120604  0  1.015835  0
H  H7  1  0.70326012  0.14507357  0.65958873  1  0  0.116566  0  0.948326  0  0  0.123646  0  1.013758  0  0  0.127668  0  1.011334  0  0  0.10959  0.120648  0  1.015741  0
H  H8  1  0.83848860  0.70461808  0.29931098  1  0  0.131302  0  0.948531  0  0  0.139984  0  1.00902  0  0  0.14426  0  1.005702  0  0  0.118034  0.13675  0  1.011882  0
H  H9  1  0.16154155  0.29541905  0.70069539  1  0  0.13139  0  0.948535  0  0  0.140022  0  1.009082  0  0  0.144263  0  1.005813  0  0  0.118102  0.136789  0  1.011941  0
H  H10  1  0.81969243  0.55989071  0.16865701  1  0  0.078787  0  0.962472  0  0  0.084279  0  1.029349  0  0  0.088368  0  1.025593  0  0  0.100379  0.081291  0  1.032059  0
H  H11  1  0.18030760  0.44011734  0.83136160  1  0  0.078699  0  0.96245  0  0  0.084203  0  1.029344  0  0  0.08829  0  1.025592  0  0  0.100413  0.08122  0  1.03205  0
H  H12  1  0.22248924  0.42743561  0.16022768  1  0  0.081089  0  0.954699  0  0  0.087007  0  1.020527  0  0  0.091123  0  1.016696  0  0  0.103576  0.08382  0  1.023567  0
H  H13  1  0.77751246  0.57255655  0.83976035  1  0  0.081082  0  0.954619  0  0  0.087013  0  1.020421  0  0  0.091131  0  1.016597  0  0  0.103589  0.083851  0  1.023444  0
H  H14  1  0.22919936  0.28874944  0.27861906  1  0  0.10101  0  0.955225  0  0  0.111031  0  1.017128  0  0  0.114624  0  1.014618  0  0  0.10631  0.108508  0  1.01888  0
H  H15  1  0.77081573  0.71125675  0.72136234  1  0  0.101026  0  0.95482  0  0  0.111041  0  1.01673  0  0  0.114642  0  1.014211  0  0  0.106304  0.108485  0  1.018525  0
H  H16  1  0.77176385  0.11911469  0.25860880  1  0  0.111893  0  0.960144  0  0  0.120181  0  1.02436  0  0  0.123577  0  1.02289  0  0  0.109954  0.117723  0  1.025552  0
H  H17  1  0.22826143  0.88089536  0.74139907  1  0  0.111783  0  0.960181  0  0  0.120061  0  1.024415  0  0  0.123444  0  1.022968  0  0  0.109954  0.11763  0  1.025576  0
H  H18  1  0.78333110  0.26778118  0.14264541  1  0  0.070789  0  0.978088  0  0  0.074037  0  1.052068  0  0  0.078404  0  1.047685  0  0  0.096594  0.07088  0  1.055145  0
H  H19  1  0.21667588  0.73221916  0.85736052  1  0  0.070844  0  0.978004  0  0  0.07411  0  1.051977  0  0  0.078458  0  1.047616  0  0  0.096591  0.070954  0  1.055059  0
H  H20  1  0.60507535  0.17111307  0.48355191  1  0  0.121148  0  0.937334  0  0  0.140967  0  0.997653  0  0  0.142983  0  0.995895  0  0  0.115465  0.139454  0  0.998878  0
H  H21  1  0.39490649  0.82887014  0.51644713  1  0  0.121103  0  0.937449  0  0  0.140919  0  0.997774  0  0  0.142921  0  0.996036  0  0  0.115467  0.13945  0  0.99895  0
H  H22  1  0.72515770  0.22424632  0.39868697  1  0  0.087598  0  0.93707  0  0  0.106921  0  1.003724  0  0  0.107047  0  1.003989  0  0  0.100051  0.106807  0  1.003437  0
H  H23  1  0.27481922  0.77573133  0.60131077  1  0  0.087603  0  0.936881  0  0  0.106864  0  1.003635  0  0  0.106986  0  1.003899  0  0  0.100028  0.106743  0  1.003355  0
H  H24  1  0.62394344  0.06466838  0.41082608  1  0  0.12676  0  0.954147  0  0  0.144385  0  1.018969  0  0  0.145797  0  1.018179  0  0  0.11427  0.143189  0  1.02002  0
H  H25  1  0.37602558  0.93531164  0.58916896  1  0  0.126817  0  0.954042  0  0  0.144418  0  1.018902  0  0  0.145831  0  1.018109  0  0  0.114279  0.14322  0  1.019959  0
H  H26  1  0.38705190  0.06518498  0.21241617  1  0  0.109113  0  0.92104  0  0  0.131608  0  0.976962  0  0  0.132395  0  0.977053  0  0  0.116538  0.130918  0  0.977041  0
H  H27  1  0.61289756  0.93479329  0.78758874  1  0  0.109194  0  0.92134  0  0  0.1317  0  0.977176  0  0  0.132486  0  0.977272  0  0  0.116564  0.131008  0  0.977258  0
H  H28  1  0.49513739  0.00189622  0.25170148  1  0  0.116718  0  0.949362  0  0  0.131471  0  1.019212  0  0  0.133138  0  1.017931  0  0  0.109106  0.130116  0  1.020303  0
H  H29  1  0.50481513  0.99808578  0.74829763  1  0  0.116775  0  0.949086  0  0  0.131497  0  1.018984  0  0  0.133169  0  1.017697  0  0  0.10906  0.130139  0  1.020083  0
H  H30  1  0.57660122  0.15352932  0.21605582  1  0  0.100737  0  0.936083  0  0  0.123053  0  0.995112  0  0  0.123663  0  0.995115  0  0  0.106335  0.122534  0  0.995067  0
H  H31  1  0.42335063  0.84644288  0.78392988  1  0  0.100924  0  0.93587  0  0  0.123113  0  0.995042  0  0  0.123723  0  0.995047  0  0  0.106381  0.122593  0  0.994997  0
H  H32  1  0.31800204  0.14008258  0.31559268  1  0  0.044474  0  0.919582  0  0  0.052677  0  0.988385  0  0  0.055005  0  0.982411  0  0  0.128031  0.050825  0  0.992796  0
H  H33  1  0.68199046  0.85993154  0.68440687  1  0  0.044399  0  0.919461  0  0  0.052546  0  0.988346  0  0  0.05488  0  0.982366  0  0  0.127975  0.050693  0  0.992765  0
H  H34  1  0.14682923  0.42026701  0.56040535  1  0  0.119247  0  0.951038  0  0  0.134828  0  1.017173  0  0  0.136141  0  1.016721  0  0  0.113853  0.13393  0  1.017292  0
H  H35  1  0.85313869  0.57969949  0.43959607  1  0  0.119217  0  0.951009  0  0  0.134748  0  1.017256  0  0  0.136063  0  1.016796  0  0  0.113846  0.133855  0  1.017375  0
H  H36  1  0.09838075  0.48859008  0.46747344  1  0  0.094709  0  0.926496  0  0  0.117516  0  0.984201  0  0  0.117857  0  0.98446  0  0  0.107297  0.117326  0  0.983854  0
H  H37  1  0.90156972  0.51136319  0.53252326  1  0  0.09467  0  0.926467  0  0  0.117596  0  0.984027  0  0  0.117905  0  0.98432  0  0  0.10733  0.117414  0  0.983671  0
H  H38  1  0.24224738  0.58349111  0.55839884  1  0  0.096564  0  0.937977  0  0  0.119049  0  0.997994  0  0  0.119344  0  0.998133  0  0  0.106268  0.118771  0  0.997854  0
H  H39  1  0.75769990  0.41647637  0.44159593  1  0  0.096582  0  0.937947  0  0  0.119037  0  0.998012  0  0  0.119321  0  0.998157  0  0  0.106257  0.11876  0  0.997874  0
H  H40  1  0.41156293  0.54896855  0.35491892  1  0  0.111338  0  0.926843  0  0  0.132843  0  0.985125  0  0  0.133733  0  0.984927  0  0  0.114824  0.132091  0  0.98534  0
H  H41  1  0.58836593  0.45096870  0.64505816  1  0  0.111464  0  0.926808  0  0  0.132877  0  0.98515  0  0  0.133779  0  0.984921  0  0  0.114757  0.132118  0  0.985375  0
H  H42  1  0.39695190  0.66188848  0.42103196  1  0  0.115739  0  0.96129  0  0  0.129652  0  1.032906  0  0  0.131287  0  1.032396  0  0  0.108767  0.128305  0  1.033717  0
H  H43  1  0.60300208  0.33807226  0.57893640  1  0  0.116016  0  0.961201  0  0  0.129866  0  1.032834  0  0  0.1315  0  1.032323  0  0  0.108835  0.128515  0  1.033658  0
H  H44  1  0.24774452  0.55108901  0.33814034  1  0  0.097687  0  0.945369  0  0  0.11564  0  1.012025  0  0  0.115861  0  1.013326  0  0  0.101799  0.115352  0  1.011199  0
H  H45  1  0.75218627  0.44885362  0.66184946  1  0  0.097801  0  0.945243  0  0  0.115736  0  1.011884  0  0  0.11596  0  1.01318  0  0  0.101759  0.115444  0  1.011063  0
H  H46  1  0.39691373  0.39952769  0.42982812  1  0  0.040525  0  0.926096  0  0  0.048359  0  0.997155  0  0  0.050614  0  0.991551  0  0  0.125828  0.046529  0  1.00126  0
H  H47  1  0.60307320  0.60046469  0.57017027  1  0  0.040407  0  0.926262  0  0  0.048259  0  0.997307  0  0  0.050513  0  0.991705  0  0  0.125811  0.046435  0  1.001403  0
C  C48  1  0.16923238  0.70850096  0.23046669  1  0  0.102051  0  3.688168  0  0  0.075824  0  3.937042  0  0  0.081098  0  3.952437  0  0  0.032967  0.071968  0  3.927659  0
C  C49  1  0.83076936  0.29150640  0.76952798  1  0  0.102227  0  3.688173  0  0  0.075995  0  3.936912  0  0  0.081265  0  3.952306  0  0  0.033084  0.07219  0  3.927461  0
C  C50  1  0.18912241  0.79075605  0.30440537  1  0  -0.125745  0  3.71842  0  0  -0.147057  0  3.96568  0  0  -0.151758  0  3.985499  0  0  -0.083567  -0.143871  0  3.952173  0
C  C51  1  0.81089783  0.20926462  0.69558724  1  0  -0.125825  0  3.718344  0  0  -0.147189  0  3.965643  0  0  -0.151892  0  3.985454  0  0  -0.083615  -0.144016  0  3.952164  0
C  C52  1  0.06957689  0.79062402  0.33118003  1  0  -0.030137  0  3.732788  0  0  -0.012354  0  3.964301  0  0  -0.014099  0  3.981532  0  0  -0.006618  -0.010612  0  3.95116  0
C  C53  1  0.93045086  0.20939871  0.66882157  1  0  -0.030274  0  3.73328  0  0  -0.012432  0  3.96479  0  0  -0.01418  0  3.982008  0  0  -0.006526  -0.010692  0  3.951673  0
C  C54  1  0.93393566  0.70627667  0.28200558  1  0  -0.115887  0  3.699729  0  0  -0.136942  0  3.942088  0  0  -0.140525  0  3.959643  0  0  -0.075809  -0.134632  0  3.930113  0
C  C55  1  0.06608202  0.29374470  0.71800333  1  0  -0.115908  0  3.699976  0  0  -0.13696  0  3.942374  0  0  -0.140511  0  3.959944  0  0  -0.07591  -0.134653  0  3.930411  0
C  C56  1  0.92290287  0.62618693  0.20967632  1  0  0.111069  0  3.68853  0  0  0.086558  0  3.931262  0  0  0.091743  0  3.946154  0  0  0.036488  0.082845  0  3.922002  0
C  C57  1  0.07709858  0.37381853  0.79033478  1  0  0.11117  0  3.688551  0  0  0.086652  0  3.93134  0  0  0.091843  0  3.946221  0  0  0.036432  0.082928  0  3.922099  0
C  C58  1  0.08518224  0.88093537  0.40729146  1  0  0.712129  0  3.857518  0  0  0.667131  0  4.144742  0  0  0.704643  0  4.135701  0  0  0.228778  0.641595  0  4.15482  0
C  C59  1  0.91486286  0.11909702  0.59271268  1  0  0.711907  0  3.856716  0  0  0.66682  0  4.144114  0  0  0.704352  0  4.135056  0  0  0.2288  0.641276  0  4.154211  0
C  C60  1  0.12558469  0.35900475  0.18560216  1  0  0.107562  0  3.694484  0  0  0.081822  0  3.941048  0  0  0.087767  0  3.955454  0  0  0.035233  0.077914  0  3.931787  0
C  C61  1  0.87442670  0.64099672  0.81439527  1  0  0.107601  0  3.694291  0  0  0.081864  0  3.940884  0  0  0.0878  0  3.955304  0  0  0.035198  0.07792  0  3.931601  0
C  C62  1  0.12844894  0.28194985  0.25031844  1  0  -0.122556  0  3.736938  0  0  -0.144121  0  3.984448  0  0  -0.148847  0  4.003974  0  0  -0.083472  -0.141081  0  3.970965  0
C  C63  1  0.87158168  0.71806135  0.74968239  1  0  -0.122675  0  3.736729  0  0  -0.144202  0  3.984155  0  0  -0.148937  0  4.003691  0  0  -0.083494  -0.141136  0  3.970698  0
C  C64  1  0.00055859  0.19586075  0.27989933  1  0  -0.019954  0  3.718453  0  0  -0.004238  0  3.95033  0  0  -0.004786  0  3.966329  0  0  -0.006227  -0.003313  0  3.938046  0
C  C65  1  0.99947100  0.80415390  0.72011733  1  0  -0.019875  0  3.718507  0  0  -0.00408  0  3.950334  0  0  -0.004626  0  3.966332  0  0  -0.006105  -0.003155  0  3.938046  0
C  C66  1  0.87329427  0.18808443  0.23940519  1  0  -0.121379  0  3.727238  0  0  -0.142795  0  3.971416  0  0  -0.146887  0  3.989936  0  0  -0.081591  -0.140006  0  3.958652  0
C  C67  1  0.12672017  0.81192782  0.76060796  1  0  -0.121233  0  3.727554  0  0  -0.142637  0  3.971714  0  0  -0.146718  0  3.990234  0  0  -0.081682  -0.139864  0  3.958931  0
C  C68  1  0.87921628  0.26911596  0.17582847  1  0  0.106011  0  3.70034  0  0  0.079411  0  3.94791  0  0  0.085137  0  3.96203  0  0  0.032676  0.074976  0  3.939911  0
C  C69  1  0.12079233  0.73089071  0.82417987  1  0  0.10584  0  3.70073  0  0  0.079223  0  3.948339  0  0  0.084959  0  3.962459  0  0  0.03271  0.074756  0  3.940352  0
C  C70  1  0.99951662  0.11681878  0.35465266  1  0  0.723267  0  3.841448  0  0  0.680161  0  4.127894  0  0  0.718217  0  4.116008  0  0  0.233593  0.654705  0  4.138434  0
C  C71  1  0.00050687  0.88320642  0.64535688  1  0  0.723459  0  3.841148  0  0  0.680192  0  4.127808  0  0  0.71825  0  4.115926  0  0  0.233628  0.654738  0  4.138351  0
C  C72  1  0.62175941  0.15017251  0.41403810  1  0  -0.172273  0  3.613424  0  0  -0.273905  0  3.860523  0  0  -0.270011  0  3.868103  0  0  -0.132234  -0.276016  0  3.854894  0
C  C73  1  0.37822066  0.84981245  0.58595670  1  0  -0.172343  0  3.613396  0  0  -0.273929  0  3.860503  0  0  -0.270023  0  3.868092  0  0  -0.132298  -0.276069  0  3.854841  0
C  C74  1  0.49020372  0.08633261  0.25125468  1  0  -0.176838  0  3.648576  0  0  -0.277324  0  3.893221  0  0  -0.2745  0  3.903992  0  0  -0.124813  -0.278855  0  3.885775  0
C  C75  1  0.50975833  0.91363993  0.74874501  1  0  -0.177167  0  3.648467  0  0  -0.277528  0  3.893169  0  0  -0.274698  0  3.903927  0  0  -0.124877  -0.27905  0  3.885709  0
C  C76  1  0.40825223  0.16301129  0.37087778  1  0  0.423092  0  3.815948  0  0  0.344765  0  4.111332  0  0  0.374204  0  4.113369  0  0  0.182318  0.324963  0  4.112469  0
C  C77  1  0.59173966  0.83699833  0.62911883  1  0  0.423443  0  3.815652  0  0  0.345132  0  4.111043  0  0  0.374572  0  4.113062  0  0  0.182483  0.325325  0  4.112192  0
C  C78  1  0.18753620  0.49454975  0.51552023  1  0  -0.161899  0  3.642205  0  0  -0.257648  0  3.878802  0  0  -0.25378  0  3.888149  0  0  -0.125853  -0.259881  0  3.871863  0
C  C79  1  0.81242178  0.50541369  0.48447470  1  0  -0.161726  0  3.641972  0  0  -0.257536  0  3.87868  0  0  -0.253625  0  3.888038  0  0  -0.125855  -0.259783  0  3.871739  0
C  C80  1  0.33830663  0.56626515  0.38966482  1  0  -0.184096  0  3.651981  0  0  -0.28889  0  3.908356  0  0  -0.286598  0  3.919889  0  0  -0.132767  -0.29002  0  3.900265  0
C  C81  1  0.66163509  0.43369050  0.61032291  1  0  -0.18437  0  3.651523  0  0  -0.289057  0  3.90784  0  0  -0.286761  0  3.919369  0  0  -0.132636  -0.290157  0  3.899689  0
C  C82  1  0.32721001  0.40253651  0.47802350  1  0  0.416177  0  3.822376  0  0  0.337638  0  4.123905  0  0  0.366316  0  4.126996  0  0  0.182995  0.318499  0  4.124046  0
C  C83  1  0.67278442  0.59745615  0.52198040  1  0  0.416502  0  3.822295  0  0  0.337946  0  4.123812  0  0  0.366625  0  4.12689  0  0  0.183047  0.318803  0  4.123955  0
I  I84  1  0.24846235  0.59313576  0.00974513  1  0  -0.508824  0  1.262061  0  0  -0.462871  0  1.597928  0  0  -0.484435  0  1.56946  0  0  -0.276468  -0.446738  0  1.615943  0
I  I85  1  0.75154385  0.40687168  0.99026851  1  0  -0.508798  0  1.262102  0  0  -0.462866  0  1.598001  0  0  -0.484438  0  1.569541  0  0  -0.276468  -0.446732  0  1.616009  0
N  N86  1  0.03805426  0.62619090  0.18366859  1  0  -0.247916  0  3.353455  0  0  -0.177984  0  3.640461  0  0  -0.184718  0  3.646893  0  0  -0.356304  -0.174357  0  3.635893  0
N  N87  1  0.96193887  0.37380440  0.81633389  1  0  -0.248001  0  3.353513  0  0  -0.178106  0  3.640559  0  0  -0.184848  0  3.647005  0  0  -0.356358  -0.174482  0  3.635998  0
N  N88  1  0.00354233  0.35566890  0.15030424  1  0  -0.246041  0  3.345019  0  0  -0.176152  0  3.630455  0  0  -0.182525  0  3.636193  0  0  -0.357046  -0.172687  0  3.626335  0
N  N89  1  0.99646852  0.64434329  0.84969415  1  0  -0.24589  0  3.34513  0  0  -0.176064  0  3.630635  0  0  -0.182441  0  3.636376  0  0  -0.356946  -0.172548  0  3.626466  0
N  N90  1  0.40941885  0.17314835  0.70603903  1  0  0.720384  0  4.119407  0  0  0.741656  0  4.428178  0  0  0.769962  0  4.43906  0  0  0.080398  0.72219  0  4.424782  0
N  N91  1  0.59063575  0.82687279  0.29396288  1  0  0.720017  0  4.119117  0  0  0.74124  0  4.428016  0  0  0.769542  0  4.438891  0  0  0.080237  0.721773  0  4.424621  0
N  N92  1  0.50391176  0.13599271  0.34623272  1  0  -0.078167  0  3.492017  0  0  0.026805  0  3.727799  0  0  0.00725  0  3.75182  0  0  -0.273711  0.040148  0  3.710389  0
N  N93  1  0.49606910  0.86400034  0.65376309  1  0  -0.078216  0  3.492099  0  0  0.026825  0  3.727771  0  0  0.007263  0  3.751797  0  0  -0.273595  0.040168  0  3.710369  0
N  N94  1  0.28628282  0.48412855  0.46173441  1  0  -0.080466  0  3.491573  0  0  0.025186  0  3.724845  0  0  0.005165  0  3.749983  0  0  -0.275389  0.03885  0  3.706616  0
N  N95  1  0.71368701  0.51584792  0.53826060  1  0  -0.081004  0  3.491201  0  0  0.024711  0  3.724473  0  0  0.004685  0  3.749591  0  0  -0.275502  0.038381  0  3.706254  0
O  O96  1  0.21040945  0.96135026  0.44676463  1  0  -0.703341  0  2.011442  0  0  -0.653121  0  2.255834  0  0  -0.688763  0  2.243113  0  0  -0.376379  -0.635544  0  2.262075  0
O  O97  1  0.78962491  0.03866744  0.55322298  1  0  -0.703373  0  2.010692  0  0  -0.65315  0  2.255098  0  0  -0.688772  0  2.242376  0  0  -0.376428  -0.635568  0  2.261343  0
O  O98  1  0.97177441  0.87498894  0.42786570  1  0  -0.783262  0  2.174617  0  0  -0.730175  0  2.439555  0  0  -0.773053  0  2.425739  0  0  -0.413958  -0.712041  0  2.44806  0
O  O99  1  0.02829498  0.12505069  0.57214359  1  0  -0.783027  0  2.174561  0  0  -0.72989  0  2.439585  0  0  -0.772797  0  2.425747  0  0  -0.41402  -0.711746  0  2.448098  0
O  O100  1  0.12122006  0.13689279  0.39317532  1  0  -0.754595  0  2.095914  0  0  -0.704219  0  2.351096  0  0  -0.742636  0  2.337233  0  0  -0.398046  -0.685598  0  2.357705  0
O  O101  1  0.87879881  0.86313931  0.60684708  1  0  -0.75457  0  2.096004  0  0  -0.70413  0  2.351185  0  0  -0.742553  0  2.337387  0  0  -0.398012  -0.685507  0  2.357779  0
O  O102  1  0.87852280  0.03858762  0.37494006  1  0  -0.727165  0  2.086313  0  0  -0.679736  0  2.339153  0  0  -0.716962  0  2.325221  0  0  -0.388859  -0.662253  0  2.346169  0
O  O103  1  0.12150173  0.96142423  0.62505886  1  0  -0.727392  0  2.086263  0  0  -0.679878  0  2.339152  0  0  -0.717132  0  2.325206  0  0  -0.388889  -0.662391  0  2.346181  0
O  O104  1  0.41580575  0.21042832  0.45036430  1  0  -0.642554  0  2.136817  0  0  -0.59033  0  2.403632  0  0  -0.625734  0  2.395085  0  0  -0.372648  -0.573238  0  2.40783  0
O  O105  1  0.58420409  0.78959369  0.54963292  1  0  -0.64274  0  2.136778  0  0  -0.590571  0  2.403644  0  0  -0.625949  0  2.395093  0  0  -0.372775  -0.573493  0  2.407855  0
O  O106  1  0.29226314  0.33414407  0.54223039  1  0  -0.624285  0  2.125205  0  0  -0.573726  0  2.390553  0  0  -0.609024  0  2.381118  0  0  -0.367289  -0.557046  0  2.394614  0
O  O107  1  0.70776486  0.66586604  0.45778599  1  0  -0.624333  0  2.125007  0  0  -0.573792  0  2.390364  0  0  -0.609068  0  2.380933  0  0  -0.367313  -0.557116  0  2.394423  0
O  O108  1  0.31921453  0.21020325  0.69822815  1  0  -0.536246  0  1.766958  0  0  -0.527079  0  1.993906  0  0  -0.551854  0  1.983046  0  0  -0.242256  -0.516152  0  2.00028  0
O  O109  1  0.68087251  0.78984970  0.30177212  1  0  -0.536351  0  1.766785  0  0  -0.52713  0  1.99369  0  0  -0.551884  0  1.982837  0  0  -0.242287  -0.516208  0  2.000065  0
O  O110  1  0.42496955  0.13008603  0.62856380  1  0  -0.581003  0  1.78158  0  0  -0.567304  0  2.022764  0  0  -0.594153  0  2.013751  0  0  -0.25846  -0.55484  0  2.028182  0
O  O111  1  0.57506243  0.86991796  0.37145413  1  0  -0.580937  0  1.781036  0  0  -0.56729  0  2.022279  0  0  -0.594123  0  2.013262  0  0  -0.258483  -0.554832  0  2.027699  0
O  O112  1  0.47729777  0.17757171  0.78109219  1  0  -0.374321  0  1.734821  0  0  -0.366721  0  1.931115  0  0  -0.375692  0  1.923929  0  0  -0.144107  -0.359953  0  1.935801  0
O  O113  1  0.52274303  0.82244795  0.21891324  1  0  -0.373967  0  1.735012  0  0  -0.366351  0  1.931314  0  0  -0.375318  0  1.924127  0  0  -0.14391  -0.359583  0  1.935991  0
