# generated using pymatgen
data_VH8C12IN2O5
_symmetry_space_group_name_H-M   'P 1'
_cell_length_a   11.55352550
_cell_length_b   11.55351243
_cell_length_c   12.04644848
_cell_angle_alpha   114.10494342
_cell_angle_beta   113.64039413
_cell_angle_gamma   98.97858217
_symmetry_Int_Tables_number   1
_chemical_formula_structural   VH8C12IN2O5
_chemical_formula_sum   'V4 H32 C48 I4 N8 O20'
_cell_volume   1242.36623820
_cell_formula_units_Z   4
loop_
 _symmetry_equiv_pos_site_id
 _symmetry_equiv_pos_as_xyz
  1  'x, y, z'
loop_
 _atom_site_type_symbol
 _atom_site_label
 _atom_site_symmetry_multiplicity
 _atom_site_fract_x
 _atom_site_fract_y
 _atom_site_fract_z
 _atom_site_occupancy
 _atom_site_hle17_bader_spin_density
 _atom_site_hle17_ddec_charge
 _atom_site_hle17_ddec_spin_density
 _atom_site_hle17_ddec_sum_bond_order
 _atom_site_hle17_magmom
 _atom_site_hse06_10hf_bader_spin_density
 _atom_site_hse06_10hf_ddec_charge
 _atom_site_hse06_10hf_ddec_spin_density
 _atom_site_hse06_10hf_ddec_sum_bond_order
 _atom_site_hse06_10hf_magmom
 _atom_site_hse06_bader_spin_density
 _atom_site_hse06_ddec_charge
 _atom_site_hse06_ddec_spin_density
 _atom_site_hse06_ddec_sum_bond_order
 _atom_site_hse06_magmom
 _atom_site_pbe_bader_spin_density
 _atom_site_pbe_cm5_charge
 _atom_site_pbe_ddec_charge
 _atom_site_pbe_ddec_spin_density
 _atom_site_pbe_ddec_sum_bond_order
 _atom_site_pbe_magmom
V  V0  1  0.63428152  0.61638979  0.26948352  1  0  1.805203  0  3.03255  0  0  1.83446  0  3.424125  0  0  1.925967  0  3.410835  0  0  1.431847  1.771804  0  3.436513  0
V  V1  1  0.34690457  0.86479842  0.23051262  1  0  1.805144  0  3.032527  0  0  1.834384  0  3.424133  0  0  1.925913  0  3.410814  0  0  1.431827  1.771709  0  3.436565  0
V  V2  1  0.36571479  0.38360953  0.73051451  1  0  1.805187  0  3.032567  0  0  1.834397  0  3.424229  0  0  1.925958  0  3.410855  0  0  1.431848  1.771725  0  3.436655  0
V  V3  1  0.65309780  0.13520189  0.76948813  1  0  1.805234  0  3.032448  0  0  1.834385  0  3.424203  0  0  1.926007  0  3.410722  0  0  1.431855  1.77171  0  3.436619  0
H  H4  1  0.55478971  0.43721851  0.39391288  1  0  0.098877  0  0.921159  0  0  0.108501  0  0.980503  0  0  0.111416  0  0.977251  0  0  0.123514  0.106406  0  0.98248  0
H  H5  1  0.04330535  0.66087705  0.10608694  1  0  0.098883  0  0.921116  0  0  0.108502  0  0.980479  0  0  0.111413  0  0.977228  0  0  0.123505  0.106405  0  0.982458  0
H  H6  1  0.44520943  0.56278079  0.60608540  1  0  0.098892  0  0.921143  0  0  0.108531  0  0.980477  0  0  0.111444  0  0.977225  0  0  0.123518  0.106434  0  0.982456  0
H  H7  1  0.95669890  0.33912325  0.89391452  1  0  0.098853  0  0.921148  0  0  0.108533  0  0.980439  0  0  0.11145  0  0.977186  0  0  0.123483  0.106438  0  0.982418  0
H  H8  1  0.67310724  0.37494466  0.57202777  1  0  0.110188  0  0.96845  0  0  0.119305  0  1.029516  0  0  0.123162  0  1.027156  0  0  0.101019  0.116563  0  1.031292  0
H  H9  1  0.80291609  0.60107855  0.92797222  1  0  0.110193  0  0.968428  0  0  0.119311  0  1.029493  0  0  0.123167  0  1.027133  0  0  0.101006  0.116569  0  1.03127  0
H  H10  1  0.32689284  0.62505463  0.42796921  1  0  0.110235  0  0.968494  0  0  0.119358  0  1.029539  0  0  0.123214  0  1.02718  0  0  0.101037  0.116615  0  1.031314  0
H  H11  1  0.19708604  0.39891869  0.07202890  1  0  0.110121  0  0.968485  0  0  0.119246  0  1.029552  0  0  0.123101  0  1.027191  0  0  0.100988  0.116505  0  1.031327  0
H  H12  1  0.93038360  0.47264915  0.71627133  1  0  0.1188  0  0.922655  0  0  0.131644  0  0.977553  0  0  0.134519  0  0.976067  0  0  0.114384  0.129645  0  0.978384  0
H  H13  1  0.75637666  0.71411233  0.78372921  1  0  0.118782  0  0.922696  0  0  0.131624  0  0.977597  0  0  0.134498  0  0.976111  0  0  0.11438  0.129628  0  0.978427  0
H  H14  1  0.06961539  0.52735221  0.28372853  1  0  0.118768  0  0.922665  0  0  0.131611  0  0.977571  0  0  0.134484  0  0.976086  0  0  0.114369  0.129615  0  0.978402  0
H  H15  1  0.24362625  0.28588696  0.21627384  1  0  0.118783  0  0.922729  0  0  0.131608  0  0.977659  0  0  0.134483  0  0.976175  0  0  0.114378  0.129613  0  0.978487  0
H  H16  1  0.15121448  0.62969988  0.77655656  1  0  0.119201  0  0.953058  0  0  0.12643  0  1.018911  0  0  0.130699  0  1.015267  0  0  0.103298  0.123269  0  1.021655  0
H  H17  1  0.85314314  0.87465901  0.72344545  1  0  0.119183  0  0.953048  0  0  0.126385  0  1.018922  0  0  0.130653  0  1.01528  0  0  0.103288  0.123228  0  1.021663  0
H  H18  1  0.84878545  0.37030148  0.22344533  1  0  0.119147  0  0.953111  0  0  0.126406  0  1.018928  0  0  0.130673  0  1.015286  0  0  0.103297  0.123247  0  1.02167  0
H  H19  1  0.14685773  0.12534234  0.27655679  1  0  0.119161  0  0.953073  0  0  0.126398  0  1.018917  0  0  0.130664  0  1.015275  0  0  0.103289  0.123237  0  1.021657  0
H  H20  1  0.27220763  0.78992381  0.73662468  1  0  0.091994  0  0.968969  0  0  0.105333  0  1.030073  0  0  0.10713  0  1.030537  0  0  0.104028  0.103928  0  1.029947  0
H  H21  1  0.05329712  0.03558134  0.76337692  1  0  0.092015  0  0.968939  0  0  0.105349  0  1.030029  0  0  0.107149  0  1.03049  0  0  0.104019  0.103932  0  1.029935  0
H  H22  1  0.72779325  0.21007754  0.26337590  1  0  0.092017  0  0.969055  0  0  0.105362  0  1.030135  0  0  0.10716  0  1.0306  0  0  0.104043  0.103954  0  1.030018  0
H  H23  1  0.94670297  0.96441797  0.23662504  1  0  0.091994  0  0.968988  0  0  0.105349  0  1.030062  0  0  0.107147  0  1.030527  0  0  0.104026  0.103938  0  1.029955  0
H  H24  1  0.26243335  0.90445701  0.58986108  1  0  0.117132  0  0.935498  0  0  0.131152  0  0.990124  0  0  0.134783  0  0.987128  0  0  0.109566  0.12845  0  0.992303  0
H  H25  1  0.31459398  0.17257291  0.91013763  1  0  0.117123  0  0.935468  0  0  0.131144  0  0.990095  0  0  0.134775  0  0.987098  0  0  0.109579  0.128442  0  0.992272  0
H  H26  1  0.73756485  0.09554230  0.41013768  1  0  0.117098  0  0.935515  0  0  0.13112  0  0.990142  0  0  0.13475  0  0.987146  0  0  0.109567  0.128417  0  0.992322  0
H  H27  1  0.68540422  0.82742639  0.08986112  1  0  0.117098  0  0.935487  0  0  0.131116  0  0.990115  0  0  0.134748  0  0.987118  0  0  0.109551  0.128414  0  0.992294  0
H  H28  1  0.11847672  0.93123138  0.39223671  1  0  0.12774  0  0.958314  0  0  0.137305  0  1.014945  0  0  0.141608  0  1.012779  0  0  0.107686  0.134306  0  1.016406  0
H  H29  1  0.53899447  0.22624198  0.10776340  1  0  0.127744  0  0.958366  0  0  0.137303  0  1.015005  0  0  0.141606  0  1.012839  0  0  0.107682  0.134303  0  1.016467  0
H  H30  1  0.88152093  0.06876897  0.60776390  1  0  0.127732  0  0.958349  0  0  0.137295  0  1.014983  0  0  0.141599  0  1.012816  0  0  0.107668  0.134298  0  1.016444  0
H  H31  1  0.46100561  0.77375731  0.89223441  1  0  0.127739  0  0.958317  0  0  0.13733  0  1.014916  0  0  0.141635  0  1.012748  0  0  0.107691  0.134327  0  1.016381  0
H  H32  1  0.86090036  0.80545812  0.25545515  1  0  0.070595  0  0.954513  0  0  0.078166  0  1.023654  0  0  0.080966  0  1.020115  0  0  0.113926  0.076381  0  1.02537  0
H  H33  1  0.55000248  0.10544538  0.24454434  1  0  0.070626  0  0.954492  0  0  0.078197  0  1.023631  0  0  0.080995  0  1.020095  0  0  0.113935  0.076412  0  1.025344  0
H  H34  1  0.13909878  0.19454118  0.74454397  1  0  0.07062  0  0.954485  0  0  0.078186  0  1.023624  0  0  0.080986  0  1.020087  0  0  0.113934  0.076402  0  1.025336  0
H  H35  1  0.44999799  0.89455494  0.75545486  1  0  0.070609  0  0.95451  0  0  0.078198  0  1.023624  0  0  0.080996  0  1.020089  0  0  0.113951  0.076412  0  1.025339  0
C  C36  1  0.66606977  0.47703028  0.45606077  1  0  0.17016  0  3.641429  0  0  0.138955  0  3.90589  0  0  0.150937  0  3.919265  0  0  0.065435  0.131799  0  3.895558  0
C  C37  1  0.02096904  0.71000948  0.04393799  1  0  0.17026  0  3.641324  0  0  0.139031  0  3.905846  0  0  0.15102  0  3.919214  0  0  0.065483  0.131877  0  3.895514  0
C  C38  1  0.33392951  0.52296696  0.54393428  1  0  0.170216  0  3.641357  0  0  0.138986  0  3.905857  0  0  0.150975  0  3.919227  0  0  0.065475  0.131829  0  3.895525  0
C  C39  1  0.97903467  0.28999185  0.95606450  1  0  0.170153  0  3.641393  0  0  0.138898  0  3.905892  0  0  0.150881  0  3.919269  0  0  0.065475  0.131743  0  3.895559  0
C  C40  1  0.73359464  0.44216800  0.55655169  1  0  -0.109928  0  3.705495  0  0  -0.12089  0  3.955718  0  0  -0.128732  0  3.975324  0  0  -0.080117  -0.116042  0  3.9418  0
C  C41  1  0.88561557  0.67704226  0.94344780  1  0  -0.110005  0  3.705509  0  0  -0.120957  0  3.955739  0  0  -0.128798  0  3.975343  0  0  -0.080154  -0.116108  0  3.941823  0
C  C42  1  0.26640465  0.55782924  0.44344336  1  0  -0.110056  0  3.705549  0  0  -0.121014  0  3.955786  0  0  -0.128857  0  3.975389  0  0  -0.080125  -0.116165  0  3.94187  0
C  C43  1  0.11438640  0.32295704  0.05655489  1  0  -0.109853  0  3.705391  0  0  -0.120816  0  3.95565  0  0  -0.128652  0  3.975252  0  0  -0.08011  -0.115965  0  3.94173  0
C  C44  1  0.87484835  0.49634199  0.63619457  1  0  -0.037401  0  3.677135  0  0  -0.063004  0  3.922414  0  0  -0.059519  0  3.940384  0  0  -0.05822  -0.064553  0  3.909475  0
C  C45  1  0.86014583  0.73865374  0.86380589  1  0  -0.037398  0  3.677196  0  0  -0.062984  0  3.922484  0  0  -0.059499  0  3.940452  0  0  -0.058211  -0.064533  0  3.909548  0
C  C46  1  0.12515213  0.50365833  0.36380379  1  0  -0.037352  0  3.677058  0  0  -0.062959  0  3.922348  0  0  -0.059476  0  3.94032  0  0  -0.058219  -0.064508  0  3.909415  0
C  C47  1  0.13985614  0.26134556  0.13619680  1  0  -0.037358  0  3.677048  0  0  -0.062982  0  3.92236  0  0  -0.059497  0  3.940324  0  0  -0.058225  -0.064533  0  3.909423  0
C  C48  1  0.94864651  0.58596537  0.61463501  1  0  0.014804  0  3.803315  0  0  0.03326  0  4.030398  0  0  0.030152  0  4.054033  0  0  -0.001706  0.035199  0  4.014271  0
C  C49  1  0.97132922  0.83401129  0.88536598  1  0  0.014934  0  3.803265  0  0  0.033322  0  4.030381  0  0  0.03022  0  4.054015  0  0  -0.001696  0.035263  0  4.014256  0
C  C50  1  0.05135342  0.41403598  0.38536521  1  0  0.01488  0  3.803354  0  0  0.033294  0  4.030419  0  0  0.030191  0  4.054054  0  0  -0.001699  0.035238  0  4.014298  0
C  C51  1  0.02867181  0.16598801  0.11463552  1  0  0.014858  0  3.80335  0  0  0.033313  0  4.030343  0  0  0.03021  0  4.053977  0  0  -0.001698  0.035259  0  4.01422  0
C  C52  1  0.09454403  0.65147038  0.69557450  1  0  -0.078916  0  3.69983  0  0  -0.105935  0  3.962026  0  0  -0.107294  0  3.982201  0  0  -0.082544  -0.104565  0  3.94811  0
C  C53  1  0.95589618  0.89896813  0.80442728  1  0  -0.078935  0  3.699884  0  0  -0.105908  0  3.962089  0  0  -0.10727  0  3.982268  0  0  -0.082542  -0.104547  0  3.948179  0
C  C54  1  0.90545739  0.34852995  0.30442755  1  0  -0.07886  0  3.699814  0  0  -0.105892  0  3.962  0  0  -0.107254  0  3.98218  0  0  -0.082536  -0.104529  0  3.948088  0
C  C55  1  0.04410350  0.10103014  0.19557247  1  0  -0.078872  0  3.699875  0  0  -0.105905  0  3.962057  0  0  -0.107267  0  3.982238  0  0  -0.082517  -0.104532  0  3.948137  0
C  C56  1  0.16134710  0.73940324  0.67244590  1  0  -0.101226  0  3.746715  0  0  -0.126126  0  4.00585  0  0  -0.130312  0  4.03045  0  0  -0.086283  -0.123717  0  3.98982  0
C  C57  1  0.06695637  0.98890057  0.82755583  1  0  -0.101285  0  3.746776  0  0  -0.126162  0  4.005915  0  0  -0.13035  0  4.030517  0  0  -0.086303  -0.123755  0  3.98988  0
C  C58  1  0.83865204  0.26059606  0.32755321  1  0  -0.101281  0  3.746802  0  0  -0.12619  0  4.005958  0  0  -0.130377  0  4.030559  0  0  -0.086299  -0.12378  0  3.989926  0
C  C59  1  0.93304332  0.01109771  0.17244475  1  0  -0.101305  0  3.746804  0  0  -0.126221  0  4.005953  0  0  -0.130408  0  4.030556  0  0  -0.086326  -0.123815  0  3.98992  0
C  C60  1  0.08836200  0.76588504  0.56348974  1  0  0.020575  0  3.809955  0  0  0.036919  0  4.040082  0  0  0.034668  0  4.064841  0  0  -0.000929  0.037795  0  4.023635  0
C  C61  1  0.20239365  0.02487387  0.93651055  1  0  0.020623  0  3.809907  0  0  0.036943  0  4.040064  0  0  0.034693  0  4.064826  0  0  -0.000864  0.037818  0  4.023615  0
C  C62  1  0.91163714  0.23411426  0.43650854  1  0  0.020589  0  3.809885  0  0  0.036933  0  4.040023  0  0  0.034683  0  4.064783  0  0  -0.000932  0.037804  0  4.023574  0
C  C63  1  0.79760629  0.97512748  0.06349050  1  0  0.020621  0  3.809981  0  0  0.03698  0  4.040098  0  0  0.034729  0  4.064854  0  0  -0.000894  0.037853  0  4.02365  0
C  C64  1  0.15134620  0.85167655  0.53052492  1  0  -0.03991  0  3.64076  0  0  -0.062023  0  3.881697  0  0  -0.059665  0  3.898353  0  0  -0.058565  -0.06191  0  3.869023  0
C  C65  1  0.32115108  0.12082477  0.96947644  1  0  -0.039883  0  3.640625  0  0  -0.061982  0  3.881568  0  0  -0.059626  0  3.898225  0  0  -0.058581  -0.061869  0  3.868893  0
C  C66  1  0.84865200  0.14832277  0.46947633  1  0  -0.039829  0  3.640668  0  0  -0.061932  0  3.881591  0  0  -0.059575  0  3.898249  0  0  -0.058575  -0.061816  0  3.868917  0
C  C67  1  0.67884925  0.87917761  0.03052434  1  0  -0.039854  0  3.640775  0  0  -0.061957  0  3.881697  0  0  -0.059599  0  3.898353  0  0  -0.058534  -0.061842  0  3.86902  0
C  C68  1  0.07109377  0.86728634  0.42031976  1  0  -0.107062  0  3.691593  0  0  -0.11973  0  3.943049  0  0  -0.126195  0  3.961847  0  0  -0.079915  -0.115633  0  3.928387  0
C  C69  1  0.44696603  0.15077744  0.07968126  1  0  -0.107058  0  3.6916  0  0  -0.119719  0  3.943034  0  0  -0.126186  0  3.961835  0  0  -0.079858  -0.115626  0  3.928377  0
C  C70  1  0.92890374  0.13271607  0.57968243  1  0  -0.107094  0  3.691676  0  0  -0.11976  0  3.943121  0  0  -0.126228  0  3.96192  0  0  -0.07987  -0.115667  0  3.928461  0
C  C71  1  0.55303578  0.84922390  0.92031884  1  0  -0.107121  0  3.6917  0  0  -0.11981  0  3.943149  0  0  -0.126278  0  3.961947  0  0  -0.079915  -0.115715  0  3.92849  0
C  C72  1  0.92848323  0.79799719  0.34422628  1  0  0.158348  0  3.69832  0  0  0.126293  0  3.965669  0  0  0.136501  0  3.980278  0  0  0.058236  0.120082  0  3.953776  0
C  C73  1  0.45376995  0.08426056  0.15577413  1  0  0.158309  0  3.69831  0  0  0.126256  0  3.965673  0  0  0.136464  0  3.980283  0  0  0.058202  0.120048  0  3.953778  0
C  C74  1  0.07151348  0.20200316  0.65577397  1  0  0.158366  0  3.698309  0  0  0.126327  0  3.965666  0  0  0.136537  0  3.98027  0  0  0.058247  0.120117  0  3.953772  0
C  C75  1  0.54623013  0.91573873  0.84422535  1  0  0.158407  0  3.698263  0  0  0.126346  0  3.965619  0  0  0.136557  0  3.980228  0  0  0.05824  0.120137  0  3.953725  0
C  C76  1  0.87261273  0.61345976  0.50917524  1  0  0.1406  0  3.758025  0  0  0.136472  0  3.99814  0  0  0.142821  0  4.018137  0  0  0.120997  0.132404  0  3.984657  0
C  C77  1  0.10428364  0.86343936  0.99082548  1  0  0.140515  0  3.758094  0  0  0.136484  0  3.998129  0  0  0.142828  0  4.018128  0  0  0.121009  0.132419  0  3.984637  0
C  C78  1  0.12738531  0.38654160  0.49082426  1  0  0.14049  0  3.75817  0  0  0.1365  0  3.998116  0  0  0.142845  0  4.018114  0  0  0.121005  0.132429  0  3.984637  0
C  C79  1  0.89571818  0.13656198  0.00917629  1  0  0.140462  0  3.758232  0  0  0.136491  0  3.998139  0  0  0.142837  0  4.018141  0  0  0.121005  0.132418  0  3.984668  0
C  C80  1  0.94348428  0.70124960  0.48108230  1  0  0.14178  0  3.747765  0  0  0.13892  0  3.986362  0  0  0.144236  0  4.005997  0  0  0.121347  0.134605  0  3.973684  0
C  C81  1  0.22016738  0.96240467  0.01891915  1  0  0.141802  0  3.747724  0  0  0.138908  0  3.986356  0  0  0.144223  0  4.005988  0  0  0.121313  0.134593  0  3.973676  0
C  C82  1  0.05651432  0.29875073  0.51891784  1  0  0.141812  0  3.747753  0  0  0.138901  0  3.986371  0  0  0.144217  0  4.006005  0  0  0.121336  0.134587  0  3.973692  0
C  C83  1  0.77983255  0.03759669  0.98108190  1  0  0.141821  0  3.747759  0  0  0.138887  0  3.98637  0  0  0.144205  0  4.006006  0  0  0.121326  0.134573  0  3.973696  0
I  I84  1  0.57653146  0.84340340  0.50513562  1  0  1.636006  0  4.124791  0  0  1.556918  0  4.739423  0  0  1.629006  0  4.694677  0  0  1.029641  1.507085  0  4.768523  0
I  I85  1  0.33826483  0.57139687  0.99486200  1  0  1.636036  0  4.124774  0  0  1.556932  0  4.739401  0  0  1.629032  0  4.694664  0  0  1.02965  1.507105  0  4.768505  0
I  I86  1  0.42346792  0.15659899  0.49486645  1  0  1.636081  0  4.124748  0  0  1.556982  0  4.739372  0  0  1.629067  0  4.694627  0  0  1.029678  1.50715  0  4.768471  0
I  I87  1  0.66173391  0.42860141  0.00513490  1  0  1.636087  0  4.124824  0  0  1.556974  0  4.739456  0  0  1.629061  0  4.694711  0  0  1.029666  1.507141  0  4.768557  0
N  N88  1  0.73383775  0.56029280  0.43268829  1  0  -0.367809  0  3.26979  0  0  -0.334586  0  3.547775  0  0  -0.357137  0  3.572712  0  0  -0.35072  -0.319774  0  3.530673  0
N  N89  1  0.12760454  0.80115084  0.06731255  1  0  -0.367826  0  3.269795  0  0  -0.334617  0  3.547781  0  0  -0.357169  0  3.572712  0  0  -0.35073  -0.319808  0  3.530683  0
N  N90  1  0.26616178  0.43970753  0.56730972  1  0  -0.367808  0  3.269774  0  0  -0.334622  0  3.54776  0  0  -0.357182  0  3.572697  0  0  -0.350769  -0.319815  0  3.530664  0
N  N91  1  0.87239822  0.19885050  0.93268958  1  0  -0.367732  0  3.269819  0  0  -0.334566  0  3.547842  0  0  -0.357132  0  3.572777  0  0  -0.350715  -0.319753  0  3.530744  0
N  N92  1  0.86653248  0.71816040  0.37414902  1  0  -0.363241  0  3.287115  0  0  -0.327342  0  3.558771  0  0  -0.347358  0  3.582396  0  0  -0.349497  -0.313647  0  3.542704  0
N  N93  1  0.34401188  0.99238595  0.12585282  1  0  -0.363315  0  3.287025  0  0  -0.327425  0  3.558716  0  0  -0.34744  0  3.582337  0  0  -0.349542  -0.313729  0  3.542649  0
N  N94  1  0.13346517  0.28183995  0.62585159  1  0  -0.363311  0  3.287057  0  0  -0.327438  0  3.558767  0  0  -0.347458  0  3.582389  0  0  -0.349543  -0.313743  0  3.5427  0
N  N95  1  0.65599048  0.00761437  0.87414876  1  0  -0.363319  0  3.287034  0  0  -0.327426  0  3.558738  0  0  -0.347455  0  3.582362  0  0  -0.34953  -0.313735  0  3.542671  0
O  O96  1  0.48015411  0.55339219  0.24021116  1  0  -0.748982  0  1.388953  0  0  -0.759083  0  1.650605  0  0  -0.791535  0  1.647238  0  0  -0.593503  -0.737401  0  1.653021  0
O  O97  1  0.31318146  0.73994088  0.25978490  1  0  -0.748929  0  1.388942  0  0  -0.759006  0  1.650571  0  0  -0.791468  0  1.647205  0  0  -0.593473  -0.73732  0  1.652993  0
O  O98  1  0.51984250  0.44660301  0.75978372  1  0  -0.748958  0  1.388985  0  0  -0.759034  0  1.650639  0  0  -0.791502  0  1.647267  0  0  -0.593491  -0.737349  0  1.653063  0
O  O99  1  0.68681808  0.26005946  0.74021643  1  0  -0.748967  0  1.388942  0  0  -0.759046  0  1.650639  0  0  -0.791531  0  1.647253  0  0  -0.593502  -0.737359  0  1.653059  0
O  O100  1  0.58188213  0.74167932  0.58546856  1  0  -0.670252  0  1.559011  0  0  -0.638419  0  1.802502  0  0  -0.667017  0  1.790269  0  0  -0.416083  -0.618672  0  1.809719  0
O  O101  1  0.15620784  0.49641448  0.91452960  1  0  -0.670289  0  1.559011  0  0  -0.638434  0  1.802487  0  0  -0.667045  0  1.790274  0  0  -0.41611  -0.618693  0  1.80971  0
O  O102  1  0.41811457  0.25832102  0.41453002  1  0  -0.670299  0  1.559  0  0  -0.638431  0  1.802462  0  0  -0.667015  0  1.790209  0  0  -0.416105  -0.618686  0  1.80968  0
O  O103  1  0.84379076  0.50358586  0.08547054  1  0  -0.670314  0  1.559045  0  0  -0.638453  0  1.802522  0  0  -0.667037  0  1.790263  0  0  -0.416112  -0.618709  0  1.809746  0
O  O104  1  0.60966852  0.64948969  0.13887398  1  0  -0.825504  0  1.504114  0  0  -0.828908  0  1.785902  0  0  -0.867943  0  1.782389  0  0  -0.589149  -0.803219  0  1.788415  0
O  O105  1  0.51061639  0.97079476  0.36112465  1  0  -0.825502  0  1.504121  0  0  -0.82889  0  1.785888  0  0  -0.867924  0  1.782361  0  0  -0.589152  -0.803202  0  1.788409  0
O  O106  1  0.39033156  0.35050961  0.86112632  1  0  -0.825533  0  1.50413  0  0  -0.828902  0  1.785885  0  0  -0.867953  0  1.782369  0  0  -0.589153  -0.803213  0  1.788404  0
O  O107  1  0.48938504  0.02920555  0.63887574  1  0  -0.825515  0  1.504094  0  0  -0.828878  0  1.785876  0  0  -0.867944  0  1.782351  0  0  -0.589137  -0.803186  0  1.78839  0
O  O108  1  0.69000198  0.79867739  0.43126811  1  0  -0.746509  0  1.755374  0  0  -0.729601  0  2.036782  0  0  -0.761778  0  2.027343  0  0  -0.483867  -0.706844  0  2.042354  0
O  O109  1  0.36740430  0.75873356  0.06872796  1  0  -0.746513  0  1.755466  0  0  -0.729589  0  2.036876  0  0  -0.761777  0  2.027448  0  0  -0.483844  -0.706823  0  2.042438  0
O  O110  1  0.30999716  0.20132192  0.56873350  1  0  -0.746556  0  1.755435  0  0  -0.729632  0  2.03686  0  0  -0.761822  0  2.02742  0  0  -0.483888  -0.706868  0  2.042427  0
O  O111  1  0.63259389  0.24126574  0.93126830  1  0  -0.746557  0  1.75548  0  0  -0.729605  0  2.036884  0  0  -0.761811  0  2.027447  0  0  -0.483866  -0.706834  0  2.04244  0
O  O112  1  0.72041414  0.00841850  0.66351556  1  0  -0.745257  0  1.758483  0  0  -0.7244  0  2.033867  0  0  -0.754114  0  2.023448  0  0  -0.473837  -0.703734  0  2.040332  0
O  O113  1  0.34490113  0.55689816  0.83648142  1  0  -0.745205  0  1.758478  0  0  -0.724378  0  2.033884  0  0  -0.754082  0  2.023474  0  0  -0.47381  -0.703715  0  2.040347  0
O  O114  1  0.27958768  0.99158284  0.33648621  1  0  -0.74522  0  1.758464  0  0  -0.724395  0  2.033859  0  0  -0.754092  0  2.023445  0  0  -0.473834  -0.703747  0  2.040364  0
O  O115  1  0.65509816  0.44309907  0.16351446  1  0  -0.745238  0  1.758491  0  0  -0.72439  0  2.033846  0  0  -0.754079  0  2.02343  0  0  -0.473819  -0.703747  0  2.040357  0
