# generated using pymatgen
data_CdH19C7N3
_symmetry_space_group_name_H-M   'P 1'
_cell_length_a   7.24109630
_cell_length_b   11.21828362
_cell_length_c   12.88350560
_cell_angle_alpha   78.68046976
_cell_angle_beta   84.50716078
_cell_angle_gamma   88.46209409
_symmetry_Int_Tables_number   1
_chemical_formula_structural   CdH19C7N3
_chemical_formula_sum   'Cd4 H76 C28 N12'
_cell_volume   1021.45677319
_cell_formula_units_Z   4
loop_
 _symmetry_equiv_pos_site_id
 _symmetry_equiv_pos_as_xyz
  1  'x, y, z'
loop_
 _atom_site_type_symbol
 _atom_site_label
 _atom_site_symmetry_multiplicity
 _atom_site_fract_x
 _atom_site_fract_y
 _atom_site_fract_z
 _atom_site_occupancy
 _atom_site_hle17_bader_spin_density
 _atom_site_hle17_ddec_charge
 _atom_site_hle17_ddec_spin_density
 _atom_site_hle17_ddec_sum_bond_order
 _atom_site_hle17_magmom
 _atom_site_hse06_10hf_bader_spin_density
 _atom_site_hse06_10hf_ddec_charge
 _atom_site_hse06_10hf_ddec_spin_density
 _atom_site_hse06_10hf_ddec_sum_bond_order
 _atom_site_hse06_10hf_magmom
 _atom_site_hse06_bader_spin_density
 _atom_site_hse06_ddec_charge
 _atom_site_hse06_ddec_spin_density
 _atom_site_hse06_ddec_sum_bond_order
 _atom_site_hse06_magmom
 _atom_site_pbe_bader_spin_density
 _atom_site_pbe_cm5_charge
 _atom_site_pbe_ddec_charge
 _atom_site_pbe_ddec_spin_density
 _atom_site_pbe_ddec_sum_bond_order
 _atom_site_pbe_magmom
Cd  Cd0  1  0.35485782  0.47876683  0.25583965  1  0  0.716051  0  1.879933  0  0  0.575749  0  2.299329  0  0  0.609399  0  2.276117  0  0  0.45831  0.552701  0  2.314813  0
Cd  Cd1  1  0.64514514  0.52123223  0.74415820  1  0  0.716095  0  1.879863  0  0  0.575779  0  2.299265  0  0  0.609432  0  2.276051  0  0  0.458317  0.552725  0  2.314752  0
Cd  Cd2  1  0.86654314  0.90745999  0.25660973  1  0  0.714459  0  1.879632  0  0  0.575369  0  2.295294  0  0  0.609008  0  2.272038  0  0  0.458857  0.552315  0  2.310837  0
Cd  Cd3  1  0.13345846  0.09253998  0.74339037  1  0  0.714424  0  1.879657  0  0  0.575328  0  2.295326  0  0  0.608968  0  2.272072  0  0  0.458845  0.552273  0  2.310876  0
H  H4  1  0.12129186  0.13503015  0.17246446  1  0  0.242078  0  0.970837  0  0  0.21928  0  1.059005  0  0  0.226331  0  1.053312  0  0  0.273818  0.214254  0  1.063037  0
H  H5  1  0.87870834  0.86497073  0.82753479  1  0  0.242089  0  0.970837  0  0  0.21929  0  1.058996  0  0  0.22634  0  1.053306  0  0  0.273808  0.214264  0  1.063028  0
H  H6  1  0.95628343  0.13988861  0.09169923  1  0  0.261214  0  0.938175  0  0  0.252857  0  0.998026  0  0  0.257733  0  0.994888  0  0  0.285934  0.249388  0  1.000292  0
H  H7  1  0.04371677  0.86011227  0.90830080  1  0  0.261231  0  0.938178  0  0  0.252873  0  0.99802  0  0  0.257748  0  0.994884  0  0  0.285935  0.249404  0  1.000289  0
H  H8  1  0.45207133  0.31795868  0.09442921  1  0  0.260278  0  0.934949  0  0  0.252118  0  0.994583  0  0  0.257011  0  0.991334  0  0  0.286686  0.248633  0  0.99693  0
H  H9  1  0.54792750  0.68204130  0.90557104  1  0  0.260244  0  0.934973  0  0  0.252093  0  0.99459  0  0  0.256986  0  0.991342  0  0  0.286703  0.248608  0  0.996938  0
H  H10  1  0.61923184  0.28353916  0.17419791  1  0  0.240848  0  0.972974  0  0  0.216695  0  1.06263  0  0  0.223864  0  1.056994  0  0  0.272083  0.211578  0  1.066628  0
H  H11  1  0.38076838  0.71646172  0.82580288  1  0  0.240859  0  0.972928  0  0  0.21671  0  1.062583  0  0  0.223878  0  1.056947  0  0  0.272088  0.211594  0  1.066582  0
H  H12  1  0.49153136  0.37946751  0.44836937  1  0  0.116703  0  1.055606  0  0  0.137919  0  1.11213  0  0  0.139972  0  1.114276  0  0  0.054116  0.136433  0  1.110681  0
H  H13  1  0.50847717  0.62052881  0.55162862  1  0  0.116645  0  1.055521  0  0  0.137865  0  1.112058  0  0  0.139918  0  1.114205  0  0  0.054095  0.13638  0  1.110609  0
H  H14  1  0.25030752  0.35025081  0.45459235  1  0  0.115898  0  1.068803  0  0  0.135824  0  1.127641  0  0  0.138099  0  1.129823  0  0  0.05354  0.134171  0  1.126197  0
H  H15  1  0.74969960  0.64974642  0.54540479  1  0  0.115917  0  1.068735  0  0  0.135807  0  1.127623  0  0  0.13808  0  1.129807  0  0  0.053544  0.134155  0  1.126178  0
H  H16  1  0.32827053  0.49543808  0.46673650  1  0  0.126492  0  1.036293  0  0  0.149162  0  1.089333  0  0  0.150463  0  1.093317  0  0  0.056986  0.148199  0  1.086592  0
H  H17  1  0.67173660  0.50455915  0.53326141  1  0  0.126543  0  1.036243  0  0  0.149213  0  1.089278  0  0  0.150514  0  1.093261  0  0  0.057002  0.14825  0  1.086537  0
H  H18  1  0.30465052  0.68005932  0.09686667  1  0  0.118607  0  1.040909  0  0  0.137382  0  1.101978  0  0  0.139118  0  1.104738  0  0  0.051951  0.136114  0  1.100105  0
H  H19  1  0.69534412  0.31994157  0.90313290  1  0  0.118649  0  1.040912  0  0  0.137425  0  1.101976  0  0  0.139161  0  1.104735  0  0  0.051983  0.136155  0  1.100103  0
H  H20  1  0.35294546  0.55093690  0.03631300  1  0  0.123949  0  1.031491  0  0  0.145369  0  1.086092  0  0  0.147085  0  1.089093  0  0  0.055522  0.144109  0  1.084069  0
H  H21  1  0.64705054  0.44906490  0.96368478  1  0  0.123962  0  1.031456  0  0  0.145382  0  1.086068  0  0  0.147098  0  1.089067  0  0  0.055542  0.144121  0  1.084043  0
H  H22  1  0.53648815  0.62523568  0.08063957  1  0  0.106268  0  1.05346  0  0  0.12605  0  1.113843  0  0  0.128199  0  1.115281  0  0  0.050067  0.124477  0  1.112936  0
H  H23  1  0.46350788  0.37476612  0.91935977  1  0  0.106249  0  1.053523  0  0  0.126029  0  1.113905  0  0  0.128178  0  1.115343  0  0  0.050056  0.124456  0  1.112999  0
H  H24  1  0.79202856  0.97371235  0.45067794  1  0  0.116636  0  1.046388  0  0  0.135492  0  1.10812  0  0  0.137563  0  1.110443  0  0  0.054507  0.133977  0  1.106577  0
H  H25  1  0.20797024  0.02628945  0.54932123  1  0  0.116646  0  1.046372  0  0  0.135496  0  1.108108  0  0  0.137568  0  1.110429  0  0  0.054505  0.133981  0  1.106565  0
H  H26  1  0.01244792  0.90151256  0.44979902  1  0  0.12157  0  1.050318  0  0  0.142576  0  1.106195  0  0  0.144429  0  1.109086  0  0  0.054863  0.141232  0  1.104215  0
H  H27  1  0.98754950  0.09848924  0.55020101  1  0  0.121564  0  1.050301  0  0  0.142565  0  1.106184  0  0  0.144418  0  1.109075  0  0  0.054848  0.141222  0  1.104203  0
H  H28  1  0.80783258  0.81273984  0.46844917  1  0  0.119875  0  1.062798  0  0  0.140636  0  1.118933  0  0  0.142616  0  1.121746  0  0  0.053929  0.139182  0  1.117054  0
H  H29  1  0.19216622  0.18726195  0.53155000  1  0  0.119888  0  1.062783  0  0  0.140648  0  1.118922  0  0  0.142627  0  1.121736  0  0  0.053924  0.139194  0  1.117044  0
H  H30  1  0.04652155  0.82940575  0.08254328  1  0  0.107884  0  1.054657  0  0  0.127427  0  1.115311  0  0  0.129527  0  1.116892  0  0  0.051031  0.125888  0  1.114308  0
H  H31  1  0.95348004  0.17059422  0.91745682  1  0  0.107863  0  1.054674  0  0  0.1274  0  1.115339  0  0  0.129499  0  1.11692  0  0  0.051025  0.12586  0  1.114334  0
H  H32  1  0.86571014  0.93268496  0.03806012  1  0  0.123092  0  1.032699  0  0  0.145196  0  1.086053  0  0  0.146885  0  1.089012  0  0  0.056528  0.143955  0  1.084062  0
H  H33  1  0.13429008  0.06731411  0.96194021  1  0  0.123086  0  1.032692  0  0  0.145185  0  1.086053  0  0  0.146874  0  1.089013  0  0  0.056516  0.143944  0  1.084061  0
H  H34  1  0.81280837  0.77868273  0.09887593  1  0  0.118393  0  1.034669  0  0  0.137385  0  1.095852  0  0  0.139156  0  1.098491  0  0  0.05279  0.136089  0  1.094065  0
H  H35  1  0.18719325  0.22131633  0.90112509  1  0  0.118386  0  1.034667  0  0  0.137374  0  1.095857  0  0  0.139146  0  1.098494  0  0  0.052785  0.136079  0  1.09407  0
H  H36  1  0.99117568  0.65558251  0.25313935  1  0  0.079718  0  0.978998  0  0  0.100972  0  1.04697  0  0  0.101419  0  1.047212  0  0  0.091908  0.100555  0  1.046904  0
H  H37  1  0.00882456  0.34441747  0.74686238  1  0  0.079707  0  0.979013  0  0  0.100951  0  1.047002  0  0  0.101397  0  1.047246  0  0  0.091899  0.100534  0  1.046938  0
H  H38  1  0.97159608  0.57405782  0.38750343  1  0  0.097387  0  0.937031  0  0  0.11911  0  0.996692  0  0  0.119914  0  0.997028  0  0  0.101364  0.118453  0  0.996554  0
H  H39  1  0.02840417  0.42594033  0.61249861  1  0  0.097394  0  0.937069  0  0  0.119131  0  0.996722  0  0  0.119936  0  0.997055  0  0  0.101353  0.118473  0  0.996587  0
H  H40  1  0.77314061  0.59298643  0.31371451  1  0  0.074947  0  0.948136  0  0  0.094826  0  1.019395  0  0  0.095649  0  1.019354  0  0  0.089486  0.094133  0  1.019543  0
H  H41  1  0.22685962  0.40701263  0.68628659  1  0  0.07496  0  0.948204  0  0  0.094871  0  1.019426  0  0  0.095696  0  1.019381  0  0  0.089512  0.094175  0  1.019578  0
H  H42  1  0.73973876  0.36893433  0.34885357  1  0  0.048011  0  0.951685  0  0  0.06497  0  1.020309  0  0  0.065572  0  1.019913  0  0  0.094376  0.064455  0  1.020678  0
H  H43  1  0.26026007  0.63106655  0.65114731  1  0  0.047994  0  0.951653  0  0  0.064945  0  1.020285  0  0  0.06555  0  1.019885  0  0  0.09436  0.06443  0  1.020658  0
H  H44  1  0.93563765  0.35761650  0.42426928  1  0  0.074035  0  0.919306  0  0  0.096537  0  0.971018  0  0  0.096586  0  0.971891  0  0  0.109734  0.096403  0  0.970528  0
H  H45  1  0.06436118  0.64238166  0.57573051  1  0  0.074019  0  0.919277  0  0  0.096521  0  0.970996  0  0  0.096568  0  0.971873  0  0  0.109736  0.096386  0  0.970509  0
H  H46  1  0.10453444  0.22976015  0.31323223  1  0  0.062056  0  0.941097  0  0  0.075557  0  1.012305  0  0  0.076276  0  1.012093  0  0  0.101505  0.074943  0  1.012604  0
H  H47  1  0.89546161  0.77023801  0.68676772  1  0  0.062035  0  0.941053  0  0  0.075549  0  1.012255  0  0  0.07627  0  1.012034  0  0  0.101487  0.074927  0  1.012564  0
H  H48  1  0.88419651  0.16469608  0.36100514  1  0  0.07364  0  0.939587  0  0  0.091711  0  0.999862  0  0  0.092152  0  1.000054  0  0  0.106877  0.091311  0  0.999861  0
H  H49  1  0.11580091  0.83530299  0.63899380  1  0  0.07364  0  0.939556  0  0  0.091715  0  0.999835  0  0  0.092156  0  1.000024  0  0  0.10689  0.091317  0  0.999833  0
H  H50  1  0.94396001  0.35356220  0.04751336  1  0  0.066696  0  0.942754  0  0  0.083457  0  1.00644  0  0  0.083964  0  1.006569  0  0  0.102451  0.082983  0  1.006504  0
H  H51  1  0.05603879  0.64643960  0.95248582  1  0  0.066754  0  0.942706  0  0  0.083485  0  1.006418  0  0  0.083993  0  1.006545  0  0  0.102471  0.083012  0  1.006482  0
H  H52  1  0.14199968  0.34746327  0.12132907  1  0  0.055687  0  0.950418  0  0  0.070386  0  1.02276  0  0  0.071532  0  1.021419  0  0  0.096432  0.069409  0  1.023946  0
H  H53  1  0.85799775  0.65253762  0.87867111  1  0  0.055653  0  0.950446  0  0  0.070354  0  1.022783  0  0  0.071501  0  1.021443  0  0  0.096421  0.069377  0  1.023969  0
H  H54  1  0.99023483  0.54768755  0.11073933  1  0  0.069234  0  0.939192  0  0  0.089904  0  0.995399  0  0  0.089574  0  0.997102  0  0  0.104606  0.090026  0  0.994351  0
H  H55  1  0.00976401  0.45231243  0.88926248  1  0  0.069246  0  0.939179  0  0  0.089908  0  0.995398  0  0  0.08959  0  0.997083  0  0  0.104619  0.090029  0  0.99435  0
H  H56  1  0.77197593  0.48026527  0.16224890  1  0  0.04279  0  0.943615  0  0  0.060504  0  1.011948  0  0  0.061225  0  1.010974  0  0  0.091257  0.05984  0  1.012825  0
H  H57  1  0.22802429  0.51973561  0.83775190  1  0  0.042758  0  0.943618  0  0  0.060469  0  1.011959  0  0  0.061188  0  1.010986  0  0  0.091244  0.059804  0  1.012841  0
H  H58  1  0.28736031  0.76832552  0.31368129  1  0  0.067628  0  0.949739  0  0  0.08701  0  1.021492  0  0  0.088139  0  1.020691  0  0  0.086406  0.08613  0  1.022133  0
H  H59  1  0.71263988  0.23167445  0.68631734  1  0  0.067633  0  0.94975  0  0  0.087019  0  1.021486  0  0  0.088148  0  1.020684  0  0  0.086399  0.086137  0  1.022129  0
H  H60  1  0.49020362  0.74687303  0.38502012  1  0  0.097204  0  0.948561  0  0  0.118693  0  1.007728  0  0  0.119676  0  1.008083  0  0  0.10042  0.117917  0  1.007566  0
H  H61  1  0.50979379  0.25312695  0.61497789  1  0  0.097201  0  0.948496  0  0  0.11867  0  1.00768  0  0  0.119652  0  1.008036  0  0  0.100417  0.117894  0  1.007519  0
H  H62  1  0.50400331  0.72856461  0.25014422  1  0  0.082765  0  0.971355  0  0  0.103696  0  1.038933  0  0  0.104141  0  1.039315  0  0  0.09377  0.103298  0  1.038742  0
H  H63  1  0.49599550  0.27143628  0.74985511  1  0  0.08278  0  0.971368  0  0  0.103709  0  1.038932  0  0  0.104155  0  1.039314  0  0  0.093788  0.103311  0  1.038743  0
H  H64  1  0.28216041  0.94912169  0.16235325  1  0  0.043615  0  0.940163  0  0  0.061453  0  1.008596  0  0  0.06213  0  1.007766  0  0  0.091894  0.06082  0  1.009378  0
H  H65  1  0.71783701  0.05087920  0.83764615  1  0  0.043624  0  0.940144  0  0  0.061475  0  1.008588  0  0  0.062152  0  1.00776  0  0  0.091905  0.060841  0  1.009367  0
H  H66  1  0.50260861  0.90146347  0.11028273  1  0  0.06926  0  0.939016  0  0  0.089546  0  0.996172  0  0  0.089301  0  0.997743  0  0  0.105059  0.089646  0  0.99517  0
H  H67  1  0.49739297  0.09853741  0.88971643  1  0  0.069247  0  0.93896  0  0  0.089536  0  0.99614  0  0  0.089291  0  0.997713  0  0  0.105043  0.089634  0  0.995138  0
H  H68  1  0.64722611  0.09338003  0.12205750  1  0  0.055806  0  0.95135  0  0  0.071068  0  1.022474  0  0  0.072251  0  1.021149  0  0  0.096487  0.070082  0  1.02363  0
H  H69  1  0.35277552  0.90661994  0.87794492  1  0  0.055796  0  0.951391  0  0  0.071102  0  1.022465  0  0  0.072284  0  1.021133  0  0  0.096492  0.070117  0  1.023622  0
H  H70  1  0.44824343  0.12517685  0.04890725  1  0  0.066875  0  0.940052  0  0  0.083733  0  1.003033  0  0  0.084294  0  1.003041  0  0  0.103104  0.08324  0  1.003163  0
H  H71  1  0.55176234  0.87482402  0.95109400  1  0  0.066893  0  0.939927  0  0  0.083685  0  1.003009  0  0  0.084238  0  1.003017  0  0  0.1031  0.083193  0  1.00314  0
H  H72  1  0.60838107  0.12406434  0.31445217  1  0  0.055254  0  0.946969  0  0  0.069409  0  1.018115  0  0  0.070154  0  1.017571  0  0  0.098931  0.068747  0  1.018703  0
H  H73  1  0.39161778  0.87593563  0.68554964  1  0  0.055234  0  0.946963  0  0  0.069397  0  1.018114  0  0  0.070139  0  1.01757  0  0  0.098925  0.068736  0  1.018703  0
H  H74  1  0.38455035  0.17078230  0.36344388  1  0  0.080064  0  0.932018  0  0  0.09765  0  0.99318  0  0  0.098089  0  0.993602  0  0  0.108949  0.097293  0  0.992949  0
H  H75  1  0.61544988  0.82921585  0.63655661  1  0  0.080055  0  0.932008  0  0  0.097666  0  0.993163  0  0  0.098103  0  0.993585  0  0  0.108948  0.097309  0  0.992932  0
H  H76  1  0.44689247  0.94813507  0.42452285  1  0  0.072271  0  0.919924  0  0  0.094014  0  0.973152  0  0  0.094032  0  0.974105  0  0  0.108198  0.093944  0  0.972536  0
H  H77  1  0.55310636  0.05186399  0.57547756  1  0  0.072288  0  0.919948  0  0  0.094029  0  0.973173  0  0  0.094046  0  0.974128  0  0  0.108189  0.09396  0  0.972557  0
H  H78  1  0.24888975  0.97597115  0.35080918  1  0  0.050931  0  0.951125  0  0  0.067632  0  1.019831  0  0  0.068086  0  1.019908  0  0  0.095706  0.067205  0  1.019925  0
H  H79  1  0.75110905  0.02402883  0.64918953  1  0  0.050949  0  0.951131  0  0  0.067652  0  1.019833  0  0  0.068105  0  1.019909  0  0  0.095718  0.067224  0  1.019927  0
C  C80  1  0.35765392  0.41910988  0.42565463  1  0  -0.758281  0  3.624485  0  0  -0.778362  0  3.867876  0  0  -0.797728  0  3.876541  0  0  -0.430861  -0.764909  0  3.861649  0
C  C81  1  0.64235461  0.58088644  0.57434336  1  0  -0.758293  0  3.624268  0  0  -0.778344  0  3.8677  0  0  -0.797709  0  3.876369  0  0  -0.430858  -0.764891  0  3.861475  0
C  C82  1  0.39043305  0.59727719  0.09893535  1  0  -0.764902  0  3.621869  0  0  -0.778807  0  3.864011  0  0  -0.797231  0  3.872201  0  0  -0.430653  -0.765982  0  3.858139  0
C  C83  1  0.60956157  0.40272462  0.90106329  1  0  -0.764961  0  3.621885  0  0  -0.778868  0  3.864027  0  0  -0.797292  0  3.872212  0  0  -0.43071  -0.766043  0  3.858157  0
C  C84  1  0.87199791  0.89805605  0.42547741  1  0  -0.749801  0  3.609882  0  0  -0.76791  0  3.852147  0  0  -0.787228  0  3.860805  0  0  -0.429081  -0.754484  0  3.845944  0
C  C85  1  0.12800090  0.10194483  0.57452192  1  0  -0.749801  0  3.609844  0  0  -0.767902  0  3.852122  0  0  -0.787223  0  3.860777  0  0  -0.429051  -0.754478  0  3.845924  0
C  C86  1  0.90145492  0.85630820  0.10070973  1  0  -0.763906  0  3.624624  0  0  -0.778602  0  3.866129  0  0  -0.796935  0  3.874249  0  0  -0.430408  -0.765851  0  3.86032  0
C  C87  1  0.09854669  0.14369086  0.89929052  1  0  -0.763851  0  3.624604  0  0  -0.778531  0  3.866118  0  0  -0.796864  0  3.874239  0  0  -0.43038  -0.765781  0  3.860308  0
C  C88  1  0.92525564  0.57789352  0.30823244  1  0  -0.185936  0  3.717384  0  0  -0.281323  0  3.968237  0  0  -0.278866  0  3.978597  0  0  -0.150291  -0.282715  0  3.961014  0
C  C89  1  0.07474460  0.42210554  0.69176944  1  0  -0.185937  0  3.717553  0  0  -0.281375  0  3.968399  0  0  -0.278921  0  3.978762  0  0  -0.150302  -0.282752  0  3.961144  0
C  C90  1  0.89292261  0.36006825  0.34431069  1  0  -0.021598  0  3.672664  0  0  -0.078033  0  3.926253  0  0  -0.074998  0  3.938855  0  0  -0.067313  -0.079949  0  3.917511  0
C  C91  1  0.10707622  0.63993082  0.65568972  1  0  -0.0215  0  3.672525  0  0  -0.077936  0  3.926136  0  0  -0.074899  0  3.938733  0  0  -0.067273  -0.079852  0  3.917396  0
C  C92  1  0.95333803  0.24308863  0.30851902  1  0  -0.041468  0  3.666742  0  0  -0.099711  0  3.93177  0  0  -0.097089  0  3.943267  0  0  -0.068739  -0.101347  0  3.923772  0
C  C93  1  0.04666079  0.75691044  0.69148061  1  0  -0.041435  0  3.666656  0  0  -0.099712  0  3.931719  0  0  -0.097083  0  3.943205  0  0  -0.068764  -0.101341  0  3.92372  0
C  C94  1  0.98861501  0.35305360  0.12681858  1  0  -0.054837  0  3.678232  0  0  -0.11382  0  3.943942  0  0  -0.110839  0  3.954547  0  0  -0.073073  -0.115699  0  3.936594  0
C  C95  1  0.01138381  0.64694728  0.87318153  1  0  -0.054822  0  3.678254  0  0  -0.11378  0  3.943942  0  0  -0.110802  0  3.95455  0  0  -0.073061  -0.115663  0  3.936599  0
C  C96  1  0.92452300  0.46882337  0.16433333  1  0  -0.0205  0  3.676927  0  0  -0.073612  0  3.926854  0  0  -0.070731  0  3.940157  0  0  -0.069061  -0.075387  0  3.917581  0
C  C97  1  0.07547583  0.53117660  0.83566771  1  0  -0.020479  0  3.676952  0  0  -0.073602  0  3.92686  0  0  -0.070724  0  3.940156  0  0  -0.069075  -0.075378  0  3.917591  0
C  C98  1  0.43946699  0.78189120  0.30704789  1  0  -0.182424  0  3.716633  0  0  -0.275746  0  3.965906  0  0  -0.273461  0  3.976024  0  0  -0.148678  -0.277049  0  3.95886  0
C  C99  1  0.56053320  0.21810968  0.69295058  1  0  -0.182435  0  3.716603  0  0  -0.275719  0  3.965841  0  0  -0.273431  0  3.975956  0  0  -0.148668  -0.277019  0  3.958789  0
C  C100  1  0.43435168  0.95685383  0.16445147  1  0  -0.018628  0  3.674597  0  0  -0.072734  0  3.926816  0  0  -0.070008  0  3.940302  0  0  -0.068699  -0.074426  0  3.917385  0
C  C101  1  0.56564853  0.04314615  0.83554871  1  0  -0.018584  0  3.674441  0  0  -0.072748  0  3.926759  0  0  -0.070031  0  3.940255  0  0  -0.068676  -0.074431  0  3.917317  0
C  C102  1  0.49392724  0.08837761  0.12799001  1  0  -0.056785  0  3.681183  0  0  -0.11435  0  3.945951  0  0  -0.111391  0  3.956602  0  0  -0.073858  -0.116203  0  3.93855  0
C  C103  1  0.50607438  0.91162145  0.87201102  1  0  -0.05679  0  3.681014  0  0  -0.11434  0  3.94587  0  0  -0.111356  0  3.95649  0  0  -0.073876  -0.116196  0  3.938471  0
C  C104  1  0.45725841  0.11574262  0.31025230  1  0  -0.042828  0  3.662788  0  0  -0.101537  0  3.928793  0  0  -0.098664  0  3.93969  0  0  -0.069449  -0.103397  0  3.921365  0
C  C105  1  0.54274181  0.88425645  0.68974803  1  0  -0.042784  0  3.662692  0  0  -0.101522  0  3.928744  0  0  -0.098645  0  3.939633  0  0  -0.069439  -0.103383  0  3.921317  0
C  C106  1  0.40183238  0.98353952  0.34515507  1  0  -0.02312  0  3.676834  0  0  -0.079398  0  3.932701  0  0  -0.076536  0  3.945452  0  0  -0.067838  -0.081213  0  3.923865  0
C  C107  1  0.59816644  0.01646046  0.65484441  1  0  -0.02318  0  3.676895  0  0  -0.079442  0  3.93276  0  0  -0.076582  0  3.945511  0  0  -0.067836  -0.081259  0  3.923925  0
N  N108  1  0.97822243  0.46557400  0.27151908  1  0  -0.194981  0  3.283074  0  0  -0.094118  0  3.521617  0  0  -0.11064  0  3.543675  0  0  -0.349274  -0.082546  0  3.505955  0
N  N109  1  0.02177641  0.53442507  0.72848211  1  0  -0.195076  0  3.283243  0  0  -0.094157  0  3.521713  0  0  -0.11069  0  3.543791  0  0  -0.349265  -0.082575  0  3.506024  0
N  N110  1  0.90666382  0.24609144  0.19974359  1  0  -0.079517  0  3.180538  0  0  -0.008839  0  3.432016  0  0  -0.019223  0  3.449593  0  0  -0.257889  -0.001476  0  3.41956  0
N  N111  1  0.09333498  0.75390945  0.80025574  1  0  -0.079539  0  3.180615  0  0  -0.008827  0  3.432052  0  0  -0.019212  0  3.449632  0  0  -0.257872  -0.001462  0  3.419599  0
N  N112  1  0.97810488  0.13510099  0.16987520  1  0  -0.552046  0  3.044221  0  0  -0.522927  0  3.30104  0  0  -0.535399  0  3.29852  0  0  -0.534063  -0.514041  0  3.302615  0
N  N113  1  0.02189392  0.86489989  0.83012413  1  0  -0.552105  0  3.044281  0  0  -0.523007  0  3.301135  0  0  -0.535479  0  3.298616  0  0  -0.534067  -0.51412  0  3.302715  0
N  N114  1  0.48901668  0.90973629  0.27137942  1  0  -0.196649  0  3.282035  0  0  -0.095718  0  3.520401  0  0  -0.112091  0  3.542418  0  0  -0.349918  -0.084244  0  3.504797  0
N  N115  1  0.51098352  0.09026368  0.72861998  1  0  -0.19667  0  3.282063  0  0  -0.095728  0  3.520451  0  0  -0.112101  0  3.542473  0  0  -0.349933  -0.084257  0  3.504854  0
N  N116  1  0.40920070  0.16340537  0.20172637  1  0  -0.0791  0  3.179443  0  0  -0.010197  0  3.433517  0  0  -0.020459  0  3.450938  0  0  -0.258301  -0.002979  0  3.421304  0
N  N117  1  0.59079951  0.83659461  0.79827381  1  0  -0.079087  0  3.179374  0  0  -0.010206  0  3.43349  0  0  -0.020471  0  3.450906  0  0  -0.258292  -0.002984  0  3.421274  0
N  N118  1  0.47563921  0.28666546  0.17235955  1  0  -0.548869  0  3.040044  0  0  -0.518569  0  3.298782  0  0  -0.531091  0  3.296273  0  0  -0.533001  -0.509626  0  3.300391  0
N  N119  1  0.52436241  0.71333450  0.82764210  1  0  -0.548865  0  3.039979  0  0  -0.518559  0  3.298734  0  0  -0.531083  0  3.296227  0  0  -0.533034  -0.509618  0  3.300344  0
