# generated using pymatgen
data_Zr3H21C45N5O28
_symmetry_space_group_name_H-M   'P 1'
_cell_length_a   19.08067361
_cell_length_b   19.05254276
_cell_length_c   19.06557029
_cell_angle_alpha   59.50286853
_cell_angle_beta   59.92885092
_cell_angle_gamma   59.99148895
_symmetry_Int_Tables_number   1
_chemical_formula_structural   Zr3H21C45N5O28
_chemical_formula_sum   'Zr6 H42 C90 N10 O56'
_cell_volume   4879.36304363
_cell_formula_units_Z   2
loop_
 _symmetry_equiv_pos_site_id
 _symmetry_equiv_pos_as_xyz
  1  'x, y, z'
loop_
 _atom_site_type_symbol
 _atom_site_label
 _atom_site_symmetry_multiplicity
 _atom_site_fract_x
 _atom_site_fract_y
 _atom_site_fract_z
 _atom_site_occupancy
 _atom_site_pbe_bader_charge
 _atom_site_pbe_bader_spin_density
 _atom_site_pbe_cm5_charge
 _atom_site_pbe_ddec_charge
 _atom_site_pbe_ddec_spin_density
 _atom_site_pbe_ddec_sum_bond_order
 _atom_site_pbe_magmom
Zr  Zr0  1  0.90287198  0.41078581  0.59640353  1  2.637182  0  1.633868  2.377521  0  2.749737  0
Zr  Zr1  1  0.08995480  0.59603606  0.41115461  1  2.639493  0  1.633971  2.377637  0  2.748806  0
Zr  Zr2  1  0.08810153  0.40896635  0.59833430  1  2.636632  0  1.630546  2.376442  0  2.745212  0
Zr  Zr3  1  0.90464814  0.59798146  0.40931858  1  2.633825  0  1.630128  2.375924  0  2.746507  0
Zr  Zr4  1  0.90393873  0.59586914  0.59625836  1  2.637368  0  1.635177  2.378218  0  2.754912  0
Zr  Zr5  1  0.08888405  0.41091929  0.41130130  1  2.636195  0  1.633406  2.377576  0  2.748152  0
H  H6  1  0.92178533  0.42838674  0.72421209  1  0.606622  0  0.334751  0.430548  0  0.847681  0
H  H7  1  0.92562435  0.72381546  0.42880577  1  0.633421  0  0.334552  0.430569  0  0.846989  0
H  H8  1  0.21543788  0.42934944  0.43197094  1  0.604892  0  0.334276  0.429655  0  0.847795  0
H  H9  1  0.92323074  0.43159009  0.42974652  1  0.611073  0  0.33409  0.429169  0  0.848045  0
H  H10  1  0.45767129  0.60718911  0.05404656  1  0.115789  0  0.119544  0.131587  0  0.981913  0
H  H11  1  0.54618290  0.38842121  0.96419632  1  0.076936  0  0.119713  0.131369  0  0.982047  0
H  H12  1  0.64739891  0.64176141  0.78925245  1  0.09538  0  0.117969  0.127498  0  0.985787  0
H  H13  1  0.50945790  0.65168119  0.91057430  1  0.080424  0  0.112191  0.115473  0  0.985283  0
H  H14  1  0.28371089  0.42741382  0.15595298  1  0.13421  0  0.115732  0.128448  0  0.999407  0
H  H15  1  0.40419637  0.43499397  0.01738381  1  0.090923  0  0.112145  0.115274  0  0.985408  0
H  H16  1  0.10128208  0.96374738  0.38881524  1  0.108936  0  0.11978  0.131467  0  0.981199  0
H  H17  1  0.88098237  0.05373165  0.60743430  1  0.103755  0  0.119448  0.131219  0  0.982136  0
H  H18  1  0.13295596  0.15543219  0.42810000  1  0.12415  0  0.11569  0.128614  0  0.999475  0
H  H19  1  0.14346216  0.01690698  0.43553858  1  0.083849  0  0.112023  0.115463  0  0.985801  0
H  H20  1  0.92155562  0.78892166  0.64207104  1  0.129368  0  0.118034  0.127734  0  0.985662  0
H  H21  1  0.92822234  0.91026913  0.65198490  1  0.072163  0  0.112279  0.115558  0  0.98514  0
H  H22  1  0.45156204  0.05050947  0.39353275  1  0.101066  0  0.119627  0.131164  0  0.982383  0
H  H23  1  0.55423265  0.96876045  0.60065971  1  0.095876  0  0.121143  0.134182  0  0.978634  0
H  H24  1  0.64136473  0.78580989  0.43701971  1  0.12442  0  0.116861  0.127619  0  0.986464  0
H  H25  1  0.50258228  0.90590101  0.44664207  1  0.082834  0  0.112331  0.115452  0  0.986443  0
H  H26  1  0.29012587  0.15780143  0.63955949  1  0.153501  0  0.114763  0.122762  0  1.001879  0
H  H27  1  0.41059550  0.01986270  0.65084047  1  0.068925  0  0.110388  0.116929  0  0.994867  0
H  H28  1  0.87620808  0.60009156  0.96930182  1  0.115808  0  0.121341  0.134705  0  0.978716  0
H  H29  1  0.10410194  0.39294526  0.05110699  1  0.063064  0  0.119526  0.130813  0  0.982993  0
H  H30  1  0.91261221  0.63925207  0.15803933  1  0.118453  0  0.114756  0.122751  0  1.001956  0
H  H31  1  0.91866994  0.65041732  0.02021009  1  0.107494  0  0.11027  0.116722  0  0.995081  0
H  H32  1  0.13579219  0.43667543  0.78620725  1  0.143377  0  0.116803  0.12785  0  0.9861  0
H  H33  1  0.14475122  0.44612564  0.90647789  1  0.078426  0  0.112346  0.115713  0  0.98665  0
H  H34  1  0.12465131  0.81279105  0.16766831  1  0.129644  0  0.115347  0.129871  0  1.00026  0
H  H35  1  0.20005912  0.91520553  0.04263656  1  0.092997  0  0.121645  0.134215  0  0.968339  0
H  H36  1  0.90351577  0.80533498  0.16809880  1  0.134952  0  0.111973  0.123786  0  1.009605  0
H  H37  1  0.89484463  0.16734515  0.81328679  1  0.144762  0  0.115406  0.130225  0  0.999233  0
H  H38  1  0.84188550  0.04245042  0.91585385  1  0.134028  0  0.121646  0.134321  0  0.967831  0
H  H39  1  0.12325966  0.16754728  0.80553529  1  0.096513  0  0.111975  0.123778  0  1.009877  0
H  H40  1  0.46154912  0.38292664  0.60346548  1  0.074015  0  0.119386  0.131161  0  0.9819  0
H  H41  1  0.55205489  0.60351883  0.38309978  1  0.113932  0  0.119538  0.131566  0  0.981688  0
H  H42  1  0.64824996  0.42778879  0.63942353  1  0.135217  0  0.117039  0.12874  0  0.992939  0
H  H43  1  0.51184397  0.43232473  0.64849959  1  0.077912  0  0.112228  0.11549  0  0.984639  0
H  H44  1  0.28444107  0.63922167  0.42807441  1  0.136653  0  0.117035  0.128755  0  0.99292  0
H  H45  1  0.40719522  0.64841829  0.43251954  1  0.041248  0  0.112184  0.115379  0  0.984895  0
H  H46  1  0.23459900  0.04009139  0.79000540  1  0.608521  0  0.326266  0.354237  0  0.906352  0
H  H47  1  0.93520123  0.78990666  0.04022684  1  0.623049  0  0.326419  0.354514  0  0.906224  0
C  C48  1  0.75594029  0.50806665  0.73332998  1  1.579927  0  0.239333  0.648762  0  4.10688  0
C  C49  1  0.00266139  0.73296732  0.50844743  1  1.59447  0  0.238841  0.648563  0  4.106376  0
C  C50  1  0.22779162  0.50789463  0.26484509  1  1.56257  0  0.239004  0.647213  0  4.110322  0
C  C51  1  0.99941726  0.26441279  0.50842760  1  1.58951  0  0.239088  0.646777  0  4.10998  0
C  C52  1  0.00068957  0.26051506  0.73400673  1  1.552147  0  0.239625  0.644411  0  4.088876  0
C  C53  1  0.75744434  0.50970296  0.50555183  1  1.586192  0  0.238676  0.645831  0  4.108383  0
C  C54  1  0.00480591  0.73365642  0.26091790  1  1.545415  0  0.239395  0.644874  0  4.088157  0
C  C55  1  0.22735452  0.50525458  0.50994166  1  1.58982  0  0.238292  0.645272  0  4.107498  0
C  C56  1  0.99937763  0.50645081  0.73600757  1  1.593583  0  0.237117  0.644924  0  4.118007  0
C  C57  1  0.22609339  0.26256847  0.50986081  1  1.586585  0  0.238105  0.64633  0  4.110948  0
C  C58  1  0.00148369  0.50953161  0.26289002  1  1.569307  0  0.237609  0.645963  0  4.109898  0
C  C59  1  0.75820139  0.73568204  0.50678831  1  1.578174  0  0.237869  0.645644  0  4.116537  0
C  C60  1  0.30137584  0.51319432  0.18249556  1  -0.009218  0  -0.006913  -0.08685  0  3.93243  0
C  C61  1  0.67339968  0.51173612  0.80652444  1  0.051634  0  -0.006612  -0.088536  0  3.934103  0
C  C62  1  0.35080077  0.56455487  0.15091533  1  0.176603  0  0.088769  0.075177  0  3.937619  0
C  C63  1  0.41914753  0.56902589  0.07409040  1  0.021188  0  -0.078318  -0.185588  0  3.938219  0
C  C64  1  0.64187183  0.44224382  0.85606678  1  0.138748  0  0.088621  0.075221  0  3.938048  0
C  C65  1  0.56593932  0.44551133  0.92534951  1  -0.003069  0  -0.078187  -0.185618  0  3.937669  0
C  C66  1  0.62382713  0.58707012  0.82784502  1  0.060922  0  -0.064031  -0.048891  0  3.93628  0
C  C67  1  0.54710807  0.59179700  0.89641638  1  -0.042523  0  -0.079453  -0.129076  0  3.948779  0
C  C68  1  0.32227484  0.46683021  0.13251866  1  0.040154  0  -0.065  -0.051066  0  3.930177  0
C  C69  1  0.39027238  0.47096731  0.05522301  1  -0.057866  0  -0.07927  -0.126072  0  3.946874  0
C  C70  1  0.44073266  0.52104932  0.02535120  1  0.015571  0  0.005889  0.091138  0  3.990428  0
C  C71  1  0.51770630  0.52048679  0.94740470  1  0.019872  0  0.006438  0.0938  0  3.987683  0
C  C72  1  0.00834052  0.80614744  0.51210265  1  0.064493  0  -0.006953  -0.089219  0  3.934962  0
C  C73  1  0.00291743  0.18202824  0.51375231  1  0.037782  0  -0.006763  -0.086247  0  3.931161  0
C  C74  1  0.05990252  0.85560986  0.44264524  1  0.202229  0  0.089334  0.076119  0  3.937466  0
C  C75  1  0.06323870  0.92492732  0.44589546  1  -0.010339  0  -0.077631  -0.184853  0  3.937187  0
C  C76  1  0.93367719  0.15048827  0.56502398  1  0.126905  0  0.088894  0.075057  0  3.936524  0
C  C77  1  0.93765221  0.07373240  0.56936586  1  0.031546  0  -0.078222  -0.184925  0  3.937229  0
C  C78  1  0.07839138  0.13201772  0.46743002  1  0.009908  0  -0.064361  -0.050003  0  3.928703  0
C  C79  1  0.08354414  0.05476052  0.47148520  1  0.042706  0  -0.079475  -0.127614  0  3.948345  0
C  C80  1  0.96123280  0.82750910  0.58740245  1  -0.048784  0  -0.064349  -0.049431  0  3.936752  0
C  C81  1  0.96464021  0.89608904  0.59211852  1  0.003831  0  -0.079117  -0.128221  0  3.948937  0
C  C82  1  0.01437044  0.94705779  0.52081546  1  0.002635  0  0.005584  0.092067  0  3.989184  0
C  C83  1  0.01282029  0.02496909  0.52143552  1  -0.079943  0  0.006016  0.091909  0  3.990595  0
C  C84  1  0.30004999  0.18053211  0.51319570  1  0.013345  0  -0.008169  -0.087185  0  3.934363  0
C  C85  1  0.67571405  0.80890546  0.51293839  1  0.074908  0  -0.006985  -0.086666  0  3.939517  0
C  C86  1  0.34647395  0.14769104  0.44543002  1  0.158276  0  0.089828  0.076456  0  3.938948  0
C  C87  1  0.41539128  0.07141473  0.44933860  1  0.006764  0  -0.078539  -0.184936  0  3.938637  0
C  C88  1  0.64815610  0.86064837  0.56010942  1  0.146866  0  0.089205  0.074209  0  3.938143  0
C  C89  1  0.57117628  0.92843382  0.56595398  1  0.017404  0  -0.076389  -0.180857  0  3.932825  0
C  C90  1  0.62135455  0.82658487  0.47262707  1  -0.002647  0  -0.067346  -0.056712  0  3.939419  0
C  C91  1  0.54393404  0.89423623  0.47790601  1  -0.083718  0  -0.079388  -0.128063  0  3.954393  0
C  C92  1  0.32520767  0.13257598  0.58676880  1  -0.004224  0  -0.069794  -0.057091  0  3.948045  0
C  C93  1  0.39367852  0.05572178  0.59211486  1  -0.028899  0  -0.081583  -0.130441  0  3.945099  0
C  C94  1  0.44068770  0.02446291  0.52282907  1  0.013509  0  0.005668  0.092375  0  3.990303  0
C  C95  1  0.51833914  0.94729729  0.52329995  1  0.062655  0  0.005559  0.09124  0  3.992799  0
C  C96  1  0.00240999  0.51254127  0.80930257  1  0.017888  0  -0.006587  -0.086329  0  3.939473  0
C  C97  1  0.00619155  0.51280087  0.18089811  1  0.012847  0  -0.008546  -0.088514  0  3.934722  0
C  C98  1  0.93099904  0.55965594  0.86106792  1  0.181781  0  0.089009  0.074593  0  3.936118  0
C  C99  1  0.93430157  0.56544604  0.92891188  1  -0.010191  0  -0.076616  -0.181654  0  3.933135  0
C  C100  1  0.06025704  0.44494533  0.14817032  1  0.179107  0  0.089873  0.076675  0  3.93837  0
C  C101  1  0.06367108  0.44881633  0.07192924  1  0.103261  0  -0.07877  -0.184879  0  3.939369  0
C  C102  1  0.95548102  0.58640879  0.13288285  1  0.039649  0  -0.069323  -0.05613  0  3.94656  0
C  C103  1  0.95843125  0.59169417  0.05609921  1  -0.082546  0  -0.081796  -0.13073  0  3.944702  0
C  C104  1  0.07937592  0.47218740  0.82704470  1  -0.057531  0  -0.067345  -0.057147  0  3.940714  0
C  C105  1  0.08382495  0.47740409  0.89474685  1  -0.032806  0  -0.079599  -0.128489  0  3.956851  0
C  C106  1  0.01092806  0.52277979  0.94779316  1  0.071735  0  0.005675  0.091061  0  3.993778  0
C  C107  1  0.01187636  0.52233049  0.02494700  1  -0.053637  0  0.005888  0.092755  0  3.990528  0
C  C108  1  0.07850991  0.83851924  0.13574286  1  0.007976  0  -0.064232  -0.112328  0  3.874476  0
C  C109  1  0.08315509  0.90754828  0.05709779  1  0.0267  0  -0.001232  0.078642  0  4.025416  0
C  C110  1  0.14991680  0.94409763  0.01463899  1  0.007375  0  -0.064204  -0.116007  0  3.92286  0
C  C111  1  0.95376931  0.83422851  0.13462276  1  -0.032377  0  -0.084233  -0.158028  0  3.947155  0
C  C112  1  0.95669477  0.90255366  0.05547426  1  -0.075753  0  -0.008313  0.040378  0  4.036853  0
C  C113  1  0.89497708  0.93835146  0.01312832  1  -0.029882  0  -0.01853  -0.110746  0  4.014991  0
C  C114  1  0.94721470  0.13540004  0.83896902  1  -0.026786  0  -0.063899  -0.112825  0  3.87341  0
C  C115  1  0.95214904  0.05678026  0.90803595  1  -0.001346  0  -0.001602  0.078819  0  4.024038  0
C  C116  1  0.89118877  0.01440029  0.94470815  1  -0.042471  0  -0.063929  -0.115665  0  3.922012  0
C  C117  1  0.07754026  0.13411895  0.83449342  1  -0.030728  0  -0.083603  -0.157079  0  3.946775  0
C  C118  1  0.08542382  0.05496054  0.90282894  1  -0.040384  0  -0.008649  0.039539  0  4.037208  0
C  C119  1  0.15375705  0.01250160  0.93858218  1  -0.046392  0  -0.017961  -0.109392  0  4.014419  0
C  C120  1  0.01304220  0.80366432  0.17479688  1  -0.03668  0  -0.01541  -0.031116  0  3.99495  0
C  C121  1  0.02044634  0.94200420  0.01753578  1  0.041472  0  0.007506  0.009785  0  3.915769  0
C  C122  1  0.00859499  0.17434756  0.80400131  1  -0.012399  0  -0.016394  -0.031617  0  3.994485  0
C  C123  1  0.02006017  0.01711077  0.94239440  1  -0.050464  0  0.007846  0.009414  0  3.915091  0
C  C124  1  0.30217329  0.50786105  0.51372810  1  0.00387  0  -0.006893  -0.085789  0  3.930552  0
C  C125  1  0.67622541  0.51355904  0.50810427  1  0.076356  0  -0.007148  -0.086442  0  3.928667  0
C  C126  1  0.35263354  0.43742509  0.56372249  1  0.146136  0  0.087679  0.072403  0  3.940435  0
C  C127  1  0.42235914  0.44056257  0.56631993  1  0.112252  0  -0.078248  -0.185509  0  3.938123  0
C  C128  1  0.64620689  0.56363726  0.43766416  1  0.10917  0  0.087771  0.073778  0  3.937902  0
C  C129  1  0.57075070  0.56627599  0.44074335  1  0.019626  0  -0.078412  -0.18659  0  3.938154  0
C  C130  1  0.62601730  0.46640389  0.58391252  1  0.019796  0  -0.063718  -0.049372  0  3.928144  0
C  C131  1  0.54998548  0.46876474  0.58827823  1  -0.007756  0  -0.078817  -0.126418  0  3.945585  0
C  C132  1  0.32363997  0.58371116  0.46661643  1  0.066889  0  -0.063918  -0.049235  0  3.929313  0
C  C133  1  0.39293655  0.58814202  0.46892733  1  -0.029947  0  -0.078761  -0.126288  0  3.946047  0
C  C134  1  0.44421431  0.51630567  0.51786571  1  -0.070757  0  0.006652  0.092235  0  3.987937  0
C  C135  1  0.52162394  0.51776228  0.51642873  1  -0.019116  0  0.006587  0.092782  0  3.988253  0
C  C136  1  0.23239539  0.03830238  0.89334775  1  1.513868  0  0.228305  0.572821  0  4.115397  0
C  C137  1  0.83575137  0.89313328  0.03895244  1  1.511844  0  0.228646  0.573362  0  4.115405  0
N  N138  1  0.33659604  0.61396133  0.19956504  1  0.430848  0  0.061865  0.524232  0  4.234114  0
N  N139  1  0.68966036  0.35883319  0.84067616  1  0.438832  0  0.06287  0.524469  0  4.230897  0
N  N140  1  0.11112450  0.84010966  0.35929751  1  0.41821  0  0.061603  0.522897  0  4.232825  0
N  N141  1  0.84981808  0.19915579  0.61441186  1  0.423829  0  0.061005  0.523495  0  4.2332  0
N  N142  1  0.32851679  0.19414799  0.36293614  1  0.410512  0  0.06188  0.522438  0  4.23737  0
N  N143  1  0.70205365  0.84994866  0.60223816  1  0.372788  0  0.0618  0.523781  0  4.232426  0
N  N144  1  0.84568235  0.60176242  0.85035875  1  0.36904  0  0.060546  0.52258  0  4.232263  0
N  N145  1  0.11420109  0.36245450  0.19471617  1  0.399508  0  0.062255  0.523333  0  4.236421  0
N  N146  1  0.33749606  0.35327075  0.61356215  1  0.415868  0  0.061546  0.524059  0  4.237352  0
N  N147  1  0.69560879  0.61359060  0.35357196  1  0.413326  0  0.061437  0.523302  0  4.235907  0
O  O148  1  0.78836570  0.44660810  0.70492984  1  -1.170579  0  -0.353068  -0.616663  0  2.322635  0
O  O149  1  0.06010123  0.70458720  0.44697451  1  -1.175504  0  -0.353245  -0.617191  0  2.321676  0
O  O150  1  0.19947257  0.56524417  0.29728451  1  -1.170655  0  -0.352027  -0.615658  0  2.324758  0
O  O151  1  0.93789803  0.29691722  0.56571262  1  -1.175638  0  -0.352401  -0.615723  0  2.324715  0
O  O152  1  0.05691091  0.29431504  0.70756008  1  -1.174884  0  -0.35906  -0.618617  0  2.283954  0
O  O153  1  0.78971726  0.56825525  0.44434502  1  -1.175732  0  -0.352922  -0.618285  0  2.317537  0
O  O154  1  0.94122255  0.70722877  0.29472643  1  -1.176883  0  -0.358694  -0.618607  0  2.284249  0
O  O155  1  0.19774360  0.44406006  0.56856970  1  -1.179865  0  -0.35248  -0.617799  0  2.316315  0
O  O156  1  0.93859927  0.56443642  0.70634102  1  -1.172722  0  -0.352161  -0.613657  0  2.327033  0
O  O157  1  0.19732745  0.29556290  0.44824118  1  -1.181021  0  -0.351445  -0.614379  0  2.32362  0
O  O158  1  0.05888855  0.44793437  0.29589388  1  -1.169551  0  -0.351055  -0.614097  0  2.323076  0
O  O159  1  0.79067272  0.70602871  0.56476212  1  -1.171388  0  -0.352604  -0.614145  0  2.327128  0
O  O160  1  0.19740214  0.29317049  0.56859339  1  -1.172276  0  -0.34645  -0.603606  0  2.285672  0
O  O161  1  0.94086611  0.56830489  0.29345185  1  -1.175359  0  -0.345963  -0.602894  0  2.283907  0
O  O162  1  0.78915899  0.70851172  0.44496740  1  -1.174218  0  -0.345412  -0.602911  0  2.263498  0
O  O163  1  0.05745617  0.44464942  0.70882036  1  -1.177641  0  -0.344973  -0.602751  0  2.264386  0
O  O164  1  0.93847694  0.29448672  0.70610126  1  -1.171638  0  -0.349056  -0.604394  0  2.288016  0
O  O165  1  0.19881643  0.56436205  0.44860949  1  -1.173852  0  -0.345433  -0.598487  0  2.287183  0
O  O166  1  0.06098293  0.70570949  0.29486314  1  -1.171183  0  -0.349358  -0.604843  0  2.287639  0
O  O167  1  0.78816142  0.44838275  0.56469684  1  -1.172536  0  -0.34547  -0.598603  0  2.287092  0
O  O168  1  0.05803159  0.29589621  0.44740490  1  -1.176808  0  -0.347025  -0.601072  0  2.285387  0
O  O169  1  0.78771315  0.56618165  0.70493228  1  -1.174427  0  -0.346049  -0.601345  0  2.287979  0
O  O170  1  0.94119020  0.70454498  0.56657510  1  -1.179959  0  -0.345483  -0.600881  0  2.286914  0
O  O171  1  0.19871259  0.44687331  0.29633511  1  -1.165648  0  -0.346753  -0.600577  0  2.28586  0
O  O172  1  0.94396300  0.45234899  0.45048663  1  -1.237975  0  -0.691715  -1.070426  0  2.344911  0
O  O173  1  0.15320195  0.45015045  0.45271314  1  -1.231237  0  -0.692043  -1.07097  0  2.345077  0
O  O174  1  0.94512636  0.66122924  0.45065988  1  -1.259193  0  -0.692957  -1.073127  0  2.346528  0
O  O175  1  0.94302269  0.45025703  0.66162947  1  -1.231681  0  -0.693419  -1.073143  0  2.34744  0
O  O176  1  0.03485699  0.54085456  0.54296757  1  -1.200558  0  -0.79229  -1.152441  0  2.130945  0
O  O177  1  0.88133966  0.54258475  0.54122070  1  -1.197431  0  -0.791932  -1.152765  0  2.132263  0
O  O178  1  0.03538170  0.54260630  0.38792349  1  -1.196724  0  -0.791735  -1.152775  0  2.132413  0
O  O179  1  0.03409366  0.38758460  0.54296966  1  -1.197074  0  -0.791726  -1.15337  0  2.133279  0
O  O180  1  0.36409616  0.57275249  0.26080998  1  -0.43889  0  -0.125132  -0.31716  0  1.880445  0
O  O181  1  0.30282478  0.69304237  0.17177858  1  -0.435183  0  -0.12507  -0.32049  0  1.874956  0
O  O182  1  0.74937666  0.30875491  0.86980491  1  -0.44092  0  -0.121118  -0.313824  0  1.883888  0
O  O183  1  0.66269814  0.34414408  0.80418855  1  -0.441858  0  -0.12327  -0.31983  0  1.876357  0
O  O184  1  0.07259681  0.86931010  0.30898925  1  -0.433597  0  -0.120687  -0.313051  0  1.884603  0
O  O185  1  0.18922395  0.80345758  0.34489573  1  -0.437881  0  -0.122692  -0.319412  0  1.877386  0
O  O186  1  0.80228543  0.26040597  0.57320160  1  -0.428005  0  -0.125052  -0.317126  0  1.881611  0
O  O187  1  0.83229636  0.17140036  0.69348639  1  -0.441823  0  -0.124475  -0.320007  0  1.872964  0
O  O188  1  0.35810184  0.25343273  0.30984104  1  -0.426047  0  -0.120522  -0.309829  0  1.878267  0
O  O189  1  0.28987603  0.16622559  0.35203461  1  -0.436729  0  -0.123416  -0.321387  0  1.886341  0
O  O190  1  0.76488853  0.87484961  0.55445252  1  -0.447514  0  -0.127289  -0.320301  0  1.879069  0
O  O191  1  0.67719050  0.82134161  0.68191929  1  -0.375347  0  -0.122508  -0.315531  0  1.86703  0
O  O192  1  0.80582648  0.55393810  0.87512625  1  -0.440428  0  -0.126844  -0.319669  0  1.880175  0
O  O193  1  0.81935800  0.68145129  0.82191359  1  -0.377489  0  -0.121596  -0.314946  0  1.866304  0
O  O194  1  0.07837416  0.30943515  0.25410194  1  -0.411394  0  -0.121045  -0.310949  0  1.878543  0
O  O195  1  0.19168031  0.35148264  0.16683178  1  -0.435207  0  -0.123316  -0.321147  0  1.885826  0
O  O196  1  0.36371990  0.30629789  0.57273444  1  -0.433268  0  -0.122739  -0.314633  0  1.885021  0
O  O197  1  0.30371552  0.33498373  0.69266626  1  -0.434653  0  -0.127352  -0.323108  0  1.863466  0
O  O198  1  0.75713370  0.57287339  0.30647252  1  -0.429077  0  -0.122263  -0.314219  0  1.885262  0
O  O199  1  0.66856416  0.69267364  0.33546345  1  -0.435558  0  -0.1274  -0.322854  0  1.862552  0
O  O200  1  0.26895578  0.05006942  0.80654956  1  -1.109957  0  -0.340817  -0.481106  0  2.223893  0
O  O201  1  0.26630368  0.04486038  0.92815262  1  -1.10108  0  -0.278572  -0.436135  0  2.029248  0
O  O202  1  0.87426784  0.80639198  0.05046034  1  -1.123694  0  -0.340787  -0.481188  0  2.224379  0
O  O203  1  0.76039977  0.92789328  0.04579148  1  -1.111171  0  -0.278659  -0.436039  0  2.029166  0
