# generated using pymatgen
data_ZnH26C28S2(NO5)2
_symmetry_space_group_name_H-M   'P 1'
_cell_length_a   5.57651086
_cell_length_b   11.28458666
_cell_length_c   10.96289751
_cell_angle_alpha   88.53642632
_cell_angle_beta   93.61787614
_cell_angle_gamma   100.71483309
_symmetry_Int_Tables_number   1
_chemical_formula_structural   ZnH26C28S2(NO5)2
_chemical_formula_sum   'Zn1 H26 C28 S2 N2 O10'
_cell_volume   676.43376349
_cell_formula_units_Z   1
loop_
 _symmetry_equiv_pos_site_id
 _symmetry_equiv_pos_as_xyz
  1  'x, y, z'
loop_
 _atom_site_type_symbol
 _atom_site_label
 _atom_site_symmetry_multiplicity
 _atom_site_fract_x
 _atom_site_fract_y
 _atom_site_fract_z
 _atom_site_occupancy
 _atom_site_hle17_bader_spin_density
 _atom_site_hle17_ddec_charge
 _atom_site_hle17_ddec_spin_density
 _atom_site_hle17_ddec_sum_bond_order
 _atom_site_hle17_magmom
 _atom_site_hse06_10hf_bader_spin_density
 _atom_site_hse06_10hf_ddec_charge
 _atom_site_hse06_10hf_ddec_spin_density
 _atom_site_hse06_10hf_ddec_sum_bond_order
 _atom_site_hse06_10hf_magmom
 _atom_site_hse06_bader_spin_density
 _atom_site_hse06_ddec_charge
 _atom_site_hse06_ddec_spin_density
 _atom_site_hse06_ddec_sum_bond_order
 _atom_site_hse06_magmom
 _atom_site_pbe_bader_spin_density
 _atom_site_pbe_cm5_charge
 _atom_site_pbe_ddec_charge
 _atom_site_pbe_ddec_spin_density
 _atom_site_pbe_ddec_sum_bond_order
 _atom_site_pbe_magmom
Zn  Zn0  1  0.49999673  0.49999160  0.50000292  1  0  1.062722  0  1.78982  0  0  0.884718  0  2.22458  0  0  0.930336  0  2.173401  0  0  0.681847  0.852867  0  2.259649  0
H  H1  1  0.38302352  0.72915973  0.08661580  1  0  0.413751  0  0.785495  0  0  0.392619  0  0.848675  0  0  0.402995  0  0.837224  0  0  0.341119  0.385167  0  0.856926  0
H  H2  1  0.61698822  0.27084604  0.91338608  1  0  0.413668  0  0.785889  0  0  0.392612  0  0.84899  0  0  0.402993  0  0.837527  0  0  0.341148  0.385162  0  0.857241  0
H  H3  1  0.08342866  0.50353296  0.63214850  1  0  0.418521  0  0.879794  0  0  0.386829  0  0.950201  0  0  0.397651  0  0.934627  0  0  0.287272  0.379154  0  0.961241  0
H  H4  1  0.91656844  0.49645471  0.36785837  1  0  0.418685  0  0.879493  0  0  0.386859  0  0.950153  0  0  0.397678  0  0.934585  0  0  0.287286  0.379188  0  0.961186  0
H  H5  1  0.32134407  0.46630226  0.70558637  1  0  0.416695  0  0.892544  0  0  0.384061  0  0.959875  0  0  0.395897  0  0.942742  0  0  0.282409  0.37574  0  0.971879  0
H  H6  1  0.67865263  0.53368436  0.29442596  1  0  0.416735  0  0.892507  0  0  0.384128  0  0.95979  0  0  0.395957  0  0.942664  0  0  0.282441  0.375806  0  0.971797  0
H  H7  1  0.75301314  0.85487734  0.24351640  1  0  0.105383  0  0.944279  0  0  0.114287  0  1.005142  0  0  0.117856  0  1.002493  0  0  0.105447  0.111623  0  1.007189  0
H  H8  1  0.24700637  0.14514299  0.75648028  1  0  0.105245  0  0.944125  0  0  0.114192  0  1.004974  0  0  0.117749  0  1.002352  0  0  0.105417  0.111587  0  1.006965  0
H  H9  1  0.62936957  0.05128909  0.27334745  1  0  0.091566  0  0.983799  0  0  0.101211  0  1.048421  0  0  0.103584  0  1.048877  0  0  0.094577  0.099492  0  1.048301  0
H  H10  1  0.37062477  0.94872263  0.72664114  1  0  0.091537  0  0.983894  0  0  0.101224  0  1.048461  0  0  0.103595  0  1.048925  0  0  0.094582  0.099508  0  1.048338  0
H  H11  1  0.27576203  0.23261139  0.10056878  1  0  0.100916  0  0.967451  0  0  0.108371  0  1.033974  0  0  0.1117  0  1.032993  0  0  0.100183  0.10594  0  1.034863  0
H  H12  1  0.72424026  0.76740644  0.89942553  1  0  0.100847  0  0.967623  0  0  0.108294  0  1.034158  0  0  0.111623  0  1.033177  0  0  0.100128  0.105865  0  1.035036  0
H  H13  1  0.39287275  0.03780142  0.06973049  1  0  0.103012  0  0.959425  0  0  0.111647  0  1.024638  0  0  0.114531  0  1.022579  0  0  0.104592  0.10955  0  1.026163  0
H  H14  1  0.60712738  0.96221555  0.93026284  1  0  0.102928  0  0.95949  0  0  0.111628  0  1.024662  0  0  0.114513  0  1.022602  0  0  0.104584  0.109528  0  1.026183  0
H  H15  1  0.09627376  0.38655165  0.05861647  1  0  0.133786  0  0.945313  0  0  0.144638  0  1.007762  0  0  0.147193  0  1.006137  0  0  0.106086  0.14287  0  1.009006  0
H  H16  1  0.90371880  0.61346427  0.94138484  1  0  0.133741  0  0.945333  0  0  0.144612  0  1.007742  0  0  0.147167  0  1.006121  0  0  0.106077  0.142837  0  1.008984  0
H  H17  1  0.92470119  0.48097046  0.12807999  1  0  0.152698  0  0.917863  0  0  0.168574  0  0.971935  0  0  0.171328  0  0.970184  0  0  0.117763  0.166623  0  0.97331  0
H  H18  1  0.07530165  0.51903983  0.87192528  1  0  0.152563  0  0.918003  0  0  0.168552  0  0.971924  0  0  0.1713  0  0.970209  0  0  0.117742  0.166604  0  0.973286  0
H  H19  1  0.14520384  0.66744300  0.41002926  1  0  0.099855  0  0.962342  0  0  0.105513  0  1.028171  0  0  0.108558  0  1.025556  0  0  0.120274  0.10323  0  1.030149  0
H  H20  1  0.85479149  0.33254063  0.58996021  1  0  0.099736  0  0.962308  0  0  0.105422  0  1.028144  0  0  0.108473  0  1.025512  0  0  0.120236  0.103142  0  1.030128  0
H  H21  1  0.13511377  0.88401085  0.40887278  1  0  0.096073  0  0.993661  0  0  0.106397  0  1.057073  0  0  0.108784  0  1.057663  0  0  0.103047  0.10476  0  1.056618  0
H  H22  1  0.86489531  0.11598008  0.59110982  1  0  0.096031  0  0.993806  0  0  0.106349  0  1.057229  0  0  0.108723  0  1.057858  0  0  0.103077  0.104712  0  1.056773  0
H  H23  1  0.86304806  0.94175545  0.58671167  1  0  0.09834  0  0.992357  0  0  0.107722  0  1.056701  0  0  0.109974  0  1.057791  0  0  0.101892  0.106096  0  1.05611  0
H  H24  1  0.13693308  0.05821967  0.41329560  1  0  0.098165  0  0.99236  0  0  0.107542  0  1.056727  0  0  0.109787  0  1.057831  0  0  0.101868  0.105923  0  1.056139  0
H  H25  1  0.84358518  0.72179947  0.57747718  1  0  0.08072  0  0.984821  0  0  0.081548  0  1.060141  0  0  0.084457  0  1.057936  0  0  0.112291  0.079421  0  1.061726  0
H  H26  1  0.15639641  0.27818108  0.42253011  1  0  0.080772  0  0.984822  0  0  0.081635  0  1.060116  0  0  0.084546  0  1.057913  0  0  0.112369  0.079509  0  1.061703  0
C  C27  1  0.08164900  0.93196458  0.15498978  1  0  -0.10987  0  3.798913  0  0  -0.087638  0  4.033783  0  0  -0.098462  0  4.058275  0  0  -0.03204  -0.080549  0  4.017204  0
C  C28  1  0.91834819  0.06804956  0.84500894  1  0  -0.11016  0  3.798635  0  0  -0.087808  0  4.033508  0  0  -0.098614  0  4.057992  0  0  -0.032199  -0.080738  0  4.01695  0
C  C29  1  0.86676500  0.93822101  0.21323427  1  0  -0.053455  0  3.751429  0  0  -0.078055  0  4.002891  0  0  -0.074553  0  4.019603  0  0  -0.083727  -0.080083  0  3.991477  0
C  C30  1  0.13324182  0.06179034  0.78676382  1  0  -0.053327  0  3.750881  0  0  -0.077967  0  4.002365  0  0  -0.074466  0  4.019065  0  0  -0.083765  -0.080047  0  3.990949  0
C  C31  1  0.79793438  0.04817252  0.22964839  1  0  -0.135491  0  3.754968  0  0  -0.151441  0  4.00593  0  0  -0.156472  0  4.025285  0  0  -0.103181  -0.148172  0  3.992929  0
C  C32  1  0.20206123  0.95182921  0.77034112  1  0  -0.135541  0  3.754922  0  0  -0.15153  0  4.005882  0  0  -0.156552  0  4.025239  0  0  -0.103129  -0.148256  0  3.992894  0
C  C33  1  0.94048975  0.15653544  0.18739496  1  0  0.049426  0  3.785155  0  0  0.068015  0  4.04  0  0  0.073077  0  4.061436  0  0  -0.004614  0.06454  0  4.025413  0
C  C34  1  0.05949986  0.84347341  0.81260077  1  0  0.049538  0  3.785182  0  0  0.068143  0  4.039994  0  0  0.073182  0  4.061458  0  0  -0.004565  0.06466  0  4.025411  0
C  C35  1  0.15874085  0.15096241  0.13230238  1  0  -0.131813  0  3.737632  0  0  -0.152982  0  3.993135  0  0  -0.159377  0  4.014995  0  0  -0.100633  -0.148808  0  3.978486  0
C  C36  1  0.84126065  0.84904922  0.86768734  1  0  -0.131747  0  3.738029  0  0  -0.152917  0  3.993527  0  0  -0.159306  0  4.015396  0  0  -0.10059  -0.148741  0  3.978867  0
C  C37  1  0.22688916  0.03984984  0.11604446  1  0  -0.03929  0  3.715  0  0  -0.063948  0  3.967179  0  0  -0.060599  0  3.986636  0  0  -0.078605  -0.065918  0  3.953923  0
C  C38  1  0.77311411  0.96016162  0.88395078  1  0  -0.039194  0  3.715233  0  0  -0.063942  0  3.967378  0  0  -0.060595  0  3.98683  0  0  -0.07857  -0.065896  0  3.954103  0
C  C39  1  0.13724451  0.81106703  0.13483407  1  0  0.630254  0  3.837442  0  0  0.581662  0  4.141321  0  0  0.614591  0  4.133309  0  0  0.222907  0.559185  0  4.146432  0
C  C40  1  0.86275910  0.18896698  0.86516397  1  0  0.630499  0  3.837287  0  0  0.581674  0  4.141519  0  0  0.614589  0  4.133516  0  0  0.222985  0.559225  0  4.146596  0
C  C41  1  0.03455235  0.41004149  0.14632875  1  0  -0.32737  0  3.615477  0  0  -0.360325  0  3.871168  0  0  -0.364862  0  3.876653  0  0  -0.154235  -0.357461  0  3.867494  0
C  C42  1  0.96545209  0.58997715  0.85366837  1  0  -0.327304  0  3.615666  0  0  -0.360353  0  3.871516  0  0  -0.364899  0  3.876988  0  0  -0.154213  -0.357458  0  3.867797  0
C  C43  1  0.25305024  0.46329693  0.23315854  1  0  0.710679  0  3.8482  0  0  0.657284  0  4.157984  0  0  0.690549  0  4.151103  0  0  0.207532  0.634846  0  4.161773  0
C  C44  1  0.74693509  0.53669273  0.76684524  1  0  0.710638  0  3.84762  0  0  0.657161  0  4.157543  0  0  0.690432  0  4.150665  0  0  0.207534  0.634713  0  4.161322  0
C  C45  1  0.30142089  0.73116371  0.44818705  1  0  0.13672  0  3.676407  0  0  0.103607  0  3.929256  0  0  0.110803  0  3.946058  0  0  0.051235  0.098931  0  3.917961  0
C  C46  1  0.69859049  0.26881944  0.55181478  1  0  0.136802  0  3.676013  0  0  0.103702  0  3.928908  0  0  0.110895  0  3.945702  0  0  0.051295  0.099022  0  3.917628  0
C  C47  1  0.29753292  0.85376022  0.44810706  1  0  -0.151453  0  3.692357  0  0  -0.170819  0  3.939948  0  0  -0.179117  0  3.962372  0  0  -0.082006  -0.16541  0  3.924893  0
C  C48  1  0.70247245  0.14622591  0.55188728  1  0  -0.15139  0  3.692641  0  0  -0.170737  0  3.940288  0  0  -0.179026  0  3.962717  0  0  -0.082086  -0.165323  0  3.925229  0
C  C49  1  0.49935520  0.93464060  0.49807526  1  0  0.087162  0  3.772753  0  0  0.099854  0  4.000926  0  0  0.104002  0  4.021405  0  0  0.010307  0.097273  0  3.986863  0
C  C50  1  0.50066911  0.06534766  0.50193428  1  0  0.087012  0  3.772945  0  0  0.099577  0  4.001241  0  0  0.103675  0  4.021776  0  0  0.010156  0.097007  0  3.987172  0
C  C51  1  0.70007688  0.88580359  0.54497400  1  0  -0.161561  0  3.710295  0  0  -0.17968  0  3.95802  0  0  -0.187775  0  3.97999  0  0  -0.085034  -0.174415  0  3.943273  0
C  C52  1  0.29993191  0.11417748  0.45503870  1  0  -0.161203  0  3.710377  0  0  -0.179283  0  3.958194  0  0  -0.187356  0  3.980169  0  0  -0.084883  -0.174031  0  3.943452  0
C  C53  1  0.69115518  0.76238405  0.54099987  1  0  0.13833  0  3.693022  0  0  0.10745  0  3.943195  0  0  0.114396  0  3.96089  0  0  0.048258  0.102973  0  3.931206  0
C  C54  1  0.30883968  0.23759818  0.45900783  1  0  0.138024  0  3.693406  0  0  0.107106  0  3.943672  0  0  0.114046  0  3.961362  0  0  0.048095  0.102636  0  3.931682  0
S  S55  1  0.81759655  0.28625424  0.20598380  1  0  0.049321  0  2.451221  0  0  0.046416  0  2.79283  0  0  0.040262  0  2.795951  0  0  0.031605  0.051217  0  2.790547  0
S  S56  1  0.18237593  0.71375674  0.79400593  1  0  0.049438  0  2.451382  0  0  0.04651  0  2.793061  0  0  0.040369  0  2.796196  0  0  0.031621  0.051312  0  2.79076  0
N  N57  1  0.49485415  0.68588159  0.49442086  1  0  -0.314884  0  3.283469  0  0  -0.233593  0  3.54436  0  0  -0.251417  0  3.559811  0  0  -0.322569  -0.221667  0  3.533869  0
N  N58  1  0.50514393  0.31409973  0.50558602  1  0  -0.314669  0  3.283033  0  0  -0.23347  0  3.544033  0  0  -0.25128  0  3.559483  0  0  -0.322522  -0.221546  0  3.533549  0
O  O59  1  0.21272443  0.46787306  0.34699749  1  0  -0.686635  0  2.074655  0  0  -0.605608  0  2.317178  0  0  -0.634536  0  2.306438  0  0  -0.318459  -0.585352  0  2.323778  0
O  O60  1  0.78727442  0.53211018  0.65300486  1  0  -0.686517  0  2.07439  0  0  -0.6055  0  2.316934  0  0  -0.634432  0  2.306197  0  0  -0.318415  -0.585275  0  2.32362  0
O  O61  1  0.45339816  0.50179346  0.18610978  1  0  -0.613213  0  1.902979  0  0  -0.565818  0  2.120753  0  0  -0.589241  0  2.109787  0  0  -0.323182  -0.549386  0  2.127684  0
O  O62  1  0.54659003  0.49819862  0.81390413  1  0  -0.613245  0  1.90264  0  0  -0.565811  0  2.120477  0  0  -0.589235  0  2.109511  0  0  -0.323235  -0.549374  0  2.12741  0
O  O63  1  0.99515248  0.71570195  0.15198844  1  0  -0.540118  0  1.913085  0  0  -0.499576  0  2.125069  0  0  -0.517956  0  2.11642  0  0  -0.2907  -0.487224  0  2.130975  0
O  O64  1  0.00486218  0.28430661  0.84800989  1  0  -0.540016  0  1.913434  0  0  -0.499378  0  2.12554  0  0  -0.517767  0  2.116922  0  0  -0.290586  -0.48704  0  2.131451  0
O  O65  1  0.36462784  0.81345911  0.09523470  1  0  -0.545912  0  2.080853  0  0  -0.496641  0  2.299064  0  0  -0.516995  0  2.285381  0  0  -0.328063  -0.482357  0  2.308254  0
O  O66  1  0.63537434  0.18655397  0.90476781  1  0  -0.545931  0  2.081176  0  0  -0.496689  0  2.299356  0  0  -0.517036  0  2.285674  0  0  -0.328132  -0.482406  0  2.308537  0
O  O67  1  0.22058910  0.45943611  0.62548673  1  0  -0.833501  0  1.93524  0  0  -0.773857  0  2.149623  0  0  -0.795887  0  2.114708  0  0  -0.58265  -0.75819  0  2.173772  0
O  O68  1  0.77940226  0.54055075  0.37451814  1  0  -0.833726  0  1.935085  0  0  -0.773983  0  2.149658  0  0  -0.796005  0  2.114757  0  0  -0.5827  -0.758324  0  2.173808  0
