# generated using pymatgen
data_HgH10C8(NO)5
_symmetry_space_group_name_H-M   'P 1'
_cell_length_a   5.32444434
_cell_length_b   13.59891218
_cell_length_c   16.95600000
_cell_angle_alpha   100.79702311
_cell_angle_beta   90.00000000
_cell_angle_gamma   101.28957598
_symmetry_Int_Tables_number   1
_chemical_formula_structural   HgH10C8(NO)5
_chemical_formula_sum   'Hg4 H40 C32 N20 O20'
_cell_volume   1181.79972014
_cell_formula_units_Z   4
loop_
 _symmetry_equiv_pos_site_id
 _symmetry_equiv_pos_as_xyz
  1  'x, y, z'
loop_
 _atom_site_type_symbol
 _atom_site_label
 _atom_site_symmetry_multiplicity
 _atom_site_fract_x
 _atom_site_fract_y
 _atom_site_fract_z
 _atom_site_occupancy
 _atom_site_hle17_bader_spin_density
 _atom_site_hle17_ddec_charge
 _atom_site_hle17_ddec_spin_density
 _atom_site_hle17_ddec_sum_bond_order
 _atom_site_hle17_magmom
 _atom_site_hse06_10hf_bader_spin_density
 _atom_site_hse06_10hf_ddec_charge
 _atom_site_hse06_10hf_ddec_spin_density
 _atom_site_hse06_10hf_ddec_sum_bond_order
 _atom_site_hse06_10hf_magmom
 _atom_site_hse06_bader_spin_density
 _atom_site_hse06_ddec_charge
 _atom_site_hse06_ddec_spin_density
 _atom_site_hse06_ddec_sum_bond_order
 _atom_site_hse06_magmom
 _atom_site_pbe_bader_charge
 _atom_site_pbe_bader_spin_density
 _atom_site_pbe_cm5_charge
 _atom_site_pbe_ddec_charge
 _atom_site_pbe_ddec_spin_density
 _atom_site_pbe_ddec_sum_bond_order
 _atom_site_pbe_magmom
Hg  Hg0  1  0.06144699  0.05650946  0.19681925  1  0  0.461555  0  1.873376  0  0  0.348237  0  2.319459  0  0  0.374025  0  2.29715  0  0.588413  0  0.412581  0.328945  0  2.335982  0
Hg  Hg1  1  0.00474060  0.94311262  0.30327542  1  0  0.461916  0  1.872855  0  0  0.348326  0  2.318973  0  0  0.374112  0  2.29655  0  0.590076  0  0.412836  0.329091  0  2.335492  0
Hg  Hg2  1  0.93854637  0.94349458  0.80318301  1  0  0.461569  0  1.873363  0  0  0.348229  0  2.319436  0  0  0.374016  0  2.297128  0  0.588398  0  0.412579  0.328936  0  2.335959  0
Hg  Hg3  1  0.99525875  0.05688837  0.69672284  1  0  0.461887  0  1.872899  0  0  0.348281  0  2.319053  0  0  0.374071  0  2.29662  0  0.590024  0  0.412815  0.329038  0  2.335574  0
H  H4  1  0.90158757  0.14616434  0.03621443  1  0  0.123721  0  0.941637  0  0  0.126943  0  1.01431  0  0  0.13017  0  1.009667  0  0.236009  0  0.141717  0.124481  0  1.017711  0
H  H5  1  0.75483850  0.85337371  0.46382456  1  0  0.124602  0  0.942343  0  0  0.128335  0  1.014461  0  0  0.131604  0  1.009766  0  0.229175  0  0.142303  0.125845  0  1.017866  0
H  H6  1  0.09841671  0.85384276  0.96378475  1  0  0.12377  0  0.941671  0  0  0.1271  0  1.014243  0  0  0.130333  0  1.009587  0  0.236353  0  0.141773  0.124638  0  1.017643  0
H  H7  1  0.24517855  0.14663263  0.53617509  1  0  0.124602  0  0.942312  0  0  0.128364  0  1.014396  0  0  0.13163  0  1.009701  0  0.22924  0  0.142291  0.125874  0  1.017802  0
H  H8  1  0.22775928  0.46200832  0.16462554  1  0  0.100514  0  0.960438  0  0  0.115042  0  1.031964  0  0  0.11586  0  1.031868  0  0.083536  0  0.100323  0.114344  0  1.032166  0
H  H9  1  0.76585940  0.53773217  0.33537900  1  0  0.101838  0  0.959422  0  0  0.116322  0  1.03091  0  0  0.117157  0  1.030799  0  0.071778  0  0.100997  0.115604  0  1.03112  0
H  H10  1  0.77225287  0.53799572  0.83537908  1  0  0.1005  0  0.960417  0  0  0.11503  0  1.031945  0  0  0.115847  0  1.031848  0  0.08327  0  0.100322  0.114329  0  1.032148  0
H  H11  1  0.23413317  0.46226653  0.66462187  1  0  0.101897  0  0.95943  0  0  0.116377  0  1.030894  0  0  0.117209  0  1.030787  0  0.071661  0  0.101014  0.115659  0  1.031106  0
H  H12  1  0.02442800  0.55270826  0.18593581  1  0  0.103894  0  0.94256  0  0  0.125988  0  1.00405  0  0  0.126041  0  1.004441  0  0.082242  0  0.103873  0.125817  0  1.00391  0
H  H13  1  0.47168702  0.44711092  0.31401508  1  0  0.10375  0  0.94246  0  0  0.125927  0  1.003723  0  0  0.126023  0  1.004051  0  0.075303  0  0.103997  0.125737  0  1.003583  0
H  H14  1  0.97557813  0.44729502  0.81406692  1  0  0.103903  0  0.942537  0  0  0.125978  0  1.004044  0  0  0.12603  0  1.004435  0  0.082409  0  0.103884  0.125804  0  1.003902  0
H  H15  1  0.52830398  0.55288091  0.68598770  1  0  0.103765  0  0.942454  0  0  0.125937  0  1.003709  0  0  0.126032  0  1.004036  0  0.075389  0  0.104009  0.125746  0  1.00357  0
H  H16  1  0.08449201  0.50291069  0.08363228  1  0  0.129069  0  0.968443  0  0  0.144375  0  1.034383  0  0  0.146932  0  1.031965  0  0.168557  0  0.112249  0.142472  0  1.036149  0
H  H17  1  0.58167596  0.49676105  0.41634128  1  0  0.128481  0  0.96993  0  0  0.143905  0  1.035578  0  0  0.146391  0  1.03329  0  0.165661  0  0.112229  0.142034  0  1.037299  0
H  H18  1  0.91551749  0.49709183  0.91637093  1  0  0.129078  0  0.968429  0  0  0.14441  0  1.034325  0  0  0.146966  0  1.031907  0  0.168493  0  0.112279  0.142507  0  1.03609  0
H  H19  1  0.41830422  0.50323918  0.58366335  1  0  0.128562  0  0.969898  0  0  0.14398  0  1.035539  0  0  0.146465  0  1.033254  0  0.165831  0  0.112228  0.142109  0  1.03726  0
H  H20  1  0.58637054  0.16604410  0.27657439  1  0  0.104341  0  0.948929  0  0  0.123812  0  1.017308  0  0  0.12379  0  1.017421  0  0.089693  0  0.098329  0.123667  0  1.017425  0
H  H21  1  0.41939127  0.83368340  0.22344884  1  0  0.104037  0  0.951305  0  0  0.122905  0  1.020153  0  0  0.122925  0  1.020224  0  0.095451  0  0.097356  0.122731  0  1.020296  0
H  H22  1  0.41363594  0.83395613  0.72342848  1  0  0.104419  0  0.948863  0  0  0.123785  0  1.01733  0  0  0.123761  0  1.017443  0  0.089668  0  0.098327  0.123626  0  1.017465  0
H  H23  1  0.58060690  0.16631148  0.77654674  1  0  0.103996  0  0.951181  0  0  0.12288  0  1.020036  0  0  0.122898  0  1.020111  0  0.095399  0  0.097356  0.122705  0  1.020181  0
H  H24  1  0.65115030  0.29454408  0.33193250  1  0  0.122491  0  0.946807  0  0  0.142106  0  1.006617  0  0  0.144028  0  1.005323  0  0.109182  0  0.1185  0.140637  0  1.007632  0
H  H25  1  0.35655887  0.70510780  0.16819672  1  0  0.122858  0  0.946569  0  0  0.141665  0  1.007023  0  0  0.143649  0  1.005687  0  0.109669  0  0.118364  0.14015  0  1.008088  0
H  H26  1  0.34885620  0.70545997  0.66806976  1  0  0.122453  0  0.946759  0  0  0.141999  0  1.006644  0  0  0.143922  0  1.005344  0  0.109094  0  0.118439  0.140531  0  1.007658  0
H  H27  1  0.64344120  0.29489090  0.83180178  1  0  0.122798  0  0.946536  0  0  0.141612  0  1.007003  0  0  0.143596  0  1.005667  0  0.109724  0  0.118366  0.140096  0  1.008069  0
H  H28  1  0.33168909  0.23513015  0.29632468  1  0  0.102739  0  0.950569  0  0  0.12514  0  1.014047  0  0  0.125658  0  1.013599  0  0.089338  0  0.1042  0.124693  0  1.014455  0
H  H29  1  0.09581590  0.76423067  0.20367707  1  0  0.10251  0  0.950098  0  0  0.125002  0  1.013622  0  0  0.125519  0  1.01315  0  0.057841  0  0.103712  0.124551  0  1.014022  0
H  H30  1  0.66831025  0.76487084  0.70367771  1  0  0.10272  0  0.95066  0  0  0.125097  0  1.014144  0  0  0.125614  0  1.013696  0  0.089339  0  0.104175  0.124651  0  1.014549  0
H  H31  1  0.90418679  0.23576574  0.79631873  1  0  0.102496  0  0.950129  0  0  0.125002  0  1.013647  0  0  0.125517  0  1.013178  0  0.057893  0  0.103708  0.124549  0  1.014048  0
H  H32  1  0.22701920  0.36948413  0.95432156  1  0  0.135156  0  0.926671  0  0  0.151232  0  0.989307  0  0  0.153332  0  0.98765  0  0.108367  0  0.118014  0.149638  0  0.990597  0
H  H33  1  0.85765709  0.63037325  0.54592641  1  0  0.13499  0  0.926808  0  0  0.150818  0  0.989889  0  0  0.152925  0  0.988237  0  0.110734  0  0.117398  0.149213  0  0.991175  0
H  H34  1  0.77299858  0.63051992  0.04567775  1  0  0.135184  0  0.926683  0  0  0.151293  0  0.98929  0  0  0.153393  0  0.98763  0  0.10848  0  0.118008  0.149695  0  0.990585  0
H  H35  1  0.14233134  0.36962469  0.45407375  1  0  0.134993  0  0.92686  0  0  0.150846  0  0.989905  0  0  0.152951  0  0.988258  0  0.110774  0  0.117401  0.149243  0  0.991191  0
H  H36  1  0.97994385  0.25573183  0.93408963  1  0  0.116934  0  0.947754  0  0  0.137734  0  1.008946  0  0  0.138103  0  1.009768  0  0.119513  0  0.114238  0.137327  0  1.008516  0
H  H37  1  0.72416997  0.74409575  0.56602943  1  0  0.116941  0  0.948959  0  0  0.137489  0  1.010368  0  0  0.137846  0  1.011199  0  0.104585  0  0.114099  0.137085  0  1.009934  0
H  H38  1  0.02007692  0.74427069  0.06591063  1  0  0.117215  0  0.947653  0  0  0.137922  0  1.008927  0  0  0.138289  0  1.009756  0  0.119423  0  0.114335  0.137515  0  1.008497  0
H  H39  1  0.27581887  0.25590677  0.43397083  1  0  0.116995  0  0.948909  0  0  0.137562  0  1.010312  0  0  0.137921  0  1.011134  0  0.104676  0  0.114131  0.137159  0  1.009879  0
H  H40  1  0.30206028  0.24981824  0.90690487  1  0  0.108224  0  0.939153  0  0  0.126658  0  1.007003  0  0  0.127236  0  1.006588  0  0.091684  0  0.107891  0.126096  0  1.007446  0
H  H41  1  0.05218253  0.75012087  0.59323979  1  0  0.10855  0  0.940597  0  0  0.127087  0  1.008116  0  0  0.127669  0  1.007678  0  0.08543  0  0.108003  0.12652  0  1.008568  0
H  H42  1  0.69796010  0.75018351  0.09309646  1  0  0.108254  0  0.939203  0  0  0.126699  0  1.007026  0  0  0.127279  0  1.006609  0  0.091669  0  0.107878  0.126138  0  1.007467  0
H  H43  1  0.94781832  0.24987936  0.40675659  1  0  0.108627  0  0.940547  0  0  0.127152  0  1.008096  0  0  0.127733  0  1.007657  0  0.085326  0  0.108029  0.126586  0  1.008547  0
C  C44  1  0.05849157  0.48535098  0.14374002  1  0  -0.156963  0  3.624775  0  0  -0.262206  0  3.879368  0  0  -0.257264  0  3.886412  0  0.18006  0  -0.14469  -0.26521  0  3.874535  0
C  C45  1  0.57319139  0.51442083  0.35626922  1  0  -0.158777  0  3.626341  0  0  -0.264006  0  3.880711  0  0  -0.259045  0  3.887781  0  0.206907  0  -0.146006  -0.267019  0  3.875887  0
C  C46  1  0.94151644  0.51465230  0.85626330  1  0  -0.156947  0  3.624703  0  0  -0.262222  0  3.879319  0  0  -0.257286  0  3.886378  0  0.179967  0  -0.14467  -0.265215  0  3.874478  0
C  C47  1  0.42679962  0.48557100  0.64373238  1  0  -0.159009  0  3.626449  0  0  -0.264206  0  3.880837  0  0  -0.259245  0  3.887906  0  0.206891  0  -0.146055  -0.267221  0  3.876015  0
C  C48  1  0.80650311  0.35558594  0.20758439  1  0  0.606027  0  3.840848  0  0  0.534182  0  4.148662  0  0  0.568238  0  4.147402  0  1.735745  0  0.332166  0.511345  0  4.148799  0
C  C49  1  0.45088686  0.64423553  0.29249483  1  0  0.60423  0  3.844232  0  0  0.532881  0  4.151088  0  0  0.566962  0  4.149834  0  1.769731  0  0.332139  0.510033  0  4.151213  0
C  C50  1  0.19349210  0.64441429  0.79241848  1  0  0.606175  0  3.840809  0  0  0.534357  0  4.148594  0  0  0.568415  0  4.147325  0  1.735623  0  0.332263  0.511519  0  4.148737  0
C  C51  1  0.54911395  0.35576088  0.70750570  1  0  0.604453  0  3.843776  0  0  0.533014  0  4.150801  0  0  0.567097  0  4.149542  0  1.769687  0  0.332212  0.510166  0  4.150929  0
C  C52  1  0.53482875  0.24128132  0.28304737  1  0  -0.155873  0  3.629276  0  0  -0.264905  0  3.882449  0  0  -0.259657  0  3.889287  0  0.22241  0  -0.139559  -0.268137  0  3.877697  0
C  C53  1  0.29302411  0.75834993  0.21700503  1  0  -0.155045  0  3.63208  0  0  -0.263149  0  3.885042  0  0  -0.257959  0  3.891866  0  0.247771  0  -0.137725  -0.266358  0  3.880344  0
C  C54  1  0.46517699  0.75872120  0.71695348  1  0  -0.155815  0  3.629232  0  0  -0.264668  0  3.8824  0  0  -0.259419  0  3.889242  0  0.222467  0  -0.139471  -0.267892  0  3.877655  0
C  C55  1  0.70697708  0.24164724  0.78299206  1  0  -0.154942  0  3.631804  0  0  -0.263064  0  3.884798  0  0  -0.257874  0  3.891623  0  0.247724  0  -0.137745  -0.266271  0  3.8801  0
C  C56  1  0.40932646  0.25780131  0.14599586  1  0  0.305469  0  3.81636  0  0  0.256997  0  4.095427  0  0  0.275172  0  4.11205  0  0.883215  0  0.220044  0.244943  0  4.084123  0
C  C57  1  0.15150846  0.74196057  0.35414872  1  0  0.305096  0  3.819006  0  0  0.256397  0  4.097907  0  0  0.274547  0  4.114538  0  0.890182  0  0.219212  0.24435  0  4.086587  0
C  C58  1  0.59068117  0.74220120  0.85400440  1  0  0.305362  0  3.816293  0  0  0.256867  0  4.095442  0  0  0.275044  0  4.112068  0  0.8832  0  0.219993  0.244814  0  4.084138  0
C  C59  1  0.84848296  0.25803584  0.64584532  1  0  0.304757  0  3.819452  0  0  0.256239  0  4.098114  0  0  0.274389  0  4.114744  0  0.89028  0  0.219128  0.24419  0  4.086798  0
C  C60  1  0.44460232  0.30478991  0.07995746  1  0  -0.134185  0  3.768335  0  0  -0.148999  0  4.035616  0  0  -0.15966  0  4.05679  0  0.440237  0  0.07365  -0.142415  0  4.021906  0
C  C61  1  0.13990258  0.69500558  0.42019217  1  0  -0.132945  0  3.767127  0  0  -0.147278  0  4.033713  0  0  -0.158014  0  4.054999  0  0.46344  0  0.074281  -0.140644  0  4.019928  0
C  C62  1  0.55541695  0.69521337  0.92004174  1  0  -0.133985  0  3.768221  0  0  -0.14881  0  4.035496  0  0  -0.159483  0  4.05669  0  0.440042  0  0.073716  -0.142226  0  4.021784  0
C  C63  1  0.86007793  0.30498777  0.57979905  1  0  -0.133109  0  3.767311  0  0  -0.147317  0  4.033694  0  0  -0.15805  0  4.054977  0  0.484884  0  0.074279  -0.140684  0  4.019911  0
C  C64  1  0.66297146  0.38223794  0.07286073  1  0  0.492479  0  3.892488  0  0  0.444298  0  4.182397  0  0  0.475209  0  4.181655  0  1.334499  0  0.232857  0.423559  0  4.1825  0
C  C65  1  0.28091643  0.61752928  0.42723982  1  0  0.491435  0  3.892993  0  0  0.443282  0  4.183078  0  0  0.474178  0  4.182396  0  1.319279  0  0.23392  0.42256  0  4.183125  0
C  C66  1  0.33704705  0.61776381  0.92714118  1  0  0.492425  0  3.892422  0  0  0.444289  0  4.182299  0  0  0.475206  0  4.18155  0  1.334713  0  0.232868  0.423551  0  4.182401  0
C  C67  1  0.71904335  0.38245643  0.57275437  1  0  0.491417  0  3.892919  0  0  0.443153  0  4.18312  0  0  0.474049  0  4.182442  0  1.297414  0  0.233841  0.422432  0  4.183162  0
C  C68  1  0.18202264  0.28666566  0.95091338  1  0  -0.167274  0  3.582265  0  0  -0.27206  0  3.828451  0  0  -0.26839  0  3.835759  0  0.232773  0  -0.124183  -0.274225  0  3.823536  0
C  C69  1  0.89535695  0.71317261  0.54924385  1  0  -0.168379  0  3.585437  0  0  -0.272806  0  3.831298  0  0  -0.269156  0  3.838632  0  0.250707  0  -0.124276  -0.274953  0  3.826385  0
C  C70  1  0.81799851  0.71333762  0.04908758  1  0  -0.167576  0  3.582293  0  0  -0.272339  0  3.828511  0  0  -0.268674  0  3.835828  0  0.232474  0  -0.124259  -0.274502  0  3.823599  0
C  C71  1  0.10462963  0.28682914  0.45075571  1  0  -0.168564  0  3.585389  0  0  -0.27303  0  3.831323  0  0  -0.269377  0  3.838653  0  0.25063  0  -0.124324  -0.275181  0  3.826415  0
C  C72  1  0.07937902  0.19351428  0.06400244  1  0  0.214395  0  3.555697  0  0  0.137215  0  3.837951  0  0  0.155972  0  3.844822  0  0.985257  0  0.166347  0.124919  0  3.833185  0
C  C73  1  0.88556323  0.80613378  0.43609437  1  0  0.213189  0  3.556164  0  0  0.135094  0  3.839122  0  0  0.153749  0  3.845991  0  0.981341  0  0.165854  0.122875  0  3.834324  0
C  C74  1  0.92063201  0.80649130  0.93599593  1  0  0.214273  0  3.555628  0  0  0.136984  0  3.837886  0  0  0.155743  0  3.844755  0  0.984981  0  0.16617  0.124691  0  3.833118  0
C  C75  1  0.11443459  0.19386416  0.56390520  1  0  0.213063  0  3.556389  0  0  0.134976  0  3.839392  0  0  0.153635  0  3.846258  0  0.980835  0  0.165822  0.122757  0  3.834596  0
N  N76  1  0.83409633  0.40289539  0.14073491  1  0  -0.267825  0  3.371876  0  0  -0.1796  0  3.612433  0  0  -0.20433  0  3.630572  0  -1.124956  0  -0.24971  -0.16305  0  3.599704  0
N  N77  1  0.43138177  0.59694289  0.35935214  1  0  -0.264865  0  3.370353  0  0  -0.177312  0  3.6112  0  0  -0.202008  0  3.629349  0  -1.133801  0  -0.249504  -0.160783  0  3.598449  0
N  N78  1  0.16591168  0.59710790  0.85926841  1  0  -0.267775  0  3.371804  0  0  -0.179573  0  3.612356  0  0  -0.204302  0  3.630489  0  -1.124656  0  -0.249787  -0.163023  0  3.599624  0
N  N79  1  0.56859870  0.40304665  0.64064499  1  0  -0.264754  0  3.370309  0  0  -0.177157  0  3.611201  0  0  -0.201849  0  3.629348  0  -1.133335  0  -0.249497  -0.16063  0  3.598447  0
N  N80  1  0.58179670  0.28306144  0.20996966  1  0  -0.218059  0  3.457483  0  0  -0.129806  0  3.699629  0  0  -0.152584  0  3.719532  0  -1.196248  0  -0.249338  -0.114485  0  3.685663  0
N  N81  1  0.29858155  0.71671572  0.29014182  1  0  -0.218721  0  3.460587  0  0  -0.130239  0  3.701952  0  0  -0.153047  0  3.721915  0  -1.202439  0  -0.249399  -0.114898  0  3.687946  0
N  N82  1  0.41820529  0.71694108  0.79003119  1  0  -0.218174  0  3.457414  0  0  -0.129899  0  3.699513  0  0  -0.152678  0  3.719415  0  -1.196068  0  -0.249353  -0.114576  0  3.685544  0
N  N83  1  0.70141252  0.28328221  0.70985421  1  0  -0.218514  0  3.460388  0  0  -0.130116  0  3.701816  0  0  -0.152925  0  3.72178  0  -1.202475  0  -0.249301  -0.114775  0  3.687811  0
N  N84  1  0.23001041  0.26336120  0.02937423  1  0  -0.004753  0  3.560254  0  0  0.088317  0  3.782244  0  0  0.075702  0  3.8079  0  -1.209139  0  -0.225731  0.096573  0  3.764982  0
N  N85  1  0.96666719  0.73637776  0.47075333  1  0  -0.004517  0  3.558991  0  0  0.088223  0  3.781645  0  0  0.075673  0  3.807263  0  -1.210165  0  -0.22618  0.096435  0  3.764403  0
N  N86  1  0.77000438  0.73664437  0.97062649  1  0  -0.004924  0  3.560268  0  0  0.088216  0  3.782215  0  0  0.075605  0  3.807871  0  -1.208757  0  -0.22571  0.096472  0  3.764952  0
N  N87  1  0.03331554  0.26361253  0.52924037  1  0  -0.00424  0  3.558902  0  0  0.08848  0  3.781515  0  0  0.075931  0  3.807129  0  -1.210097  0  -0.226107  0.096692  0  3.764274  0
N  N88  1  0.18152264  0.18853651  0.13566434  1  0  -0.356668  0  3.194382  0  0  -0.274342  0  3.480154  0  0  -0.296724  0  3.491882  0  -1.175126  0  -0.334315  -0.259239  0  3.471892  0
N  N89  1  0.99264252  0.81110620  0.36442577  1  0  -0.356372  0  3.196453  0  0  -0.273609  0  3.482152  0  0  -0.295782  0  3.493525  0  -1.169862  0  -0.333817  -0.258587  0  3.474011  0
N  N90  1  0.81847750  0.81146983  0.86433532  1  0  -0.356519  0  3.194243  0  0  -0.274233  0  3.480124  0  0  -0.296614  0  3.491853  0  -1.175323  0  -0.334218  -0.259131  0  3.471863  0
N  N91  1  0.00735534  0.18889555  0.63557202  1  0  -0.356216  0  3.19669  0  0  -0.27361  0  3.482458  0  0  -0.295783  0  3.493828  0  -1.169476  0  -0.333826  -0.25859  0  3.474318  0
N  N92  1  0.54679944  0.96814509  0.09735362  1  0  0.685954  0  4.141793  0  0  0.717216  0  4.430647  0  0  0.745249  0  4.43764  0  0.823686  0  0.090891  0.697998  0  4.425394  0
N  N93  1  0.57911488  0.03188493  0.40280293  1  0  0.684738  0  4.147318  0  0  0.71732  0  4.434882  0  0  0.74559  0  4.441933  0  0.809584  0  0.089732  0.69824  0  4.429456  0
N  N94  1  0.45319768  0.03185896  0.90264628  1  0  0.686049  0  4.141402  0  0  0.717279  0  4.430282  0  0  0.745311  0  4.437272  0  0.823655  0  0.090973  0.698062  0  4.425033  0
N  N95  1  0.42088746  0.96811453  0.59720159  1  0  0.685348  0  4.146858  0  0  0.71769  0  4.434638  0  0  0.745961  0  4.441683  0  0.809558  0  0.089773  0.698552  0  4.42929  0
O  O96  1  0.97150281  0.37739539  0.26270466  1  0  -0.549424  0  1.898096  0  0  -0.507913  0  2.117386  0  0  -0.527311  0  2.111135  0  -1.124102  0  -0.300041  -0.494485  0  2.121219  0
O  O97  1  0.59386990  0.62235732  0.23732825  1  0  -0.549298  0  1.901273  0  0  -0.507392  0  2.11951  0  0  -0.526848  0  2.113327  0  -1.153278  0  -0.30005  -0.493953  0  2.123345  0
O  O98  1  0.02850704  0.62260407  0.73729868  1  0  -0.549498  0  1.898244  0  0  -0.508007  0  2.117554  0  0  -0.527405  0  2.111302  0  -1.123969  0  -0.300085  -0.494579  0  2.12139  0
O  O99  1  0.40613206  0.37764137  0.76267497  1  0  -0.549449  0  1.901054  0  0  -0.507483  0  2.119336  0  0  -0.526938  0  2.113144  0  -1.153322  0  -0.300097  -0.494043  0  2.123173  0
O  O100  1  0.70649837  0.42724032  0.01585749  1  0  -0.503406  0  1.935764  0  0  -0.461773  0  2.150495  0  0  -0.480741  0  2.144241  0  -1.131719  0  -0.279437  -0.448732  0  2.154475  0
O  O101  1  0.27936058  0.57249406  0.48420982  1  0  -0.502824  0  1.938651  0  0  -0.461158  0  2.153512  0  0  -0.480091  0  2.147235  0  -1.133918  0  -0.279684  -0.448146  0  2.15752  0
O  O102  1  0.29352466  0.57276296  0.98414348  1  0  -0.503419  0  1.935913  0  0  -0.461832  0  2.150673  0  0  -0.480798  0  2.144409  0  -1.131881  0  -0.279466  -0.448795  0  2.154659  0
O  O103  1  0.72056460  0.42748631  0.51577473  1  0  -0.50283  0  1.938376  0  0  -0.461179  0  2.153356  0  0  -0.480129  0  2.147106  0  -1.133927  0  -0.279616  -0.448167  0  2.157359  0
O  O104  1  0.55148628  0.05105424  0.14839703  1  0  -0.491956  0  1.836988  0  0  -0.466261  0  2.076295  0  0  -0.485145  0  2.070909  0  -0.574635  0  -0.213656  -0.452436  0  2.079476  0
O  O105  1  0.50015929  0.94888946  0.35192112  1  0  -0.490872  0  1.835354  0  0  -0.466308  0  2.074947  0  0  -0.485249  0  2.069366  0  -0.569099  0  -0.212941  -0.45254  0  2.078153  0
O  O106  1  0.44850370  0.94895058  0.85160357  1  0  -0.491923  0  1.836992  0  0  -0.466208  0  2.076294  0  0  -0.485092  0  2.070909  0  -0.574446  0  -0.213572  -0.452382  0  2.079474  0
O  O107  1  0.49983331  0.05111306  0.64807796  1  0  -0.491054  0  1.835428  0  0  -0.46638  0  2.075043  0  0  -0.485319  0  2.069462  0  -0.569122  0  -0.212906  -0.452573  0  2.078218  0
O  O108  1  0.33774875  0.90648292  0.07728146  1  0  -0.458438  0  1.746499  0  0  -0.446941  0  1.959793  0  0  -0.46144  0  1.954299  0  -0.534399  0  -0.195686  -0.436523  0  1.963399  0
O  O109  1  0.43216569  0.09369301  0.42296956  1  0  -0.456993  0  1.747118  0  0  -0.446629  0  1.96041  0  0  -0.461202  0  1.954903  0  -0.537129  0  -0.195359  -0.436282  0  1.963982  0
O  O110  1  0.66225174  0.09352036  0.92271892  1  0  -0.458411  0  1.746323  0  0  -0.446989  0  1.959691  0  0  -0.461485  0  1.954194  0  -0.534494  0  -0.195776  -0.436569  0  1.963292  0
O  O111  1  0.56784906  0.90630874  0.57703590  1  0  -0.457241  0  1.746947  0  0  -0.446785  0  1.960287  0  0  -0.461359  0  1.954782  0  -0.537174  0  -0.195377  -0.43642  0  1.963877  0
O  O112  1  0.75676448  0.94965950  0.06901015  1  0  -0.448307  0  1.77656  0  0  -0.430808  0  2.000898  0  0  -0.44764  0  1.995995  0  -0.53516  0  -0.191577  -0.418608  0  2.00394  0
O  O113  1  0.80781490  0.05027197  0.43093579  1  0  -0.449355  0  1.781378  0  0  -0.430979  0  2.004188  0  0  -0.447954  0  1.999337  0  -0.523906  0  -0.191467  -0.418806  0  2.007164  0
O  O114  1  0.24323455  0.05034836  0.93099032  1  0  -0.448519  0  1.776457  0  0  -0.430845  0  2.00062  0  0  -0.447677  0  1.995716  0  -0.535188  0  -0.191634  -0.418646  0  2.003665  0
O  O115  1  0.19217681  0.94971374  0.56907433  1  0  -0.449627  0  1.781363  0  0  -0.431116  0  2.00416  0  0  -0.448091  0  1.999306  0  -0.523829  0  -0.191506  -0.418926  0  2.007159  0
