# generated using pymatgen
data_ZnH17C22N5O6
_symmetry_space_group_name_H-M   'P 1'
_cell_length_a   8.60099033
_cell_length_b   9.40429860
_cell_length_c   14.76845743
_cell_angle_alpha   83.78073561
_cell_angle_beta   82.27982138
_cell_angle_gamma   66.81464000
_symmetry_Int_Tables_number   1
_chemical_formula_structural   ZnH17C22N5O6
_chemical_formula_sum   'Zn2 H34 C44 N10 O12'
_cell_volume   1086.11695459
_cell_formula_units_Z   2
loop_
 _symmetry_equiv_pos_site_id
 _symmetry_equiv_pos_as_xyz
  1  'x, y, z'
loop_
 _atom_site_type_symbol
 _atom_site_label
 _atom_site_symmetry_multiplicity
 _atom_site_fract_x
 _atom_site_fract_y
 _atom_site_fract_z
 _atom_site_occupancy
 _atom_site_hle17_bader_spin_density
 _atom_site_hle17_ddec_charge
 _atom_site_hle17_ddec_spin_density
 _atom_site_hle17_ddec_sum_bond_order
 _atom_site_hle17_magmom
 _atom_site_hse06_10hf_bader_spin_density
 _atom_site_hse06_10hf_ddec_charge
 _atom_site_hse06_10hf_ddec_spin_density
 _atom_site_hse06_10hf_ddec_sum_bond_order
 _atom_site_hse06_10hf_magmom
 _atom_site_hse06_bader_spin_density
 _atom_site_hse06_ddec_charge
 _atom_site_hse06_ddec_spin_density
 _atom_site_hse06_ddec_sum_bond_order
 _atom_site_hse06_magmom
 _atom_site_pbe_bader_spin_density
 _atom_site_pbe_cm5_charge
 _atom_site_pbe_ddec_charge
 _atom_site_pbe_ddec_spin_density
 _atom_site_pbe_ddec_sum_bond_order
 _atom_site_pbe_magmom
Zn  Zn0  1  0.20066441  0.25158374  0.58548343  1  0  1.014498  0  1.877417  0  0  0.82177  0  2.357457  0  0  0.867688  0  2.302395  0  0  0.705349  0.789553  0  2.396223  0
Zn  Zn1  1  0.79934125  0.74841122  0.41451482  1  0  1.014486  0  1.877323  0  0  0.821787  0  2.357343  0  0  0.867697  0  2.302286  0  0  0.705351  0.789574  0  2.396108  0
H  H2  1  0.20114695  0.55762867  0.11672541  1  0  0.126616  0  0.937616  0  0  0.131002  0  1.004865  0  0  0.135526  0  1.000462  0  0  0.11784  0.127685  0  1.008234  0
H  H3  1  0.79884465  0.44236633  0.88327670  1  0  0.126613  0  0.937659  0  0  0.130992  0  1.004917  0  0  0.135525  0  1.000502  0  0  0.117834  0.127677  0  1.008285  0
H  H4  1  0.68092362  0.18714690  0.16294625  1  0  0.112671  0  0.946331  0  0  0.119958  0  1.008859  0  0  0.123834  0  1.0055  0  0  0.113317  0.117078  0  1.011348  0
H  H5  1  0.31907883  0.81285849  0.83705018  1  0  0.112694  0  0.946301  0  0  0.119971  0  1.008839  0  0  0.123846  0  1.005481  0  0  0.113315  0.117092  0  1.011327  0
H  H6  1  0.60129651  0.20323406  0.33231277  1  0  0.096711  0  0.996438  0  0  0.101089  0  1.06637  0  0  0.103881  0  1.067003  0  0  0.102697  0.098961  0  1.066036  0
H  H7  1  0.39871171  0.79676322  0.66768578  1  0  0.096692  0  0.996489  0  0  0.101076  0  1.06641  0  0  0.103868  0  1.067043  0  0  0.102684  0.098945  0  1.06609  0
H  H8  1  0.31823312  0.05521274  0.76360654  1  0  0.097972  0  0.947393  0  0  0.107676  0  1.012608  0  0  0.109944  0  1.009598  0  0  0.137007  0.106162  0  1.014381  0
H  H9  1  0.68176798  0.94479034  0.23639287  1  0  0.098064  0  0.947291  0  0  0.107693  0  1.012585  0  0  0.109959  0  1.009577  0  0  0.137013  0.106179  0  1.014357  0
H  H10  1  0.49442982  0.38680426  0.62203688  1  0  0.121467  0  0.970834  0  0  0.1247  0  1.039299  0  0  0.128727  0  1.036665  0  0  0.119196  0.121903  0  1.040806  0
H  H11  1  0.50557411  0.61319766  0.37796170  1  0  0.121501  0  0.970882  0  0  0.124718  0  1.039354  0  0  0.128746  0  1.036717  0  0  0.119192  0.121919  0  1.040862  0
H  H12  1  0.67575144  0.25767085  0.77464565  1  0  0.126149  0  0.965928  0  0  0.133604  0  1.029676  0  0  0.136241  0  1.028762  0  0  0.123189  0.131614  0  1.030564  0
H  H13  1  0.32425510  0.74232759  0.22535161  1  0  0.126192  0  0.965874  0  0  0.133644  0  1.029622  0  0  0.136283  0  1.028709  0  0  0.123204  0.131653  0  1.03051  0
H  H14  1  0.48413600  0.97498602  0.89747121  1  0  0.079361  0  0.932319  0  0  0.091961  0  1.001867  0  0  0.091986  0  1.002211  0  0  0.111541  0.091969  0  1.001536  0
H  H15  1  0.51586364  0.02502054  0.10252807  1  0  0.079351  0  0.932329  0  0  0.091963  0  1.001864  0  0  0.09199  0  1.002209  0  0  0.111564  0.09197  0  1.001536  0
H  H16  1  0.58711257  0.09439131  0.92367377  1  0  0.095753  0  0.968723  0  0  0.1061  0  1.036659  0  0  0.107851  0  1.034333  0  0  0.11256  0.104895  0  1.038392  0
H  H17  1  0.41288824  0.90561524  0.07632541  1  0  0.095832  0  0.968674  0  0  0.106167  0  1.036624  0  0  0.107919  0  1.0343  0  0  0.112588  0.104966  0  1.03835  0
H  H18  1  0.79337601  0.83761232  0.99211640  1  0  0.094213  0  0.939667  0  0  0.109681  0  0.991993  0  0  0.112446  0  0.991261  0  0  0.101971  0.107698  0  0.992581  0
H  H19  1  0.20662668  0.16239538  0.00788390  1  0  0.094211  0  0.939701  0  0  0.109706  0  0.991994  0  0  0.112465  0  0.99127  0  0  0.101968  0.107722  0  0.992582  0
H  H20  1  0.07498864  0.62534751  0.95988232  1  0  0.097  0  0.95364  0  0  0.108298  0  1.011712  0  0  0.110934  0  1.01027  0  0  0.102207  0.106412  0  1.012841  0
H  H21  1  0.92501407  0.37466020  0.04011934  1  0  0.097022  0  0.953639  0  0  0.108319  0  1.011709  0  0  0.110954  0  1.010268  0  0  0.10225  0.106432  0  1.012837  0
H  H22  1  0.19744092  0.56869481  0.79949183  1  0  0.098354  0  0.94751  0  0  0.109845  0  1.007106  0  0  0.112412  0  1.007126  0  0  0.101114  0.108287  0  1.006598  0
H  H23  1  0.80255971  0.43130943  0.20050888  1  0  0.098305  0  0.947514  0  0  0.109795  0  1.007121  0  0  0.112382  0  1.007113  0  0  0.101099  0.108234  0  1.006618  0
H  H24  1  0.74916626  0.92666315  0.70211655  1  0  0.095922  0  0.965851  0  0  0.10451  0  1.03445  0  0  0.107463  0  1.033678  0  0  0.101271  0.102306  0  1.035142  0
H  H25  1  0.25083229  0.07333762  0.29788322  1  0  0.095942  0  0.965864  0  0  0.104528  0  1.034461  0  0  0.107481  0  1.033688  0  0  0.101277  0.102325  0  1.035152  0
H  H26  1  0.15917051  0.60535794  0.63657115  1  0  0.097554  0  0.917312  0  0  0.110977  0  0.98101  0  0  0.112538  0  0.979461  0  0  0.116159  0.10938  0  0.982653  0
H  H27  1  0.84082452  0.39464284  0.36342891  1  0  0.097524  0  0.9174  0  0  0.110932  0  0.981076  0  0  0.112492  0  0.979528  0  0  0.116142  0.109335  0  0.982719  0
H  H28  1  0.95698587  0.72303286  0.60074017  1  0  0.106679  0  0.946646  0  0  0.117822  0  1.011258  0  0  0.120062  0  1.009225  0  0  0.113219  0.116121  0  1.012483  0
H  H29  1  0.04301103  0.27696908  0.39926102  1  0  0.106667  0  0.94663  0  0  0.117792  0  1.011239  0  0  0.120035  0  1.009201  0  0  0.113219  0.11609  0  1.012463  0
H  H30  1  0.27211642  0.71185810  0.48559701  1  0  0.138685  0  0.990272  0  0  0.145809  0  1.053096  0  0  0.149493  0  1.050878  0  0  0.125301  0.143002  0  1.054862  0
H  H31  1  0.72787671  0.28814153  0.51440059  1  0  0.138741  0  0.990163  0  0  0.145838  0  1.052997  0  0  0.149525  0  1.050783  0  0  0.125285  0.14303  0  1.054763  0
H  H32  1  0.35014977  0.97792374  0.45308988  1  0  0.106113  0  0.959841  0  0  0.115378  0  1.021321  0  0  0.118028  0  1.020198  0  0  0.115602  0.11339  0  1.022408  0
H  H33  1  0.64984786  0.02207357  0.54690819  1  0  0.106089  0  0.95978  0  0  0.11534  0  1.021282  0  0  0.117991  0  1.02016  0  0  0.115594  0.113352  0  1.022369  0
H  H34  1  0.01997266  0.02125705  0.69593317  1  0  0.106017  0  0.963722  0  0  0.11256  0  1.030694  0  0  0.115185  0  1.028108  0  0  0.132442  0.110748  0  1.032357  0
H  H35  1  0.98003177  0.97874371  0.30406680  1  0  0.105995  0  0.963739  0  0  0.112534  0  1.030714  0  0  0.115159  0  1.028128  0  0  0.132424  0.110723  0  1.032377  0
C  C36  1  0.35696154  0.38777122  0.31909979  1  0  0.001971  0  3.639821  0  0  0.010395  0  3.873029  0  0  0.011865  0  3.889123  0  0  0.016823  0.008952  0  3.862006  0
C  C37  1  0.64304111  0.61222260  0.68090082  1  0  0.001957  0  3.63974  0  0  0.010434  0  3.87291  0  0  0.011904  0  3.889004  0  0  0.016837  0.008978  0  3.86187  0
C  C38  1  0.24559649  0.49129095  0.25810274  1  0  -0.06877  0  3.703356  0  0  -0.050161  0  3.934367  0  0  -0.058886  0  3.955914  0  0  -0.005926  -0.044627  0  3.920154  0
C  C39  1  0.75439920  0.50869710  0.74189885  1  0  -0.068843  0  3.703295  0  0  -0.050225  0  3.934352  0  0  -0.058948  0  3.955898  0  0  -0.005937  -0.044645  0  3.920073  0
C  C40  1  0.28810746  0.47938310  0.16390375  1  0  -0.080868  0  3.689287  0  0  -0.121729  0  3.952827  0  0  -0.118255  0  3.969618  0  0  -0.064015  -0.124103  0  3.942165  0
C  C41  1  0.71189326  0.52061535  0.83609804  1  0  -0.080754  0  3.68919  0  0  -0.121599  0  3.952759  0  0  -0.118131  0  3.969535  0  0  -0.063968  -0.123993  0  3.942093  0
C  C42  1  0.44168622  0.36595294  0.13171827  1  0  0.056317  0  3.737383  0  0  0.047503  0  4.002084  0  0  0.042384  0  4.025814  0  0  0.072728  0.050533  0  3.986127  0
C  C43  1  0.55831418  0.63404899  0.86828060  1  0  0.056275  0  3.737504  0  0  0.047418  0  4.002265  0  0  0.0423  0  4.025997  0  0  0.072703  0.050447  0  3.986311  0
C  C44  1  0.55882537  0.26902755  0.19106183  1  0  -0.092017  0  3.74756  0  0  -0.122636  0  4.015366  0  0  -0.11993  0  4.032402  0  0  -0.078842  -0.123944  0  4.002685  0
C  C45  1  0.44117767  0.73097089  0.80893774  1  0  -0.09203  0  3.747627  0  0  -0.122618  0  4.015452  0  0  -0.119912  0  4.03249  0  0  -0.078825  -0.123926  0  4.002769  0
C  C46  1  0.51461113  0.28014317  0.28453634  1  0  -0.087513  0  3.723474  0  0  -0.108569  0  3.980113  0  0  -0.113116  0  3.999977  0  0  -0.085892  -0.104915  0  3.965347  0
C  C47  1  0.48539026  0.71985644  0.71546328  1  0  -0.087513  0  3.723309  0  0  -0.108581  0  3.97994  0  0  -0.113129  0  3.999805  0  0  -0.085887  -0.10493  0  3.965179  0
C  C48  1  0.31665450  0.38607855  0.42169758  1  0  0.664105  0  3.939141  0  0  0.607151  0  4.247203  0  0  0.641915  0  4.236949  0  0  0.211423  0.583273  0  4.253443  0
C  C49  1  0.68335236  0.61391642  0.57830260  1  0  0.664327  0  3.938919  0  0  0.607312  0  4.247063  0  0  0.642078  0  4.23681  0  0  0.211456  0.583447  0  4.253281  0
C  C50  1  0.08100306  0.61694567  0.29182909  1  0  0.637051  0  3.935589  0  0  0.587667  0  4.228821  0  0  0.62134  0  4.222792  0  0  0.200812  0.56487  0  4.232022  0
C  C51  1  0.91899088  0.38303543  0.70817584  1  0  0.637047  0  3.936013  0  0  0.587581  0  4.229348  0  0  0.621258  0  4.223317  0  0  0.200948  0.564772  0  4.232543  0
C  C52  1  0.39151474  0.12653897  0.74417117  1  0  0.16208  0  3.670257  0  0  0.100129  0  3.931969  0  0  0.113985  0  3.944733  0  0  0.143848  0.091309  0  3.922566  0
C  C53  1  0.60848588  0.87346527  0.25582955  1  0  0.161845  0  3.670289  0  0  0.099952  0  3.93201  0  0  0.11381  0  3.94477  0  0  0.14379  0.091132  0  3.922608  0
C  C54  1  0.48462130  0.29911281  0.67423065  1  0  -0.001463  0  3.715739  0  0  -0.032045  0  3.981156  0  0  -0.030585  0  3.999965  0  0  0.000804  -0.032571  0  3.967717  0
C  C55  1  0.51537979  0.70089027  0.32576808  1  0  -0.001525  0  3.715839  0  0  -0.032075  0  3.981238  0  0  -0.030617  0  4.000048  0  0  0.000833  -0.0326  0  3.967796  0
C  C56  1  0.57481839  0.23684772  0.74888835  1  0  -0.053779  0  3.63472  0  0  -0.096141  0  3.893147  0  0  -0.095399  0  3.912876  0  0  0.005093  -0.096902  0  3.879717  0
C  C57  1  0.42518552  0.76315419  0.25110955  1  0  -0.05379  0  3.634746  0  0  -0.09615  0  3.89314  0  0  -0.095412  0  3.912872  0  0  0.005093  -0.09691  0  3.879708  0
C  C58  1  0.57910295  0.02443802  0.87088415  1  0  -0.047805  0  3.654843  0  0  -0.113942  0  3.904983  0  0  -0.109663  0  3.915989  0  0  -0.047305  -0.116962  0  3.897507  0
C  C59  1  0.42089649  0.97556623  0.12911531  1  0  -0.047852  0  3.654821  0  0  -0.113999  0  3.904979  0  0  -0.109733  0  3.916002  0  0  -0.047364  -0.117021  0  3.897505  0
C  C60  1  0.75167419  0.89722694  0.84912312  1  0  0.070507  0  3.760148  0  0  0.092736  0  3.999944  0  0  0.091474  0  4.026328  0  0  -0.01576  0.09374  0  3.981542  0
C  C61  1  0.24832692  0.10277615  0.15087696  1  0  0.0704  0  3.760207  0  0  0.092647  0  3.999995  0  0  0.091387  0  4.026378  0  0  -0.015788  0.093649  0  3.981596  0
C  C62  1  0.84488828  0.81147647  0.92141547  1  0  -0.116991  0  3.741064  0  0  -0.140505  0  3.987733  0  0  -0.144403  0  4.011214  0  0  -0.093473  -0.137544  0  3.971326  0
C  C63  1  0.15511137  0.18853009  0.07858516  1  0  -0.116926  0  3.740985  0  0  -0.140464  0  3.987643  0  0  -0.144355  0  4.011124  0  0  -0.093392  -0.137502  0  3.971235  0
C  C64  1  0.00330347  0.69248912  0.90356939  1  0  -0.05192  0  3.770431  0  0  -0.063882  0  4.020509  0  0  -0.065581  0  4.043217  0  0  -0.087761  -0.062569  0  4.004884  0
C  C65  1  0.99669639  0.30751975  0.09643174  1  0  -0.052008  0  3.770489  0  0  -0.06397  0  4.020582  0  0  -0.06567  0  4.043293  0  0  -0.08787  -0.062656  0  4.004956  0
C  C66  1  0.07241554  0.66055627  0.81326374  1  0  -0.117091  0  3.729561  0  0  -0.138696  0  3.974739  0  0  -0.142469  0  3.997812  0  0  -0.090953  -0.136076  0  3.959039  0
C  C67  1  0.92758647  0.33945028  0.18673670  1  0  -0.116983  0  3.729573  0  0  -0.138582  0  3.974765  0  0  -0.142368  0  3.997836  0  0  -0.09094  -0.135963  0  3.959063  0
C  C68  1  0.98196118  0.74677422  0.74050403  1  0  0.074348  0  3.771956  0  0  0.095937  0  4.012547  0  0  0.095452  0  4.037713  0  0  -0.012291  0.095959  0  3.995582  0
C  C69  1  0.01804042  0.25322770  0.25949677  1  0  0.074392  0  3.771875  0  0  0.095913  0  4.012527  0  0  0.095423  0  4.037707  0  0  -0.012289  0.095936  0  3.995562  0
C  C70  1  0.82042477  0.86265507  0.75929863  1  0  -0.166513  0  3.721605  0  0  -0.194618  0  3.968437  0  0  -0.198496  0  3.990958  0  0  -0.093128  -0.191681  0  3.95279  0
C  C71  1  0.17957379  0.13734570  0.24070183  1  0  -0.166542  0  3.721605  0  0  -0.194633  0  3.968445  0  0  -0.19851  0  3.990964  0  0  -0.093126  -0.191698  0  3.952801  0
C  C72  1  0.05511491  0.71930813  0.64259993  1  0  -0.048881  0  3.616591  0  0  -0.114732  0  3.861551  0  0  -0.110395  0  3.870308  0  0  -0.04942  -0.116877  0  3.855075  0
C  C73  1  0.94488316  0.28069381  0.35740048  1  0  -0.048808  0  3.616636  0  0  -0.11456  0  3.861488  0  0  -0.110214  0  3.870229  0  0  -0.049372  -0.116705  0  3.855014  0
C  C74  1  0.23175808  0.81679751  0.52199542  1  0  -0.060222  0  3.63675  0  0  -0.101159  0  3.892652  0  0  -0.099946  0  3.91119  0  0  0.003045  -0.101886  0  3.880622  0
C  C75  1  0.76823907  0.18320095  0.47800261  1  0  -0.060316  0  3.636935  0  0  -0.101176  0  3.89277  0  0  -0.09997  0  3.911314  0  0  0.003052  -0.101903  0  3.880742  0
C  C76  1  0.26922942  0.94700837  0.50748562  1  0  -0.001983  0  3.74163  0  0  -0.035747  0  4.009699  0  0  -0.034186  0  4.029294  0  0  -0.007779  -0.03704  0  3.996992  0
C  C77  1  0.73076821  0.05298893  0.49251177  1  0  -0.001846  0  3.741598  0  0  -0.035599  0  4.009657  0  0  -0.034043  0  4.029259  0  0  -0.007726  -0.036893  0  3.996952  0
C  C78  1  0.09868122  0.97379266  0.63418496  1  0  0.140606  0  3.670965  0  0  0.080172  0  3.934735  0  0  0.092672  0  3.948815  0  0  0.133722  0.07238  0  3.924925  0
C  C79  1  0.90132113  0.02620463  0.36581475  1  0  0.140699  0  3.670947  0  0  0.080278  0  3.934739  0  0  0.092778  0  3.948819  0  0  0.133765  0.072485  0  3.92493  0
N  N80  1  0.48054602  0.34300889  0.03421741  1  0  0.494352  0  3.912132  0  0  0.519591  0  4.217033  0  0  0.541036  0  4.225249  0  0  0.046938  0.505243  0  4.211599  0
N  N81  1  0.51945175  0.65699652  0.96578143  1  0  0.494361  0  3.912058  0  0  0.519616  0  4.216979  0  0  0.541063  0  4.225194  0  0  0.046974  0.505268  0  4.211544  0
N  N82  1  0.37115784  0.22839334  0.67223410  1  0  -0.388879  0  3.334346  0  0  -0.30744  0  3.635589  0  0  -0.326339  0  3.645917  0  0  -0.360511  -0.294697  0  3.628891  0
N  N83  1  0.62884327  0.77160974  0.32776598  1  0  -0.388774  0  3.33439  0  0  -0.307358  0  3.635615  0  0  -0.326258  0  3.645944  0  0  -0.360516  -0.294616  0  3.628916  0
N  N84  1  0.51381994  0.12832622  0.79221435  1  0  -0.053521  0  3.594977  0  0  0.040903  0  3.810002  0  0  0.026434  0  3.8358  0  0  -0.242001  0.050474  0  3.792497  0
N  N85  1  0.48618184  0.87167802  0.20778424  1  0  -0.053428  0  3.594925  0  0  0.04101  0  3.809919  0  0  0.026545  0  3.835718  0  0  -0.241972  0.05058  0  3.792417  0
N  N86  1  0.12455645  0.83556085  0.60228582  1  0  -0.050984  0  3.543714  0  0  0.045586  0  3.756778  0  0  0.030881  0  3.783288  0  0  -0.236785  0.055123  0  3.738894  0
N  N87  1  0.87544140  0.16443876  0.39771342  1  0  -0.051088  0  3.54383  0  0  0.045434  0  3.756875  0  0  0.030727  0  3.783386  0  0  -0.236814  0.05497  0  3.738992  0
N  N88  1  0.18547882  0.04407356  0.57775234  1  0  -0.400625  0  3.326326  0  0  -0.319874  0  3.628805  0  0  -0.339499  0  3.640983  0  0  -0.367121  -0.306662  0  3.620478  0
N  N89  1  0.81452400  0.95592257  0.42224539  1  0  -0.4007  0  3.326292  0  0  -0.319989  0  3.628814  0  0  -0.339613  0  3.640991  0  0  -0.367165  -0.30678  0  3.62049  0
O  O90  1  0.27183118  0.27305547  0.45417554  1  0  -0.646665  0  2.079562  0  0  -0.568974  0  2.357926  0  0  -0.598887  0  2.34188  0  0  -0.325507  -0.547316  0  2.368001  0
O  O91  1  0.72818399  0.72693369  0.54582504  1  0  -0.646727  0  2.079418  0  0  -0.569056  0  2.357852  0  0  -0.598947  0  2.341766  0  0  -0.325522  -0.547403  0  2.367921  0
O  O92  1  0.33906777  0.47963076  0.46656551  1  0  -0.584923  0  1.930351  0  0  -0.538585  0  2.154587  0  0  -0.563955  0  2.147012  0  0  -0.300011  -0.520114  0  2.15922  0
O  O93  1  0.66093809  0.52036652  0.53343256  1  0  -0.585087  0  1.930281  0  0  -0.538704  0  2.154536  0  0  -0.564078  0  2.146964  0  0  -0.300063  -0.520237  0  2.159163  0
O  O94  1  0.01464554  0.58422168  0.37128471  1  0  -0.627654  0  2.058161  0  0  -0.547041  0  2.323994  0  0  -0.5757  0  2.309444  0  0  -0.318301  -0.527464  0  2.333575  0
O  O95  1  0.98535500  0.41576056  0.62872298  1  0  -0.62763  0  2.05852  0  0  -0.546993  0  2.324414  0  0  -0.575671  0  2.309888  0  0  -0.318274  -0.527416  0  2.333997  0
O  O96  1  0.02221947  0.74033548  0.24361036  1  0  -0.616899  0  1.877789  0  0  -0.575455  0  2.09006  0  0  -0.597885  0  2.081638  0  0  -0.332671  -0.559708  0  2.095083  0
O  O97  1  0.97775421  0.25964914  0.75639463  1  0  -0.616898  0  1.877904  0  0  -0.575427  0  2.090226  0  0  -0.597855  0  2.081802  0  0  -0.332831  -0.559683  0  2.095255  0
O  O98  1  0.37205503  0.42114922  0.98148237  1  0  -0.367192  0  1.746701  0  0  -0.352158  0  1.959638  0  0  -0.362899  0  1.956891  0  0  -0.133107  -0.345462  0  1.961684  0
O  O99  1  0.62794372  0.57885387  0.01851723  1  0  -0.367228  0  1.746589  0  0  -0.352179  0  1.959493  0  0  -0.36292  0  1.956747  0  0  -0.133126  -0.345484  0  1.961539  0
O  O100  1  0.62126053  0.24230958  0.00786424  1  0  -0.379936  0  1.750821  0  0  -0.356448  0  1.954732  0  0  -0.367231  0  1.949601  0  0  -0.138669  -0.349921  0  1.958549  0
O  O101  1  0.37874027  0.75769697  0.99213359  1  0  -0.379906  0  1.750772  0  0  -0.356424  0  1.954695  0  0  -0.367207  0  1.949561  0  0  -0.138674  -0.349899  0  1.958514  0
