# generated using pymatgen
data_Cu2H6C4IN3O2
_symmetry_space_group_name_H-M   'P 1'
_cell_length_a   15.28494330
_cell_length_b   15.28516943
_cell_length_c   15.28523474
_cell_angle_alpha   68.42185517
_cell_angle_beta   74.66498566
_cell_angle_gamma   111.57759160
_symmetry_Int_Tables_number   1
_chemical_formula_structural   Cu2H6C4IN3O2
_chemical_formula_sum   'Cu16 H48 C32 I8 N24 O16'
_cell_volume   2738.43159252
_cell_formula_units_Z   8
loop_
 _symmetry_equiv_pos_site_id
 _symmetry_equiv_pos_as_xyz
  1  'x, y, z'
loop_
 _atom_site_type_symbol
 _atom_site_label
 _atom_site_symmetry_multiplicity
 _atom_site_fract_x
 _atom_site_fract_y
 _atom_site_fract_z
 _atom_site_occupancy
 _atom_site_pbe_bader_charge
 _atom_site_pbe_bader_spin_density
 _atom_site_pbe_cm5_charge
 _atom_site_pbe_ddec_charge
 _atom_site_pbe_ddec_spin_density
 _atom_site_pbe_ddec_sum_bond_order
 _atom_site_pbe_magmom
Cu  Cu0  1  0.75007776  0.81257378  0.08522447  1  0.391365  0  0.25215  0.136449  0  2.758465  0
Cu  Cu1  1  0.43750989  0.33530915  0.74991746  1  0.392219  0  0.252176  0.136537  0  2.758355  0
Cu  Cu2  1  0.41477889  0.16469831  0.89781664  1  0.392331  0  0.252104  0.136319  0  2.758616  0
Cu  Cu3  1  0.60217866  0.68740392  0.06251344  1  0.391919  0  0.25214  0.136346  0  2.758502  0
Cu  Cu4  1  0.24992240  0.18742320  0.91476762  1  0.391424  0  0.252163  0.136452  0  2.758399  0
Cu  Cu5  1  0.56250365  0.66469246  0.25008424  1  0.392046  0  0.25213  0.136446  0  2.758494  0
Cu  Cu6  1  0.58522294  0.83530267  0.10219785  1  0.392447  0  0.25214  0.136404  0  2.758464  0
Cu  Cu7  1  0.39780910  0.31259095  0.93749325  1  0.39195  0  0.252129  0.136377  0  2.758542  0
Cu  Cu8  1  0.76745849  0.67578040  0.29672159  1  0.568136  0  0.456989  0.288567  0  2.22631  0
Cu  Cu9  1  0.59168499  0.56418135  0.73254374  1  0.568181  0  0.456989  0.28859  0  2.226472  0
Cu  Cu10  1  0.20328243  0.93582664  0.97250224  1  0.565544  0  0.457003  0.288598  0  2.226341  0
Cu  Cu11  1  0.52750479  0.82422565  0.90832092  1  0.567765  0  0.457048  0.288669  0  2.226393  0
Cu  Cu12  1  0.23254256  0.32421747  0.70327383  1  0.568154  0  0.457016  0.288574  0  2.226263  0
Cu  Cu13  1  0.40832257  0.43582302  0.26745221  1  0.568146  0  0.457001  0.28861  0  2.226443  0
Cu  Cu14  1  0.79671827  0.06417721  0.02749717  1  0.565541  0  0.456968  0.288583  0  2.226283  0
Cu  Cu15  1  0.47249241  0.17577549  0.09168015  1  0.567653  0  0.45702  0.288668  0  2.226367  0
H  H16  1  0.95613781  0.96325713  0.87307827  1  0.058308  0  0.082568  0.068132  0  1.039986  0
H  H17  1  0.49288283  0.32921745  0.54386254  1  0.050123  0  0.082584  0.068136  0  1.039977  0
H  H18  1  0.62693819  0.17080034  0.83632580  1  0.059524  0  0.082585  0.068127  0  1.039916  0
H  H19  1  0.66366702  0.53673775  0.00712857  1  0.06971  0  0.082596  0.068103  0  1.039992  0
H  H20  1  0.04386375  0.03674521  0.12691733  1  0.058335  0  0.082575  0.068111  0  1.039989  0
H  H21  1  0.50712068  0.67078683  0.45613463  1  0.0501  0  0.082578  0.068114  0  1.039955  0
H  H22  1  0.37306437  0.82920696  0.16367441  1  0.059558  0  0.082593  0.068124  0  1.039889  0
H  H23  1  0.33632981  0.46326381  0.99287244  1  0.069747  0  0.082608  0.068123  0  1.039972  0
H  H24  1  0.09204752  0.03596260  0.84691473  1  0.074804  0  0.083179  0.05896  0  1.067503  0
H  H25  1  0.55608557  0.43896517  0.40795571  1  0.067169  0  0.083142  0.058934  0  1.067591  0
H  H26  1  0.65310022  0.06105018  0.88286944  1  0.07026  0  0.083143  0.058888  0  1.067546  0
H  H27  1  0.61712537  0.46403525  0.94392375  1  0.071248  0  0.083124  0.058888  0  1.067605  0
H  H28  1  0.90795250  0.96403899  0.15308058  1  0.074825  0  0.083145  0.058914  0  1.067556  0
H  H29  1  0.44391655  0.56103930  0.59204200  1  0.066618  0  0.083136  0.058906  0  1.0676  0
H  H30  1  0.34690190  0.93895430  0.11712827  1  0.070076  0  0.08316  0.058883  0  1.067567  0
H  H31  1  0.38287172  0.53596657  0.05607771  1  0.071431  0  0.083161  0.058912  0  1.067508  0
H  H32  1  0.09403939  0.82973236  0.21142418  1  0.039498  0  0.082333  0.05685  0  1.036039  0
H  H33  1  0.76430430  0.80546190  0.40596258  1  0.043655  0  0.082338  0.056847  0  1.036023  0
H  H34  1  0.28858351  0.69455207  0.04115651  1  0.051179  0  0.082361  0.056878  0  1.036056  0
H  H35  1  0.45883951  0.67026095  0.73570457  1  0.04376  0  0.082317  0.056816  0  1.036045  0
H  H36  1  0.90595596  0.17026059  0.78857089  1  0.039365  0  0.082307  0.056802  0  1.036167  0
H  H37  1  0.23570066  0.19453988  0.59403245  1  0.044534  0  0.082336  0.056814  0  1.036062  0
H  H38  1  0.71141847  0.30545305  0.95884866  1  0.051086  0  0.082338  0.056859  0  1.036052  0
H  H39  1  0.54115639  0.32973412  0.26429614  1  0.043713  0  0.08233  0.056851  0  1.036093  0
H  H40  1  0.96049737  0.71561959  0.30153560  1  0.083874  0  0.101137  0.079182  0  1.008555  0
H  H41  1  0.74488015  0.76203598  0.53950280  1  0.101916  0  0.101122  0.079152  0  1.008584  0
H  H42  1  0.19846931  0.73798047  0.01715091  1  0.107013  0  0.1011  0.079169  0  1.008599  0
H  H43  1  0.48284133  0.78437900  0.75512747  1  0.096103  0  0.101141  0.07922  0  1.008531  0
H  H44  1  0.03949985  0.28437681  0.69846027  1  0.083667  0  0.101145  0.079219  0  1.008542  0
H  H45  1  0.25512885  0.23796507  0.46049217  1  0.10146  0  0.101103  0.079159  0  1.008582  0
H  H46  1  0.80153083  0.26202202  0.98285230  1  0.107635  0  0.101133  0.079194  0  1.008578  0
H  H47  1  0.51715140  0.21561609  0.24487188  1  0.096127  0  0.101119  0.079175  0  1.008525  0
H  H48  1  0.07828435  0.94481742  0.75576399  1  0.577506  0  0.315114  0.341577  0  0.911243  0
H  H49  1  0.63346532  0.33404256  0.42172117  1  0.584469  0  0.315073  0.341537  0  0.911185  0
H  H50  1  0.74424983  0.16596226  0.70057227  1  0.575295  0  0.315056  0.341557  0  0.911138  0
H  H51  1  0.79942079  0.55517266  0.86653806  1  0.584372  0  0.315067  0.341474  0  0.911183  0
H  H52  1  0.92171394  0.05518164  0.24423488  1  0.577507  0  0.315088  0.341528  0  0.911315  0
H  H53  1  0.36653181  0.66595216  0.57828409  1  0.584404  0  0.315062  0.341523  0  0.911224  0
H  H54  1  0.25575176  0.83403295  0.29943067  1  0.575289  0  0.315072  0.34158  0  0.9111  0
H  H55  1  0.20057378  0.44482506  0.13346325  1  0.584051  0  0.315056  0.34148  0  0.911108  0
H  H56  1  0.07033761  0.65012485  0.26327442  1  0.578517  0  0.32144  0.345281  0  0.902216  0
H  H57  1  0.92021312  0.83361435  0.42965993  1  0.580977  0  0.321411  0.345228  0  0.902339  0
H  H58  1  0.23673015  0.66639695  0.91340483  1  0.594537  0  0.321486  0.345328  0  0.90222  0
H  H59  1  0.58659242  0.84986361  0.57980055  1  0.58208  0  0.32148  0.345301  0  0.902187  0
H  H60  1  0.92965856  0.34986653  0.73672745  1  0.578503  0  0.321442  0.345288  0  0.902175  0
H  H61  1  0.07979450  0.16638293  0.57033628  1  0.580897  0  0.321443  0.345234  0  0.902309  0
H  H62  1  0.76327048  0.33360524  0.08660043  1  0.594588  0  0.32148  0.345333  0  0.902213  0
H  H63  1  0.41340348  0.15013146  0.42020016  1  0.581853  0  0.321475  0.345327  0  0.902181  0
C  C64  1  0.02223235  0.95415122  0.88143865  1  0.45956  0  -0.082244  -0.018488  0  3.956663  0
C  C65  1  0.56808359  0.40367411  0.47776796  1  0.464056  0  -0.082278  -0.018524  0  3.956714  0
C  C66  1  0.61857692  0.09633808  0.83558204  1  0.426161  0  -0.0822  -0.018342  0  3.956318  0
C  C67  1  0.66441208  0.54584254  0.93192547  1  0.439587  0  -0.082122  -0.018233  0  3.956659  0
C  C68  1  0.97776943  0.04584975  0.11855617  1  0.459546  0  -0.08222  -0.0184  0  3.956642  0
C  C69  1  0.43191890  0.59632994  0.52222981  1  0.464712  0  -0.082206  -0.018335  0  3.956587  0
C  C70  1  0.38142449  0.90366409  0.16441864  1  0.426133  0  -0.08219  -0.018312  0  3.956219  0
C  C71  1  0.33558344  0.45415772  0.06807685  1  0.43892  0  -0.082206  -0.018345  0  3.956411  0
C  C72  1  0.02678517  0.75902491  0.22157827  1  0.45053  0  -0.0745  -0.019145  0  3.970142  0
C  C73  1  0.76776189  0.74836594  0.47321666  1  0.436104  0  -0.074447  -0.01909  0  3.969995  0
C  C74  1  0.27842654  0.75164757  0.98060179  1  0.434247  0  -0.074559  -0.01929  0  3.97004  0
C  C75  1  0.51939259  0.74097151  0.73224822  1  0.434306  0  -0.074543  -0.019221  0  3.969907  0
C  C76  1  0.97321007  0.24096873  0.77841718  1  0.451122  0  -0.074459  -0.019118  0  3.970112  0
C  C77  1  0.23224546  0.25163504  0.52677840  1  0.435807  0  -0.074492  -0.019092  0  3.969898  0
C  C78  1  0.72157281  0.24835413  0.01940362  1  0.433435  0  -0.074549  -0.019275  0  3.970352  0
C  C79  1  0.48060144  0.25902487  0.26775336  1  0.4343  0  -0.0745  -0.019235  0  3.970019  0
C  C80  1  0.98908022  0.88737335  0.99602015  1  0.985465  0  0.216399  0.318036  0  3.908698  0
C  C81  1  0.60171108  0.48510112  0.51092283  1  0.995746  0  0.216489  0.318125  0  3.908664  0
C  C82  1  0.50399331  0.01491951  0.88338849  1  1.015807  0  0.216456  0.318023  0  3.908707  0
C  C83  1  0.61660426  0.61262011  0.89831069  1  0.994651  0  0.216384  0.317949  0  3.908921  0
C  C84  1  0.01091980  0.11262824  0.00397516  1  0.985488  0  0.216364  0.318107  0  3.908639  0
C  C85  1  0.39829790  0.51490388  0.48907142  1  0.995716  0  0.216368  0.317928  0  3.908833  0
C  C86  1  0.49601087  0.98509099  0.11661207  1  1.016306  0  0.216447  0.318104  0  3.908593  0
C  C87  1  0.38339087  0.38737974  0.10169273  1  0.994857  0  0.216473  0.3181  0  3.90871  0
C  C88  1  0.99143252  0.80159861  0.14220121  1  1.000933  0  0.20896  0.298646  0  3.939365  0
C  C89  1  0.68983757  0.63363499  0.50856808  1  0.994607  0  0.209009  0.298679  0  3.939443  0
C  C90  1  0.35781019  0.86637934  0.94379489  1  0.975866  0  0.209067  0.298872  0  3.93911  0
C  C91  1  0.55620014  0.69839485  0.81017282  1  0.993006  0  0.20899  0.298661  0  3.939287  0
C  C92  1  0.00856624  0.19839854  0.85779495  1  1.00077  0  0.208922  0.298567  0  3.939314  0
C  C93  1  0.31016803  0.36636742  0.49142984  1  0.994397  0  0.208973  0.298627  0  3.939366  0
C  C94  1  0.64219553  0.13362794  0.05620668  1  0.976073  0  0.209003  0.298734  0  3.939268  0
C  C95  1  0.44379444  0.30160287  0.18982849  1  0.992912  0  0.20903  0.298881  0  3.939167  0
I  I96  1  0.74719157  0.92499286  0.91140575  1  -0.375286  0  -0.137835  -0.270296  0  2.147034  0
I  I97  1  0.32220515  0.15859798  0.75280785  1  -0.373805  0  -0.137779  -0.270251  0  2.146969  0
I  I98  1  0.58860147  0.34141050  0.83640408  1  -0.375528  0  -0.137816  -0.270304  0  2.147178  0
I  I99  1  0.66359688  0.57499710  0.17781340  1  -0.372361  0  -0.137806  -0.270285  0  2.147077  0
I  I100  1  0.25281436  0.07501226  0.08859267  1  -0.375356  0  -0.137826  -0.270278  0  2.147165  0
I  I101  1  0.67780303  0.84140225  0.24719285  1  -0.373734  0  -0.137812  -0.27032  0  2.147072  0
I  I102  1  0.41139860  0.65859032  0.16360498  1  -0.375591  0  -0.13782  -0.27031  0  2.147174  0
I  I103  1  0.33639670  0.42499723  0.82219159  1  -0.372421  0  -0.137819  -0.270306  0  2.146991  0
N  N104  1  0.88904640  0.82844253  0.07300693  1  -0.757828  0  -0.283449  -0.17111  0  3.518918  0
N  N105  1  0.56060899  0.46205709  0.61095436  1  -0.763091  0  -0.283565  -0.17123  0  3.519183  0
N  N106  1  0.42700768  0.03795229  0.90144849  1  -0.745359  0  -0.283459  -0.171074  0  3.519431  0
N  N107  1  0.59854648  0.67154590  0.93939932  1  -0.74679  0  -0.28344  -0.171  0  3.519422  0
N  N108  1  0.11095537  0.17155844  0.92698790  1  -0.757816  0  -0.283448  -0.171195  0  3.518852  0
N  N109  1  0.43939409  0.53794199  0.38904932  1  -0.763213  0  -0.283438  -0.171071  0  3.519263  0
N  N110  1  0.57299558  0.96204855  0.09855486  1  -0.745193  0  -0.283487  -0.171181  0  3.519243  0
N  N111  1  0.40144474  0.32845005  0.06060449  1  -0.747442  0  -0.283489  -0.171157  0  3.519521  0
N  N112  1  0.89064375  0.77327054  0.16576899  1  -0.756453  0  -0.31148  -0.205305  0  3.672955  0
N  N113  1  0.61737707  0.55641710  0.60935627  1  -0.763605  0  -0.311457  -0.205298  0  3.67319  0
N  N114  1  0.33423763  0.94360074  0.93904015  1  -0.760678  0  -0.311492  -0.20538  0  3.672723  0
N  N115  1  0.56095266  0.72672168  0.88263899  1  -0.764744  0  -0.311435  -0.205292  0  3.672818  0
N  N116  1  0.10935081  0.22672162  0.83422827  1  -0.756452  0  -0.311468  -0.205195  0  3.672917  0
N  N117  1  0.38263361  0.44358563  0.39063982  1  -0.763505  0  -0.311481  -0.205261  0  3.672915  0
N  N118  1  0.66576123  0.05640602  0.06096488  1  -0.761093  0  -0.311498  -0.205306  0  3.672924  0
N  N119  1  0.43903830  0.27327401  0.11736437  1  -0.764087  0  -0.311484  -0.20539  0  3.672883  0
N  N120  1  0.05570081  0.87397400  0.03649128  1  -1.217619  0  -0.399971  -0.357314  0  3.625018  0
N  N121  1  0.68172951  0.59219277  0.44430166  1  -1.209025  0  -0.400045  -0.357373  0  3.625094  0
N  N122  1  0.46351535  0.90781272  0.91046042  1  -1.214199  0  -0.399992  -0.357433  0  3.624985  0
N  N123  1  0.58953796  0.62602771  0.81827169  1  -1.207837  0  -0.400016  -0.357395  0  3.624984  0
N  N124  1  0.94429803  0.12602164  0.96350566  1  -1.217602  0  -0.399969  -0.357394  0  3.624995  0
N  N125  1  0.31827179  0.40780533  0.55569774  1  -1.208797  0  -0.400049  -0.357416  0  3.625042  0
N  N126  1  0.53648238  0.09218498  0.08954225  1  -1.214299  0  -0.39992  -0.35738  0  3.624799  0
N  N127  1  0.41045883  0.37397223  0.18172810  1  -1.207872  0  -0.400016  -0.35747  0  3.625048  0
O  O128  1  0.04828333  0.89698242  0.83195435  1  -1.081893  0  -0.418588  -0.474374  0  2.176952  0
O  O129  1  0.65130455  0.38023828  0.45171580  1  -1.086856  0  -0.418507  -0.474298  0  2.176858  0
O  O130  1  0.66805807  0.11977329  0.72892841  1  -1.076645  0  -0.418542  -0.474393  0  2.176772  0
O  O131  1  0.77106481  0.60300992  0.84871212  1  -1.089212  0  -0.418578  -0.474335  0  2.177013  0
O  O132  1  0.95171599  0.10301687  0.16804392  1  -1.081858  0  -0.418554  -0.474351  0  2.176985  0
O  O133  1  0.34869923  0.61976627  0.54827828  1  -1.086868  0  -0.418538  -0.474351  0  2.176895  0
O  O134  1  0.33194128  0.88023238  0.27107275  1  -1.076704  0  -0.418557  -0.474421  0  2.176726  0
O  O135  1  0.22892977  0.39698860  0.15129157  1  -1.08854  0  -0.418566  -0.474333  0  2.176788  0
O  O136  1  0.05952071  0.68710088  0.20366664  1  -1.079622  0  -0.412276  -0.475655  0  2.198369  0
O  O137  1  0.87242147  0.76318923  0.44047808  1  -1.084252  0  -0.412244  -0.475606  0  2.198492  0
O  O138  1  0.29634192  0.73682211  0.89076794  1  -1.09705  0  -0.412261  -0.47563  0  2.198326  0
O  O139  1  0.60922939  0.81289075  0.62759003  1  -1.084184  0  -0.41228  -0.475618  0  2.198263  0
O  O140  1  0.94047130  0.31288713  0.79633754  1  -1.079813  0  -0.412228  -0.475605  0  2.198369  0
O  O141  1  0.12758515  0.23681263  0.55951332  1  -1.084258  0  -0.412217  -0.47556  0  2.198387  0
O  O142  1  0.70366027  0.26318084  0.10923408  1  -1.09696  0  -0.412255  -0.475623  0  2.198463  0
O  O143  1  0.39076461  0.18710481  0.37241270  1  -1.083812  0  -0.412316  -0.47568  0  2.198319  0
