# generated using pymatgen
data_AgH10C14S2N5O3
_symmetry_space_group_name_H-M   'P 1'
_cell_length_a   3.74292701
_cell_length_b   7.92268948
_cell_length_c   26.12469622
_cell_angle_alpha   89.99999176
_cell_angle_beta   91.71769101
_cell_angle_gamma   90.00040976
_symmetry_Int_Tables_number   1
_chemical_formula_structural   AgH10C14S2N5O3
_chemical_formula_sum   'Ag2 H20 C28 S4 N10 O6'
_cell_volume   774.35489627
_cell_formula_units_Z   2
loop_
 _symmetry_equiv_pos_site_id
 _symmetry_equiv_pos_as_xyz
  1  'x, y, z'
loop_
 _atom_site_type_symbol
 _atom_site_label
 _atom_site_symmetry_multiplicity
 _atom_site_fract_x
 _atom_site_fract_y
 _atom_site_fract_z
 _atom_site_occupancy
 _atom_site_hle17_bader_spin_density
 _atom_site_hle17_ddec_charge
 _atom_site_hle17_ddec_spin_density
 _atom_site_hle17_ddec_sum_bond_order
 _atom_site_hle17_magmom
 _atom_site_hse06_10hf_bader_spin_density
 _atom_site_hse06_10hf_ddec_charge
 _atom_site_hse06_10hf_ddec_spin_density
 _atom_site_hse06_10hf_ddec_sum_bond_order
 _atom_site_hse06_10hf_magmom
 _atom_site_hse06_bader_spin_density
 _atom_site_hse06_ddec_charge
 _atom_site_hse06_ddec_spin_density
 _atom_site_hse06_ddec_sum_bond_order
 _atom_site_hse06_magmom
 _atom_site_pbe_bader_spin_density
 _atom_site_pbe_cm5_charge
 _atom_site_pbe_ddec_charge
 _atom_site_pbe_ddec_spin_density
 _atom_site_pbe_ddec_sum_bond_order
 _atom_site_pbe_magmom
Ag  Ag0  1  0.74998803  0.88735774  0.25000037  1  0  0.531347  0  1.388233  0  0  0.379446  0  1.81516  0  0  0.408685  0  1.773575  0  0  0.460669  0.359145  0  1.843929  0
Ag  Ag1  1  0.25000442  0.11264124  0.74999883  1  0  0.53127  0  1.388294  0  0  0.379365  0  1.815223  0  0  0.408601  0  1.773656  0  0  0.460642  0.359058  0  1.843974  0
H  H2  1  0.54341200  0.41241641  0.15224100  1  0  0.137759  0  0.971525  0  0  0.142762  0  1.038867  0  0  0.146159  0  1.036713  0  0  0.112458  0.140178  0  1.040643  0
H  H3  1  0.95659995  0.41241456  0.34775761  1  0  0.137672  0  0.971509  0  0  0.142689  0  1.038849  0  0  0.146078  0  1.036707  0  0  0.112419  0.140102  0  1.040624  0
H  H4  1  0.45659651  0.58758257  0.84775482  1  0  0.137632  0  0.971636  0  0  0.142682  0  1.038931  0  0  0.14605  0  1.036814  0  0  0.112414  0.140104  0  1.0407  0
H  H5  1  0.04340319  0.58758316  0.65224163  1  0  0.137713  0  0.971463  0  0  0.142725  0  1.038801  0  0  0.146116  0  1.036652  0  0  0.112432  0.14014  0  1.04058  0
H  H6  1  0.68365290  0.63314476  0.08153173  1  0  0.106782  0  0.962316  0  0  0.120586  0  1.021152  0  0  0.122293  0  1.021589  0  0  0.102093  0.119328  0  1.020972  0
H  H7  1  0.81635687  0.63312721  0.41847107  1  0  0.106777  0  0.962508  0  0  0.120661  0  1.021254  0  0  0.122365  0  1.021692  0  0  0.10213  0.119404  0  1.021069  0
H  H8  1  0.31635556  0.36686937  0.91846906  1  0  0.106814  0  0.962521  0  0  0.120641  0  1.021312  0  0  0.122346  0  1.021749  0  0  0.102114  0.119389  0  1.021128  0
H  H9  1  0.18364622  0.36686041  0.58153314  1  0  0.106747  0  0.962244  0  0  0.12058  0  1.021058  0  0  0.122286  0  1.021495  0  0  0.102109  0.119324  0  1.020877  0
H  H10  1  0.02598101  0.21972588  0.18707933  1  0  0.113005  0  0.968924  0  0  0.115323  0  1.042269  0  0  0.119083  0  1.037444  0  0  0.134046  0.112454  0  1.045869  0
H  H11  1  0.47402545  0.21971653  0.31292108  1  0  0.112986  0  0.969052  0  0  0.115316  0  1.042385  0  0  0.119074  0  1.037565  0  0  0.134087  0.112452  0  1.04598  0
H  H12  1  0.97400342  0.78027815  0.81291906  1  0  0.113026  0  0.968963  0  0  0.115333  0  1.042325  0  0  0.119096  0  1.037492  0  0  0.134037  0.112464  0  1.045928  0
H  H13  1  0.52597498  0.78027614  0.68708160  1  0  0.112967  0  0.969034  0  0  0.115286  0  1.042383  0  0  0.119048  0  1.037556  0  0  0.134022  0.112418  0  1.045984  0
H  H14  1  0.11507717  0.70581350  0.14706377  1  0  0.122562  0  0.959506  0  0  0.135002  0  1.013902  0  0  0.137208  0  1.012774  0  0  0.12211  0.133387  0  1.014786  0
H  H15  1  0.38488020  0.70581518  0.35293832  1  0  0.122655  0  0.959958  0  0  0.135078  0  1.014323  0  0  0.137282  0  1.013197  0  0  0.122157  0.133464  0  1.015206  0
H  H16  1  0.88488587  0.29418926  0.85293491  1  0  0.122707  0  0.959837  0  0  0.135132  0  1.014205  0  0  0.13734  0  1.013075  0  0  0.122187  0.133516  0  1.015086  0
H  H17  1  0.61512559  0.29418128  0.64706361  1  0  0.122674  0  0.959986  0  0  0.135126  0  1.01433  0  0  0.137329  0  1.013201  0  0  0.122186  0.133508  0  1.015211  0
H  H18  1  0.37574766  0.90170706  0.06705221  1  0  0.097456  0  0.994768  0  0  0.100212  0  1.073111  0  0  0.103558  0  1.070746  0  0  0.104531  0.097783  0  1.074904  0
H  H19  1  0.12422593  0.90171029  0.43294880  1  0  0.097404  0  0.994697  0  0  0.100131  0  1.073087  0  0  0.103503  0  1.070697  0  0  0.10447  0.097704  0  1.074872  0
H  H20  1  0.62423142  0.09829066  0.93294616  1  0  0.097338  0  0.994678  0  0  0.100113  0  1.073019  0  0  0.103452  0  1.070662  0  0  0.10446  0.097683  0  1.074818  0
H  H21  1  0.87577450  0.09828995  0.56705426  1  0  0.097417  0  0.994777  0  0  0.100196  0  1.073098  0  0  0.103533  0  1.070742  0  0  0.104495  0.097769  0  1.074888  0
C  C22  1  0.34242319  0.24593852  0.09117281  1  0  0.090766  0  3.759869  0  0  0.081043  0  4.038159  0  0  0.087098  0  4.059883  0  0  0.084774  0.077072  0  4.023294  0
C  C23  1  0.15758100  0.24592042  0.40882644  1  0  0.090842  0  3.75961  0  0  0.081009  0  4.038086  0  0  0.087071  0  4.059798  0  0  0.084751  0.077038  0  4.023219  0
C  C24  1  0.65755859  0.75408192  0.90882403  1  0  0.090798  0  3.759757  0  0  0.081035  0  4.038135  0  0  0.087087  0  4.059858  0  0  0.084851  0.077059  0  4.023279  0
C  C25  1  0.84242213  0.75406846  0.59117357  1  0  0.090702  0  3.759823  0  0  0.080935  0  4.038191  0  0  0.08698  0  4.059927  0  0  0.08476  0.076962  0  4.023328  0
C  C26  1  0.48507199  0.39192833  0.11160966  1  0  -0.148931  0  3.74689  0  0  -0.172953  0  4.010016  0  0  -0.176962  0  4.029761  0  0  -0.103081  -0.170272  0  3.9967  0
C  C27  1  0.01492628  0.39192489  0.38839071  1  0  -0.148803  0  3.746519  0  0  -0.172802  0  4.009705  0  0  -0.176812  0  4.029462  0  0  -0.10295  -0.170134  0  3.996421  0
C  C28  1  0.51491779  0.60807317  0.88838876  1  0  -0.148796  0  3.74661  0  0  -0.172847  0  4.009762  0  0  -0.17683  0  4.029528  0  0  -0.103009  -0.170167  0  3.996449  0
C  C29  1  0.98506347  0.60807283  0.61161000  1  0  -0.148772  0  3.746762  0  0  -0.172796  0  4.009914  0  0  -0.176795  0  4.029665  0  0  -0.102994  -0.170121  0  3.99662  0
C  C30  1  0.55945404  0.51162520  0.07320426  1  0  -0.113586  0  3.752386  0  0  -0.135297  0  4.005096  0  0  -0.136627  0  4.025959  0  0  -0.108237  -0.134213  0  3.99069  0
C  C31  1  0.94056205  0.51163586  0.42679131  1  0  -0.113678  0  3.751873  0  0  -0.135415  0  4.004629  0  0  -0.136744  0  4.025492  0  0  -0.108358  -0.134335  0  3.99022  0
C  C32  1  0.44056787  0.48835358  0.92678856  1  0  -0.113775  0  3.751822  0  0  -0.135456  0  4.004614  0  0  -0.136783  0  4.025467  0  0  -0.108368  -0.134383  0  3.990222  0
C  C33  1  0.05943843  0.48837953  0.57320562  1  0  -0.113538  0  3.752269  0  0  -0.135255  0  4.005015  0  0  -0.136582  0  4.025874  0  0  -0.108247  -0.134179  0  3.990618  0
C  C34  1  0.47429933  0.45739727  0.02394719  1  0  -0.026332  0  3.838997  0  0  -0.015318  0  4.103616  0  0  -0.014977  0  4.126847  0  0  -0.0269  -0.015485  0  4.087594  0
C  C35  1  0.02576403  0.45740391  0.47605538  1  0  -0.026178  0  3.838296  0  0  -0.015353  0  4.103129  0  0  -0.015014  0  4.126361  0  0  -0.026925  -0.015513  0  4.0871  0
C  C36  1  0.52578132  0.54259035  0.97605278  1  0  -0.026121  0  3.838167  0  0  -0.015347  0  4.103041  0  0  -0.015007  0  4.126274  0  0  -0.026932  -0.015509  0  4.087018  0
C  C37  1  0.97429253  0.54260517  0.52394831  1  0  -0.026393  0  3.83897  0  0  -0.015428  0  4.103638  0  0  -0.015086  0  4.126869  0  0  -0.026945  -0.015588  0  4.087606  0
C  C38  1  0.08622576  0.10565993  0.16573108  1  0  0.170073  0  3.593083  0  0  0.112174  0  3.855399  0  0  0.125778  0  3.867907  0  0  0.143956  0.103322  0  3.84679  0
C  C39  1  0.41378438  0.10564909  0.33427126  1  0  0.170015  0  3.593324  0  0  0.112118  0  3.855665  0  0  0.12572  0  3.868177  0  0  0.143885  0.103264  0  3.847056  0
C  C40  1  0.91374797  0.89435042  0.83426841  1  0  0.169834  0  3.593489  0  0  0.111993  0  3.855786  0  0  0.125597  0  3.868296  0  0  0.143891  0.103137  0  3.847173  0
C  C41  1  0.58623477  0.89434106  0.66573149  1  0  0.169996  0  3.59321  0  0  0.112122  0  3.855513  0  0  0.125725  0  3.86802  0  0  0.143976  0.10327  0  3.846904  0
C  C42  1  0.13120442  0.84136473  0.14254011  1  0  0.002944  0  3.738289  0  0  -0.030538  0  3.99967  0  0  -0.028244  0  4.019356  0  0  -0.002679  -0.032133  0  3.98647  0
C  C43  1  0.36877633  0.84133478  0.35745940  1  0  0.002838  0  3.738049  0  0  -0.03061  0  3.999371  0  0  -0.028318  0  4.01906  0  0  -0.002649  -0.032207  0  3.986175  0
C  C44  1  0.86877736  0.15866076  0.85745635  1  0  0.002588  0  3.73812  0  0  -0.030863  0  3.999498  0  0  -0.028568  0  4.019173  0  0  -0.002813  -0.03245  0  3.986289  0
C  C45  1  0.63122143  0.15865536  0.64254288  1  0  0.002709  0  3.738077  0  0  -0.030785  0  3.999414  0  0  -0.028488  0  4.019092  0  0  -0.002752  -0.032374  0  3.986213  0
C  C46  1  0.25929172  0.93562841  0.10309152  1  0  -0.077277  0  3.681341  0  0  -0.118468  0  3.948285  0  0  -0.117117  0  3.966343  0  0  -0.014836  -0.119186  0  3.936131  0
C  C47  1  0.24069576  0.93563207  0.39690648  1  0  -0.077376  0  3.681272  0  0  -0.118529  0  3.948219  0  0  -0.117203  0  3.966261  0  0  -0.014902  -0.119248  0  3.936054  0
C  C48  1  0.74069542  0.06437183  0.89690420  1  0  -0.077188  0  3.681204  0  0  -0.118377  0  3.948129  0  0  -0.117017  0  3.966197  0  0  -0.014845  -0.119104  0  3.935987  0
C  C49  1  0.75932609  0.06436691  0.60309208  1  0  -0.077247  0  3.68088  0  0  -0.118445  0  3.947849  0  0  -0.117083  0  3.965913  0  0  -0.014868  -0.119165  0  3.935696  0
S  S50  1  0.29173621  0.25530396  0.02506698  1  0  0.054997  0  2.573766  0  0  0.054463  0  2.908625  0  0  0.051904  0  2.916306  0  0  0.075998  0.055934  0  2.903456  0
S  S51  1  0.20825473  0.25530115  0.47493374  1  0  0.05488  0  2.57366  0  0  0.054427  0  2.908639  0  0  0.051867  0  2.916323  0  0  0.076013  0.055898  0  2.903464  0
S  S52  1  0.70824822  0.74469881  0.97493102  1  0  0.05495  0  2.573792  0  0  0.054492  0  2.908752  0  0  0.051935  0  2.91644  0  0  0.076054  0.055971  0  2.90358  0
S  S53  1  0.79174037  0.74470036  0.52506738  1  0  0.055001  0  2.573653  0  0  0.054494  0  2.908554  0  0  0.051938  0  2.916244  0  0  0.075996  0.055968  0  2.903378  0
N  N54  1  0.23150646  0.10347659  0.11822405  1  0  -0.073572  0  3.64477  0  0  0.015481  0  3.854874  0  0  6.3e-05  0  3.882159  0  0  -0.228692  0.025717  0  3.836178  0
N  N55  1  0.26850632  0.10346900  0.38177830  1  0  -0.073464  0  3.645158  0  0  0.015603  0  3.855287  0  0  0.000184  0  3.882579  0  0  -0.228643  0.025843  0  3.836586  0
N  N56  1  0.76848331  0.89653122  0.88177551  1  0  -0.073429  0  3.645273  0  0  0.015601  0  3.855395  0  0  0.000184  0  3.882686  0  0  -0.228704  0.025839  0  3.836698  0
N  N57  1  0.73152083  0.89652367  0.61822526  1  0  -0.073503  0  3.644883  0  0  0.015543  0  3.855003  0  0  0.000128  0  3.882291  0  0  -0.228694  0.02578  0  3.836309  0
N  N58  1  0.02359561  0.94863492  0.18095906  1  0  -0.347489  0  3.365849  0  0  -0.260147  0  3.663953  0  0  -0.280234  0  3.678321  0  0  -0.369155  -0.246475  0  3.653917  0
N  N59  1  0.47639472  0.94863062  0.31903972  1  0  -0.347386  0  3.365751  0  0  -0.260069  0  3.663913  0  0  -0.280158  0  3.678287  0  0  -0.369149  -0.246398  0  3.653882  0
N  N60  1  0.97637817  0.05136533  0.81903545  1  0  -0.347198  0  3.36574  0  0  -0.259916  0  3.663867  0  0  -0.280002  0  3.678239  0  0  -0.369023  -0.246239  0  3.653812  0
N  N61  1  0.52360841  0.05136205  0.68096029  1  0  -0.347314  0  3.365757  0  0  -0.259998  0  3.663875  0  0  -0.280083  0  3.678243  0  0  -0.369101  -0.246325  0  3.653837  0
N  N62  1  0.74999579  0.48695962  0.25000270  1  0  0.693958  0  4.164754  0  0  0.727444  0  4.452331  0  0  0.755329  0  4.459149  0  0  0.093161  0.708837  0  4.447098  0
N  N63  1  0.25000196  0.51304063  0.75000072  1  0  0.693489  0  4.165018  0  0  0.727003  0  4.452577  0  0  0.754879  0  4.459397  0  0  0.093066  0.708397  0  4.447347  0
O  O64  1  0.83442902  0.56715224  0.21008412  1  0  -0.479636  0  1.772835  0  0  -0.461706  0  1.996098  0  0  -0.47741  0  1.988242  0  0  -0.202721  -0.450638  0  2.001289  0
O  O65  1  0.66555836  0.56714056  0.28992318  1  0  -0.479524  0  1.772827  0  0  -0.461605  0  1.996161  0  0  -0.477281  0  1.988243  0  0  -0.202729  -0.450521  0  2.001331  0
O  O66  1  0.16556605  0.43285305  0.78991968  1  0  -0.479354  0  1.772893  0  0  -0.461438  0  1.996134  0  0  -0.477143  0  1.988305  0  0  -0.202676  -0.450364  0  2.001311  0
O  O67  1  0.33444205  0.43285716  0.71008102  1  0  -0.479454  0  1.77286  0  0  -0.461495  0  1.996086  0  0  -0.477186  0  1.988249  0  0  -0.20268  -0.450416  0  2.001261  0
O  O68  1  0.74999732  0.32679431  0.25000080  1  0  -0.48447  0  1.748113  0  0  -0.472121  0  1.964956  0  0  -0.487165  0  1.957496  0  0  -0.201076  -0.461535  0  1.969822  0
O  O69  1  0.24999777  0.67320594  0.75000147  1  0  -0.484309  0  1.748192  0  0  -0.471991  0  1.96506  0  0  -0.487032  0  1.957609  0  0  -0.201063  -0.461405  0  1.969929  0
