# generated using pymatgen
data_AlH8(C2O)6
_symmetry_space_group_name_H-M   'P 1'
_cell_length_a   6.92385030
_cell_length_b   11.02609417
_cell_length_c   15.26208275
_cell_angle_alpha   82.93894678
_cell_angle_beta   77.20571598
_cell_angle_gamma   73.81326950
_symmetry_Int_Tables_number   1
_chemical_formula_structural   AlH8(C2O)6
_chemical_formula_sum   'Al2 H16 C24 O12'
_cell_volume   1088.85069788
_cell_formula_units_Z   2
loop_
 _symmetry_equiv_pos_site_id
 _symmetry_equiv_pos_as_xyz
  1  'x, y, z'
loop_
 _atom_site_type_symbol
 _atom_site_label
 _atom_site_symmetry_multiplicity
 _atom_site_fract_x
 _atom_site_fract_y
 _atom_site_fract_z
 _atom_site_occupancy
 _atom_site_pbe_bader_charge
 _atom_site_pbe_bader_spin_density
 _atom_site_pbe_cm5_charge
 _atom_site_pbe_ddec_charge
 _atom_site_pbe_ddec_spin_density
 _atom_site_pbe_ddec_sum_bond_order
 _atom_site_pbe_magmom
Al  Al0  1  0.50240828  0.49647285  0.49964730  1  2.509019  0  0.411973  1.637139  0  2.554433  0
Al  Al1  1  0.00201072  0.49690433  0.49987800  1  2.508344  0  0.405441  1.64401  0  2.560682  0
H  H2  1  0.26966888  0.36846631  0.58157704  1  0.611264  0  0.343814  0.417684  0  0.875174  0
H  H3  1  0.73457224  0.62413284  0.41688223  1  0.614911  0  0.345778  0.421669  0  0.866056  0
H  H4  1  0.83503761  0.52061544  0.93780313  1  0.067636  0  0.105239  0.120109  0  1.019856  0
H  H5  1  0.15665339  0.49330264  0.06202825  1  0.066435  0  0.10525  0.119898  0  1.021039  0
H  H6  1  0.70193724  0.46980196  0.23081871  1  0.120584  0  0.105268  0.114052  0  1.03166  0
H  H7  1  0.78428802  0.48517588  0.06695201  1  0.081274  0  0.097405  0.097368  0  1.036036  0
H  H8  1  0.30401484  0.51759533  0.76791871  1  0.124431  0  0.104913  0.114043  0  1.029868  0
H  H9  1  0.21994100  0.50278292  0.93174142  1  0.01631  0  0.097923  0.09873  0  1.03477  0
H  H10  1  0.77926051  0.86257978  0.49242035  1  0.091115  0  0.103014  0.095453  0  1.07131  0
H  H11  1  0.63927998  0.09651793  0.50087024  1  0.084542  0  0.101618  0.097814  0  1.10337  0
H  H12  1  0.34119159  0.12817849  0.56928273  1  0.047116  0  0.102435  0.110749  0  0.976388  0
H  H13  1  0.38828260  0.15272913  0.44943825  1  0.081524  0  0.107376  0.123164  0  0.967918  0
H  H14  1  0.53063212  0.91680696  0.43666243  1  0.073284  0  0.102586  0.114395  0  0.977042  0
H  H15  1  0.48481883  0.89292111  0.55689316  1  0.052668  0  0.105284  0.120934  0  0.972201  0
H  H16  1  0.96110938  0.53968986  0.70273655  1  0.653002  0  0.313555  0.357009  0  0.961988  0
H  H17  1  0.03751478  0.46309440  0.29703420  1  0.656479  0  0.313639  0.356426  0  0.964321  0
C  C18  1  0.84476171  0.27110382  0.50997718  1  1.572298  0  0.273259  0.656706  0  4.073929  0
C  C19  1  0.66379393  0.52330061  0.65978240  1  1.51437  0  0.262405  0.655768  0  4.07825  0
C  C20  1  0.16030620  0.72210988  0.48986693  1  1.567277  0  0.275656  0.663359  0  4.070542  0
C  C21  1  0.33964247  0.47113174  0.33956173  1  1.457628  0  0.26334  0.656236  0  4.077191  0
C  C22  1  0.61525589  0.52531526  0.75835117  1  0.019904  0  -0.042386  -0.213149  0  4.000081  0
C  C23  1  0.38614015  0.47136110  0.24089974  1  -0.012635  0  -0.041673  -0.211803  0  4.00161  0
C  C24  1  0.76377147  0.52788806  0.80859488  1  0.4585  0  0.094575  0.325337  0  4.061476  0
C  C25  1  0.71492449  0.51899071  0.90282376  1  0.036643  0  -0.102762  -0.253211  0  3.918653  0
C  C26  1  0.23383198  0.47547997  0.19090349  1  0.473033  0  0.093787  0.323891  0  4.062614  0
C  C27  1  0.28058721  0.48767013  0.09670858  1  0.043405  0  -0.102722  -0.252487  0  3.920358  0
C  C28  1  0.58344788  0.47462526  0.19314214  1  0.008694  0  -0.081956  -0.051294  0  4.004133  0
C  C29  1  0.62862187  0.48424739  0.10016457  1  -0.070345  0  -0.103249  -0.161951  0  3.995739  0
C  C30  1  0.41969573  0.51778358  0.80585012  1  -0.052852  0  -0.081596  -0.05166  0  4.00451  0
C  C31  1  0.37322701  0.50936846  0.89882021  1  0.001153  0  -0.103359  -0.162878  0  3.997601  0
C  C32  1  0.52189339  0.50764842  0.94971931  1  0.03095  0  0.00247  0.102528  0  3.991808  0
C  C33  1  0.47623656  0.49330989  0.04955004  1  -0.01771  0  0.00308  0.101767  0  3.989945  0
C  C34  1  0.92312875  0.13184863  0.50617566  1  0.022919  0  -0.009789  -0.084549  0  3.992081  0
C  C35  1  0.08542054  0.86142349  0.49444643  1  0.010197  0  -0.008848  -0.085507  0  3.99178  0
C  C36  1  0.12760404  0.07093196  0.50532800  1  -0.022076  0  -0.000751  0.071302  0  3.908628  0
C  C37  1  0.87755249  0.92224051  0.49562452  1  -0.057958  0  -0.086482  -0.101926  0  3.990375  0
C  C38  1  0.20659944  0.94054464  0.49926591  1  -0.003773  0  -0.000686  0.071305  0  3.904692  0
C  C39  1  0.79931336  0.05251421  0.50090077  1  -0.051963  0  -0.085512  -0.101279  0  3.980889  0
C  C40  1  0.33126821  0.09270795  0.50664052  1  -0.045761  0  -0.150734  -0.207942  0  3.898858  0
C  C41  1  0.42120510  0.94478798  0.49926506  1  -0.040105  0  -0.150033  -0.207873  0  3.885997  0
O  O42  1  0.65764944  0.32211478  0.50495721  1  -1.258975  0  -0.232128  -0.587826  0  2.319  0
O  O43  1  0.84668607  0.53141190  0.61970979  1  -1.262047  0  -0.242231  -0.617947  0  2.376158  0
O  O44  1  0.02870337  0.66468771  0.48206865  1  -1.266003  0  -0.237651  -0.604502  0  2.354938  0
O  O45  1  0.47647931  0.48167850  0.37956500  1  -1.265214  0  -0.235017  -0.590312  0  2.35498  0
O  O46  1  0.34778523  0.67081137  0.49424367  1  -1.263555  0  -0.23049  -0.583501  0  2.304488  0
O  O47  1  0.15681386  0.46320374  0.37986994  1  -1.269854  0  -0.244935  -0.62238  0  2.381172  0
O  O48  1  0.97607884  0.32888504  0.51779652  1  -1.271061  0  -0.232694  -0.596756  0  2.349636  0
O  O49  1  0.52854322  0.51069154  0.61967233  1  -1.262328  0  -0.235077  -0.590872  0  2.358033  0
O  O50  1  0.25104018  0.44793430  0.54532841  1  -1.420911  0  -0.451853  -0.981416  0  2.124441  0
O  O51  1  0.75336300  0.54548574  0.45409283  1  -1.424239  0  -0.450854  -0.980607  0  2.121967  0
O  O52  1  0.95471799  0.53703750  0.76909076  1  -1.169007  0  -0.347767  -0.442687  0  2.288326  0
O  O53  1  0.04119353  0.47001953  0.23068241  1  -1.168537  0  -0.34785  -0.442529  0  2.290621  0
