# generated using pymatgen
data_NiH20(C14N3)2
_symmetry_space_group_name_H-M   'P 1'
_cell_length_a   9.07709554
_cell_length_b   9.62155964
_cell_length_c   15.08622708
_cell_angle_alpha   77.75260128
_cell_angle_beta   72.52753528
_cell_angle_gamma   61.85702145
_symmetry_Int_Tables_number   1
_chemical_formula_structural   NiH20(C14N3)2
_chemical_formula_sum   'Ni2 H40 C56 N12'
_cell_volume   1104.29111366
_cell_formula_units_Z   2
loop_
 _symmetry_equiv_pos_site_id
 _symmetry_equiv_pos_as_xyz
  1  'x, y, z'
loop_
 _atom_site_type_symbol
 _atom_site_label
 _atom_site_symmetry_multiplicity
 _atom_site_fract_x
 _atom_site_fract_y
 _atom_site_fract_z
 _atom_site_occupancy
 _atom_site_hle17_ddec_charge
 _atom_site_hle17_ddec_spin_density
 _atom_site_hle17_ddec_sum_bond_order
 _atom_site_hle17_magmom
 _atom_site_hse06_10hf_ddec_charge
 _atom_site_hse06_10hf_ddec_spin_density
 _atom_site_hse06_10hf_ddec_sum_bond_order
 _atom_site_hse06_10hf_magmom
 _atom_site_hse06_ddec_charge
 _atom_site_hse06_ddec_spin_density
 _atom_site_hse06_ddec_sum_bond_order
 _atom_site_hse06_magmom
 _atom_site_pbe_cm5_charge
 _atom_site_pbe_ddec_charge
 _atom_site_pbe_ddec_spin_density
 _atom_site_pbe_ddec_sum_bond_order
 _atom_site_pbe_magmom
Ni  Ni0  1  0.50976405  0.24991202  0.74997889  1  0.631597  1.762629  2.311941  1.474  0.59123  1.794363  2.722713  1.567  0.672944  1.85737  2.664269  1.662  0.677303  0.539848  1.737588  2.759395  1.481
Ni  Ni1  1  0.49023994  0.75008606  0.25002072  1  0.631659  1.762632  2.311804  1.474  0.591353  1.794371  2.722524  1.567  0.673071  1.857375  2.664079  1.662  0.677339  0.539976  1.737592  2.759212  1.481
H  H2  1  0.25469285  0.24959643  0.95140330  1  0.077485  0.000266  0.970386  0.001  0.083811  0.000246  1.042163  0.001  0.085302  0.000136  1.041495  0.001  0.107162  0.082794  0.000261  1.042874  0.001
H  H3  1  0.45560766  0.25042472  0.54856159  1  0.077246  0.000207  0.972601  0.001  0.083661  0.00017  1.044169  0.001  0.085132  8.6e-05  1.043497  0.0  0.107066  0.082563  0.000257  1.044902  0.001
H  H4  1  0.74530421  0.75040520  0.04859331  1  0.077496  0.000265  0.970337  0.001  0.083818  0.000246  1.042127  0.001  0.085311  0.000136  1.041451  0.001  0.107175  0.082801  0.000261  1.042837  0.001
H  H5  1  0.54440087  0.74957454  0.45143749  1  0.077223  0.000207  0.972594  0.001  0.083645  0.00017  1.04415  0.001  0.085115  8.6e-05  1.043478  0.0  0.107062  0.08255  0.000257  1.044881  0.001
H  H6  1  0.10306996  0.48913169  0.06463880  1  0.100956  0.000402  0.995631  0.0  0.111238  0.0004  1.055964  0.0  0.113571  0.0003  1.056449  0.0  0.095979  0.109708  0.00049  1.055658  0.001
H  H7  1  0.65622184  0.01088541  0.43532633  1  0.100393  0.000399  0.994938  0.0  0.111346  0.00038  1.054692  0.0  0.113658  0.000289  1.055243  0.0  0.095968  0.109775  0.000483  1.054325  0.001
H  H8  1  0.89692728  0.51086757  0.93535772  1  0.100906  0.000403  0.995608  0.0  0.111191  0.0004  1.055945  0.0  0.113524  0.000301  1.05643  0.0  0.095975  0.10966  0.00049  1.055637  0.001
H  H9  1  0.34378221  0.98911031  0.56467560  1  0.100347  0.000399  0.994938  0.0  0.111365  0.00038  1.054617  0.0  0.113649  0.00029  1.055199  0.0  0.095989  0.109793  0.000483  1.054249  0.001
H  H10  1  0.22265923  0.70490601  0.97619635  1  0.107439  0.000495  0.970719  0.001  0.120555  0.00031  1.027354  0.0  0.122796  0.000224  1.02635  0.0  0.100681  0.119004  0.000422  1.028198  0.0
H  H11  1  0.90353552  0.79509872  0.52361190  1  0.10698  0.000523  0.971453  0.001  0.120261  0.000327  1.027959  0.0  0.122526  0.000235  1.026906  0.0  0.100724  0.118762  0.000421  1.028588  0.0
H  H12  1  0.77733348  0.29509798  0.02380104  1  0.107361  0.000495  0.970798  0.001  0.120511  0.00031  1.027386  0.0  0.122753  0.000224  1.026384  0.0  0.100661  0.118957  0.000422  1.028233  0.0
H  H13  1  0.09646122  0.20489345  0.47639222  1  0.106946  0.000523  0.971515  0.001  0.120196  0.000327  1.028059  0.0  0.122461  0.000235  1.027009  0.0  0.100696  0.118696  0.000421  1.028686  0.0
H  H14  1  0.65419861  0.73647018  0.64157390  1  0.104646  0.000517  1.002345  0.001  0.111551  0.000275  1.069045  0.001  0.112863  0.000187  1.070376  0.0  0.093801  0.110935  0.000438  1.067864  0.001
H  H15  1  0.03279946  0.76359460  0.85827119  1  0.103974  0.000579  1.002463  0.001  0.110812  0.000339  1.069425  0.001  0.112149  0.000225  1.070704  0.001  0.09343  0.109952  0.000436  1.06846  0.001
H  H16  1  0.34580526  0.26352790  0.35842812  1  0.104714  0.000518  1.002291  0.001  0.111638  0.000275  1.068949  0.001  0.112937  0.000187  1.070297  0.0  0.093829  0.111017  0.000438  1.067765  0.001
H  H17  1  0.96720236  0.23640466  0.14172880  1  0.103977  0.000578  1.002484  0.001  0.110811  0.000339  1.069443  0.001  0.112149  0.000225  1.070722  0.001  0.093446  0.109951  0.000436  1.068477  0.001
H  H18  1  0.86026917  0.52639000  0.51252820  1  0.101828  0.000549  0.979083  0.001  0.112092  0.000487  1.038854  0.001  0.114936  0.000357  1.038776  0.0  0.095022  0.110165  0.00067  1.038939  0.001
H  H19  1  0.89948297  0.97333553  0.98756737  1  0.101074  0.000561  0.980211  0.001  0.111704  0.000516  1.039459  0.001  0.114547  0.000377  1.039353  0.0  0.094474  0.10983  0.000664  1.039527  0.001
H  H20  1  0.13973381  0.47360572  0.48747592  1  0.10189  0.000549  0.978916  0.001  0.112148  0.000487  1.038704  0.001  0.114994  0.000357  1.038622  0.0  0.095055  0.110219  0.00067  1.038789  0.001
H  H21  1  0.10051644  0.02666964  0.01243080  1  0.101052  0.000561  0.980206  0.001  0.111708  0.000516  1.039431  0.001  0.114549  0.000377  1.039324  0.0  0.094492  0.109834  0.000664  1.039498  0.001
H  H22  1  0.80192066  0.26376508  0.57568516  1  0.079737  0.000467  0.97371  0.001  0.086643  0.000378  1.041321  0.001  0.088156  0.000235  1.040186  0.001  0.109147  0.085467  0.00037  1.042584  0.001
H  H23  1  0.64141779  0.23588938  0.92447178  1  0.0795  0.000376  0.974365  0.001  0.086353  0.00027  1.042114  0.001  0.087828  0.000162  1.041066  0.001  0.109016  0.085282  0.000366  1.043169  0.001
H  H24  1  0.19807876  0.73623418  0.42431836  1  0.079713  0.000468  0.973684  0.001  0.086613  0.000378  1.041312  0.001  0.088115  0.000235  1.04019  0.001  0.109124  0.085437  0.00037  1.042577  0.001
H  H25  1  0.35857965  0.76411343  0.07552498  1  0.079504  0.000376  0.974365  0.001  0.086359  0.00027  1.042108  0.001  0.087831  0.000162  1.041064  0.001  0.109006  0.085288  0.000366  1.043165  0.001
H  H26  1  0.27148451  0.88084106  0.70344229  1  0.107437  0.000253  0.960202  0.0  0.116241  0.000244  1.023783  0.0  0.118924  0.000173  1.023895  0.0  0.107192  0.114537  0.000342  1.023529  0.0
H  H27  1  0.85584449  0.61936361  0.79638739  1  0.106114  0.000272  0.959747  0.0  0.115181  0.000252  1.023141  0.0  0.117886  0.000177  1.023189  0.0  0.106294  0.113204  0.000344  1.023415  0.0
H  H28  1  0.72851800  0.11916411  0.29655740  1  0.107387  0.000253  0.960213  0.0  0.116203  0.000244  1.023776  0.0  0.118883  0.000173  1.023894  0.0  0.107192  0.114499  0.000342  1.023523  0.0
H  H29  1  0.14415753  0.38063210  0.20361082  1  0.106095  0.000272  0.959758  0.0  0.115162  0.000252  1.023152  0.0  0.11787  0.000177  1.023198  0.0  0.106286  0.113185  0.000344  1.023435  0.0
H  H30  1  0.25992449  0.14456693  0.70505934  1  0.073926  8.5e-05  0.943584  0.001  0.082937  0.000312  1.006301  0.001  0.085327  0.000152  1.003831  0.0  0.116607  0.081327  0.000524  1.00824  0.001
H  H31  1  0.10954054  0.35551196  0.79484484  1  0.074514  8.5e-05  0.943216  0.0  0.0841  0.000323  1.00506  0.001  0.086349  0.000159  1.002741  0.0  0.116645  0.082098  0.000526  1.007661  0.001
H  H32  1  0.74007762  0.85543825  0.29494188  1  0.07388  8.5e-05  0.943589  0.001  0.082907  0.000312  1.006296  0.001  0.085299  0.000152  1.003824  0.0  0.116628  0.081299  0.000524  1.008236  0.001
H  H33  1  0.89045960  0.64448375  0.20515294  1  0.074516  8.5e-05  0.94323  0.0  0.084097  0.000323  1.005073  0.001  0.086346  0.000159  1.002753  0.0  0.116645  0.082097  0.000526  1.007673  0.001
H  H34  1  0.52332091  0.97834744  0.91556886  1  0.074065  0.0  0.953012  0.0  0.081699  0.000199  1.020539  0.0  0.083338  9.3e-05  1.019769  0.0  0.114809  0.080968  0.000349  1.020087  0.001
H  H35  1  0.41701884  0.52141081  0.58428800  1  0.074631  2.8e-05  0.953904  0.0  0.0823  0.000228  1.020997  0.0  0.083978  0.00011  1.020203  0.0  0.114947  0.080992  0.000345  1.021982  0.001
H  H36  1  0.47667596  0.02165183  0.08443489  1  0.074101  -0.0  0.952971  0.0  0.081712  0.000199  1.020516  0.0  0.083355  9.3e-05  1.019748  0.0  0.114793  0.080975  0.000349  1.020061  0.001
H  H37  1  0.58298298  0.47858845  0.41571199  1  0.074642  2.7e-05  0.953907  0.0  0.082309  0.000228  1.021001  0.0  0.083987  0.00011  1.020208  0.0  0.11495  0.080992  0.000345  1.021996  0.001
H  H38  1  0.55499688  0.70625741  0.91849252  1  0.105524  0.000237  0.975849  0.0  0.112642  0.000224  1.043473  0.0  0.115255  0.000156  1.044069  0.0  0.102909  0.110971  0.000289  1.042844  0.0
H  H39  1  0.17992705  0.79367931  0.58148247  1  0.105704  0.000247  0.976906  0.0  0.112829  0.000222  1.044205  0.0  0.115428  0.000154  1.044828  0.0  0.102631  0.111012  0.000286  1.043953  0.0
H  H40  1  0.44499971  0.29374185  0.08151036  1  0.10554  0.000237  0.975822  0.0  0.112657  0.000225  1.043439  0.0  0.115272  0.000156  1.044034  0.0  0.102919  0.110986  0.000289  1.04281  0.0
H  H41  1  0.82007636  0.20632114  0.41851877  1  0.105682  0.000247  0.976946  0.0  0.112792  0.000222  1.04426  0.0  0.115389  0.000154  1.044881  0.0  0.102613  0.110975  0.000286  1.044008  0.0
C  C42  1  0.27349888  0.35625566  0.93925621  1  0.07832  -0.017705  3.697351  -0.011  0.046383  -0.006457  3.965691  -0.003  0.056129  -0.006589  3.981439  -0.004  0.01648  0.03956  -0.006639  3.954832  -0.003
C  C43  1  0.56901531  0.14379127  0.56063788  1  0.079507  -0.017351  3.699526  -0.01  0.047517  -0.00622  3.967774  -0.003  0.057259  -0.006393  3.983643  -0.003  0.016588  0.040462  -0.006646  3.957157  -0.003
C  C44  1  0.72650185  0.64374360  0.06074029  1  0.078405  -0.017694  3.697298  -0.011  0.04649  -0.006457  3.965607  -0.003  0.056236  -0.006588  3.981355  -0.004  0.016508  0.039671  -0.006637  3.95475  -0.003
C  C45  1  0.43099151  0.85620680  0.43936237  1  0.079562  -0.017358  3.699418  -0.01  0.047588  -0.006219  3.967686  -0.003  0.057331  -0.006392  3.983549  -0.003  0.016641  0.040537  -0.006646  3.957073  -0.003
C  C46  1  0.19560627  0.48159743  0.99859884  1  -0.176973  0.005961  3.808433  0.008  -0.184879  0.002182  4.055549  0.003  -0.192942  0.00184  4.076656  0.003  -0.125061  -0.179355  0.002688  4.041029  0.003
C  C47  1  0.67552466  0.01844448  0.50129522  1  -0.17807  0.005787  3.807019  0.007  -0.186673  0.002066  4.054392  0.003  -0.194853  0.001757  4.075701  0.002  -0.125346  -0.181106  0.002713  4.039621  0.003
C  C48  1  0.80438833  0.51840656  0.00139898  1  -0.176994  0.005959  3.808427  0.008  -0.184903  0.002182  4.055557  0.003  -0.192964  0.00184  4.076666  0.003  -0.125101  -0.179376  0.002688  4.041033  0.003
C  C49  1  0.32447646  0.98155005  0.49870678  1  -0.178125  0.005787  3.806957  0.007  -0.186786  0.002066  4.054321  0.003  -0.194942  0.001757  4.075648  0.002  -0.125404  -0.181217  0.002713  4.039548  0.003
C  C50  1  0.25606108  0.59214368  0.95299905  1  -0.171171  -0.010809  3.753622  -0.006  -0.189091  -0.003344  4.000477  -0.001  -0.186477  -0.003535  4.019604  -0.001  -0.113572  -0.190874  -0.003679  3.987672  -0.001
C  C51  1  0.80106194  0.90784287  0.54684732  1  -0.168464  -0.011003  3.750523  -0.006  -0.186314  -0.003397  3.997559  -0.001  -0.18365  -0.003544  4.016726  -0.002  -0.112851  -0.188137  -0.003726  3.984729  -0.001
C  C52  1  0.74393331  0.40785794  0.04700021  1  -0.171043  -0.010807  3.753556  -0.006  -0.188969  -0.003345  4.000391  -0.001  -0.186357  -0.003535  4.01952  -0.001  -0.113526  -0.190748  -0.00368  3.987582  -0.001
C  C53  1  0.19893775  0.09214930  0.45315504  1  -0.168402  -0.011006  3.750558  -0.006  -0.186219  -0.003397  3.997593  -0.001  -0.183556  -0.003544  4.016754  -0.002  -0.112852  -0.188039  -0.003726  3.984758  -0.001
C  C54  1  0.37000388  0.53107528  0.86655436  1  0.129646  -0.000912  3.808016  -0.001  0.123619  -0.000361  4.064645  0.0  0.119556  -0.000989  4.092346  -0.001  0.065765  0.12598  0.000713  4.046225  0.001
C  C55  1  0.76775784  0.96887853  0.63329269  1  0.128126  -0.000479  3.805129  0.0  0.121611  1e-06  4.062149  0.0  0.117391  -0.000714  4.090046  -0.001  0.064189  0.123771  0.000774  4.044875  0.001
C  C56  1  0.62999026  0.46893108  0.13344268  1  0.129618  -0.000908  3.807902  -0.001  0.123554  -0.000362  4.064576  0.0  0.119492  -0.000989  4.092275  -0.001  0.065762  0.125916  0.000713  4.04616  0.001
C  C57  1  0.23224094  0.03111836  0.36670810  1  0.127998  -0.000482  3.805164  0.0  0.121514  2e-06  4.062163  0.0  0.117293  -0.000713  4.090061  -0.001  0.064171  0.123677  0.000775  4.044892  0.001
C  C58  1  0.45581047  0.60655861  0.79616500  1  -0.012517  0.002255  3.691883  0.003  -0.001429  0.000176  3.92568  0.001  0.008139  0.000778  3.94309  0.001  0.029187  -0.008177  -0.000424  3.914641  0.0
C  C59  1  0.85878104  0.89352235  0.70366811  1  -0.012547  0.002352  3.689987  0.003  -0.001142  0.0004  3.923917  0.001  0.008409  0.000898  3.941267  0.001  0.029401  -0.007676  -0.00055  3.913069  0.0
C  C60  1  0.54418845  0.39344420  0.20383373  1  -0.012543  0.002254  3.691813  0.003  -0.001418  0.000176  3.925592  0.001  0.00815  0.000778  3.943004  0.001  0.029241  -0.008164  -0.000424  3.914557  0.0
C  C61  1  0.14121993  0.10647218  0.29633061  1  -0.012565  0.002352  3.690044  0.003  -0.001153  0.000399  3.923984  0.001  0.008398  0.000898  3.941335  0.001  0.029401  -0.007687  -0.00055  3.913139  0.0
C  C62  1  0.57263871  0.54476730  0.71309780  1  0.123647  9.3e-05  3.819713  0.001  0.119786  0.000609  4.073207  0.001  0.115265  -0.000325  4.101753  0.0  0.065589  0.122378  0.001944  4.054073  0.002
C  C63  1  0.83088946  0.95535299  0.78673738  1  0.122371  0.000431  3.816448  0.001  0.118051  0.000965  4.071043  0.001  0.113648  -3.8e-05  4.099571  0.0  0.064795  0.120646  0.00199  4.051521  0.002
C  C64  1  0.42736338  0.45523196  0.28690307  1  0.123659  9.4e-05  3.819801  0.001  0.11977  0.000609  4.073317  0.001  0.11525  -0.000326  4.10186  0.0  0.065555  0.122361  0.001944  4.054186  0.002
C  C65  1  0.16910983  0.04464509  0.21326116  1  0.122369  0.00043  3.816655  0.001  0.118041  0.000965  4.071252  0.001  0.113636  -3.8e-05  4.099783  0.0  0.064784  0.120637  0.00199  4.051732  0.002
C  C66  1  0.66521470  0.61904927  0.64224768  1  -0.166855  -0.012993  3.753819  -0.007  -0.187176  -0.002987  4.00628  0.0  -0.184466  -0.003802  4.027961  -0.001  -0.11533  -0.188782  -0.003203  3.990959  0.0
C  C67  1  0.92702543  0.88096268  0.85759929  1  -0.164624  -0.013007  3.749878  -0.007  -0.185013  -0.00299  4.002906  -0.001  -0.182416  -0.003864  4.024627  -0.001  -0.114439  -0.185859  -0.003283  3.987257  0.0
C  C68  1  0.33478628  0.38095235  0.35775308  1  -0.166963  -0.013013  3.753902  -0.007  -0.187284  -0.002989  4.006361  0.0  -0.184564  -0.003802  4.028059  -0.001  -0.115337  -0.188881  -0.003204  3.991032  0.0
C  C69  1  0.07297849  0.11903895  0.14239970  1  -0.164523  -0.012989  3.749954  -0.007  -0.184898  -0.002992  4.00298  -0.001  -0.182303  -0.003864  4.024701  -0.001  -0.11434  -0.185743  -0.003283  3.987329  0.0
C  C70  1  0.77207417  0.51088264  0.57639890  1  -0.189884  0.007168  3.810029  0.009  -0.200986  0.002468  4.064729  0.003  -0.210579  0.002068  4.086411  0.003  -0.131562  -0.194396  0.00317  4.049888  0.004
C  C71  1  0.85972928  0.98890914  0.92362335  1  -0.190534  0.007179  3.811755  0.009  -0.201904  0.002489  4.06633  0.003  -0.211404  0.002097  4.088025  0.003  -0.131259  -0.195528  0.003182  4.051305  0.004
C  C72  1  0.22792686  0.48911663  0.42360417  1  -0.18993  0.007177  3.80985  0.009  -0.201039  0.002469  4.064583  0.003  -0.21063  0.002068  4.086256  0.003  -0.131591  -0.194445  0.00317  4.049737  0.004
C  C73  1  0.14027097  0.01109485  0.07637575  1  -0.190519  0.007172  3.811777  0.009  -0.201917  0.002489  4.066358  0.003  -0.211412  0.002097  4.088047  0.003  -0.131328  -0.195539  0.003182  4.051332  0.004
C  C74  1  0.74243984  0.37381049  0.60838235  1  0.090305  -0.022546  3.69155  -0.014  0.059467  -0.007327  3.956852  -0.004  0.071359  -0.008202  3.971204  -0.005  0.017508  0.05058  -0.007594  3.947242  -0.003
C  C75  1  0.72485483  0.12593592  0.89171369  1  0.089977  -0.022247  3.694623  -0.013  0.059192  -0.007135  3.959692  -0.004  0.07105  -0.008062  3.97416  -0.004  0.017758  0.050901  -0.007559  3.950175  -0.003
C  C76  1  0.25755981  0.62618996  0.39161804  1  0.090342  -0.022564  3.691486  -0.014  0.059515  -0.007329  3.956779  -0.004  0.071417  -0.008201  3.971137  -0.005  0.017527  0.050629  -0.007594  3.947171  -0.003
C  C77  1  0.27514649  0.87406807  0.10828321  1  0.08992  -0.022232  3.694669  -0.013  0.059135  -0.007136  3.959731  -0.004  0.070994  -0.00806  3.974205  -0.004  0.017754  0.050847  -0.007558  3.950215  -0.003
C  C78  1  0.42119486  0.76977141  0.80808669  1  0.119552  -0.000782  3.75609  -0.001  0.132078  0.001381  3.981194  0.002  0.135872  0.000945  4.001359  0.001  0.017785  0.129189  0.002352  3.967898  0.003
C  C79  1  0.99918082  0.73026954  0.69181093  1  0.120123  -4.9e-05  3.757616  0.0  0.132713  0.001643  3.982752  0.002  0.136598  0.001137  4.002679  0.001  0.018404  0.129639  0.002439  3.969782  0.003
C  C80  1  0.57880205  0.23023140  0.19191403  1  0.119558  -0.000777  3.755974  -0.001  0.132067  0.001379  3.981078  0.002  0.135862  0.000944  4.001237  0.001  0.017741  0.129177  0.00235  3.967786  0.003
C  C81  1  0.00082334  0.26972735  0.30819028  1  0.120173  -4.6e-05  3.757577  0.0  0.13272  0.001643  3.982777  0.002  0.136607  0.001136  4.002703  0.001  0.018375  0.129647  0.002438  3.969808  0.003
C  C82  1  0.33025006  0.89792171  0.75084753  1  -0.158749  0.001418  3.703484  0.002  -0.174084  7.2e-05  3.945944  0.001  -0.180638  -0.0002  3.96522  0.0  -0.081756  -0.169494  0.000332  3.933058  0.001
C  C83  1  0.97905875  0.60215344  0.74902534  1  -0.156629  0.001122  3.702983  0.002  -0.171901  -5.8e-05  3.945279  0.001  -0.178506  -0.000317  3.964598  0.0  -0.081172  -0.167804  0.000292  3.933196  0.001
C  C84  1  0.66975196  0.10208110  0.24915272  1  -0.158644  0.001414  3.703478  0.002  -0.173962  7.4e-05  3.945893  0.001  -0.180516  -0.000201  3.965169  0.0  -0.081715  -0.169372  0.000333  3.933011  0.001
C  C85  1  0.02094215  0.39784463  0.25097275  1  -0.156659  0.001119  3.702923  0.002  -0.171917  -5.7e-05  3.945241  0.001  -0.178522  -0.000317  3.964561  0.0  -0.081152  -0.167822  0.000292  3.933161  0.001
C  C86  1  0.32145846  0.04532525  0.75282035  1  0.124121  -0.001267  3.719051  0.0  0.096098  0.001331  3.977247  0.002  0.104518  0.000755  3.993331  0.001  0.04404  0.089858  0.002203  3.967231  0.003
C  C87  1  0.11960234  0.45469730  0.74706867  1  0.122298  -0.00075  3.719815  0.0  0.094215  0.001501  3.978606  0.002  0.102709  0.000893  3.994755  0.001  0.043229  0.088087  0.002258  3.968608  0.003
C  C88  1  0.67854504  0.95467756  0.24718186  1  0.124116  -0.001261  3.719176  0.0  0.096088  0.001329  3.977358  0.002  0.104506  0.000754  3.993439  0.001  0.043947  0.089847  0.002202  3.967349  0.003
C  C89  1  0.88039745  0.54530195  0.25292762  1  0.122323  -0.000748  3.719856  0.0  0.094246  0.0015  3.978639  0.002  0.102741  0.000893  3.994788  0.001  0.043232  0.088117  0.002257  3.968645  0.003
C  C90  1  0.46885332  0.95290486  0.86917216  1  0.129793  -0.000403  3.709236  0.0  0.101463  0.002066  3.969781  0.003  0.110314  0.00119  3.987052  0.002  0.046145  0.094901  0.003371  3.958896  0.004
C  C91  1  0.29079242  0.54696403  0.63068630  1  0.129735  -0.000227  3.711396  0.001  0.101987  0.001996  3.971786  0.003  0.11083  0.001162  3.989015  0.002  0.046429  0.095607  0.003415  3.960933  0.004
C  C92  1  0.53114677  0.04709441  0.13083070  1  0.129809  -0.000399  3.709153  0.0  0.10153  0.002063  3.969661  0.003  0.110374  0.001189  3.986936  0.002  0.046243  0.094981  0.00337  3.958763  0.004
C  C93  1  0.70920921  0.45303168  0.36931345  1  0.129687  -0.000225  3.711432  0.001  0.101942  0.001995  3.971833  0.003  0.110783  0.001161  3.989065  0.002  0.046392  0.095567  0.003415  3.960981  0.004
C  C94  1  0.48589833  0.80068378  0.87094577  1  -0.169011  0.001346  3.696698  0.002  -0.184499  -7.8e-05  3.940623  0.001  -0.191951  -0.000187  3.960351  0.0  -0.084619  -0.179927  3.8e-05  3.927898  0.001
C  C95  1  0.15758507  0.69931177  0.62899143  1  -0.169665  0.00109  3.699614  0.002  -0.185236  -0.000148  3.943293  0.0  -0.192706  -0.000304  3.963008  0.0  -0.084589  -0.180467  3e-06  3.930503  0.001
C  C96  1  0.51409838  0.19931667  0.12905638  1  -0.169044  0.001342  3.696655  0.002  -0.184545  -7.6e-05  3.940581  0.001  -0.191998  -0.000185  3.960309  0.0  -0.084642  -0.179971  3.9e-05  3.927852  0.001
C  C97  1  0.84241786  0.30068631  0.37101037  1  -0.16966  0.001087  3.699671  0.002  -0.185211  -0.000148  3.94337  0.0  -0.192676  -0.000304  3.963082  0.0  -0.08455  -0.18044  3e-06  3.930576  0.001
N  N98  1  0.37783268  0.38442408  0.86097646  1  -0.359944  0.056129  3.291929  0.086  -0.315187  0.036155  3.584821  0.056  -0.342591  0.029041  3.60906  0.048  -0.358929  -0.296097  0.042307  3.567576  0.063
N  N99  1  0.62342518  0.11554908  0.63889715  1  -0.360336  0.056096  3.292825  0.086  -0.315482  0.036257  3.585911  0.057  -0.342868  0.029098  3.610202  0.048  -0.358775  -0.296446  0.04234  3.569111  0.063
N  N100  1  0.62216420  0.61557991  0.13902024  1  -0.360002  0.056126  3.291785  0.086  -0.315292  0.036155  3.584781  0.056  -0.3427  0.02904  3.609027  0.048  -0.358981  -0.296207  0.042307  3.567545  0.063
N  N101  1  0.37657699  0.88444664  0.36110434  1  -0.360225  0.0561  3.292665  0.086  -0.315447  0.036258  3.585816  0.057  -0.342826  0.029099  3.610096  0.048  -0.358776  -0.296421  0.042342  3.569031  0.063
N  N102  1  0.62320114  0.39413304  0.68869733  1  -0.341076  0.076915  3.299778  0.118  -0.302332  0.047983  3.593296  0.075  -0.331786  0.037238  3.617472  0.062  -0.3594  -0.281342  0.057728  3.57534  0.087
N  N103  1  0.70626242  0.10582279  0.81128698  1  -0.339757  0.076863  3.299852  0.118  -0.30118  0.047985  3.59351  0.075  -0.330675  0.037173  3.617776  0.062  -0.359367  -0.280376  0.057759  3.575835  0.087
N  N104  1  0.37679551  0.60586977  0.31130251  1  -0.341074  0.076918  3.299776  0.118  -0.302324  0.047982  3.593292  0.075  -0.331778  0.037237  3.617466  0.062  -0.359397  -0.281335  0.057727  3.575342  0.087
N  N105  1  0.29373952  0.89417647  0.18871061  1  -0.339808  0.076855  3.299843  0.118  -0.301216  0.047984  3.593481  0.075  -0.330712  0.037172  3.617748  0.062  -0.359387  -0.280412  0.057758  3.57581  0.087
N  N106  1  0.39381391  0.07329345  0.80891025  1  -0.297862  0.030822  3.218752  0.047  -0.253998  0.025326  3.500308  0.039  -0.276296  0.018964  3.518613  0.031  -0.313679  -0.239151  0.031734  3.489519  0.046
N  N107  1  0.27587755  0.42659543  0.69091718  1  -0.297611  0.030321  3.216756  0.046  -0.254858  0.024986  3.499567  0.038  -0.277136  0.018672  3.517821  0.031  -0.313407  -0.23977  0.031682  3.487677  0.045
N  N108  1  0.60618398  0.92670818  0.19109468  1  -0.297887  0.030822  3.218831  0.047  -0.254084  0.025329  3.500437  0.039  -0.276378  0.018966  3.518741  0.031  -0.313683  -0.239238  0.031737  3.489654  0.046
N  N109  1  0.72412297  0.57340147  0.30908075  1  -0.297577  0.030322  3.216748  0.046  -0.254813  0.024987  3.49953  0.038  -0.277093  0.018672  3.517789  0.031  -0.313375  -0.239728  0.031684  3.487646  0.045
