# generated using pymatgen
data_CdH24C22N6O5
_symmetry_space_group_name_H-M   'P 1'
_cell_length_a   8.21915932
_cell_length_b   10.45060975
_cell_length_c   29.25155902
_cell_angle_alpha   94.48615744
_cell_angle_beta   90.00002586
_cell_angle_gamma   90.00039449
_symmetry_Int_Tables_number   1
_chemical_formula_structural   CdH24C22N6O5
_chemical_formula_sum   'Cd4 H96 C88 N24 O20'
_cell_volume   2504.87142960
_cell_formula_units_Z   4
loop_
 _symmetry_equiv_pos_site_id
 _symmetry_equiv_pos_as_xyz
  1  'x, y, z'
loop_
 _atom_site_type_symbol
 _atom_site_label
 _atom_site_symmetry_multiplicity
 _atom_site_fract_x
 _atom_site_fract_y
 _atom_site_fract_z
 _atom_site_occupancy
 _atom_site_pbe_bader_charge
 _atom_site_pbe_bader_spin_density
 _atom_site_pbe_cm5_charge
 _atom_site_pbe_ddec_charge
 _atom_site_pbe_ddec_spin_density
 _atom_site_pbe_ddec_sum_bond_order
 _atom_site_pbe_magmom
Cd  Cd0  1  0.64185952  0.56125615  0.75838468  1  1.280644  0  0.760346  0.884229  0  2.190244  0
Cd  Cd1  1  0.14185626  0.93874616  0.74161399  1  1.280555  0  0.760385  0.884274  0  2.190153  0
Cd  Cd2  1  0.35814826  0.43873965  0.24161478  1  1.280501  0  0.760372  0.884294  0  2.190218  0
Cd  Cd3  1  0.85814056  0.06126593  0.25838451  1  1.280637  0  0.760387  0.884321  0  2.190223  0
H  H4  1  0.77268421  0.34181113  0.31692341  1  0.263022  0  0.136747  0.117992  0  1.063694  0
H  H5  1  0.27266621  0.15819211  0.18307717  1  0.263923  0  0.136825  0.11807  0  1.06353  0
H  H6  1  0.22731870  0.65819431  0.68307799  1  0.263242  0  0.136737  0.118003  0  1.063638  0
H  H7  1  0.72731845  0.84181046  0.81692417  1  0.263307  0  0.136759  0.118002  0  1.063659  0
H  H8  1  0.12636007  0.28244635  0.47877768  1  0.115307  0  0.094042  0.089171  0  1.068488  0
H  H9  1  0.62634971  0.21752527  0.02121765  1  0.115611  0  0.094094  0.089262  0  1.068417  0
H  H10  1  0.87364284  0.71754183  0.52122398  1  0.115229  0  0.094083  0.089268  0  1.068518  0
H  H11  1  0.37363130  0.78246665  0.97877966  1  0.115599  0  0.094083  0.089218  0  1.068448  0
H  H12  1  0.47622302  0.24205593  0.58692634  1  0.062155  0  0.096122  0.093369  0  1.026272  0
H  H13  1  0.97622827  0.25793920  0.91307284  1  0.062235  0  0.096086  0.093257  0  1.026264  0
H  H14  1  0.52376529  0.75793510  0.41307368  1  0.062267  0  0.09609  0.093275  0  1.026151  0
H  H15  1  0.02376004  0.74206239  0.08692779  1  0.062126  0  0.096087  0.093307  0  1.026112  0
H  H16  1  0.82960975  0.26793136  0.71311415  1  0.23143  0  0.140694  0.126795  0  1.039555  0
H  H17  1  0.32959866  0.23206391  0.78688399  1  0.23152  0  0.140695  0.126772  0  1.039587  0
H  H18  1  0.17041507  0.73206642  0.28688776  1  0.231611  0  0.140686  0.126764  0  1.03957  0
H  H19  1  0.67040547  0.76793278  0.21311207  1  0.231608  0  0.140701  0.126742  0  1.03956  0
H  H20  1  0.32850463  0.24355970  0.43515369  1  0.058356  0  0.097489  0.09576  0  1.034403  0
H  H21  1  0.82849711  0.25644088  0.06484376  1  0.058239  0  0.097522  0.095734  0  1.034442  0
H  H22  1  0.67149829  0.75643716  0.56484990  1  0.058208  0  0.097521  0.095757  0  1.034426  0
H  H23  1  0.17147660  0.74357026  0.93515540  1  0.058328  0  0.097516  0.095805  0  1.034445  0
H  H24  1  0.82451010  0.45154597  0.50314908  1  0.054171  0  0.101164  0.10282  0  1.006564  0
H  H25  1  0.32450748  0.04845608  0.99685299  1  0.054139  0  0.101181  0.102833  0  1.006629  0
H  H26  1  0.17548551  0.54845196  0.49685898  1  0.054146  0  0.101166  0.102842  0  1.006599  0
H  H27  1  0.67546988  0.95154067  0.00314581  1  0.054578  0  0.101142  0.102819  0  1.00651  0
H  H28  1  0.90634600  0.23356554  0.53128933  1  0.082727  0  0.098842  0.100226  0  1.026413  0
H  H29  1  0.40634404  0.26640993  0.96870593  1  0.082786  0  0.098893  0.100354  0  1.026242  0
H  H30  1  0.09364718  0.76642065  0.46870955  1  0.082828  0  0.098884  0.100266  0  1.026429  0
H  H31  1  0.59364062  0.73359153  0.03128922  1  0.082921  0  0.098862  0.10027  0  1.02647  0
H  H32  1  0.10892786  0.07924886  0.36481787  1  0.114069  0  0.130801  0.088822  0  1.019659  0
H  H33  1  0.60893530  0.42074682  0.13518455  1  0.114059  0  0.130825  0.088841  0  1.019588  0
H  H34  1  0.89107871  0.92075457  0.63517973  1  0.11415  0  0.130849  0.088798  0  1.019665  0
H  H35  1  0.39107005  0.57924318  0.86481271  1  0.114205  0  0.130841  0.088893  0  1.019666  0
H  H36  1  0.61054391  0.38120158  0.55355698  1  0.097823  0  0.093529  0.084995  0  1.066999  0
H  H37  1  0.11054304  0.11878194  0.94644050  1  0.097792  0  0.093567  0.085034  0  1.066796  0
H  H38  1  0.38944927  0.61878859  0.44644713  1  0.098024  0  0.09354  0.085008  0  1.067041  0
H  H39  1  0.88944162  0.88120897  0.05355474  1  0.097901  0  0.093552  0.085036  0  1.066978  0
H  H40  1  0.82801159  0.13698214  0.60311767  1  0.057494  0  0.114793  0.099602  0  0.971126  0
H  H41  1  0.32801279  0.36302274  0.89688173  1  0.057581  0  0.1148  0.099561  0  0.971107  0
H  H42  1  0.17198524  0.86301091  0.39688685  1  0.05712  0  0.114786  0.099622  0  0.971118  0
H  H43  1  0.67198404  0.63699022  0.10311336  1  0.057171  0  0.114802  0.099594  0  0.971166  0
H  H44  1  0.96610604  0.13722120  0.65033383  1  0.087453  0  0.124752  0.120553  0  0.984297  0
H  H45  1  0.46610230  0.36277870  0.84966649  1  0.08744  0  0.124765  0.120583  0  0.98427  0
H  H46  1  0.03391390  0.86277274  0.34966797  1  0.087582  0  0.124803  0.120703  0  0.984102  0
H  H47  1  0.53389818  0.63723235  0.15032856  1  0.087674  0  0.12481  0.120699  0  0.984097  0
H  H48  1  0.71293738  0.59067520  0.64144983  1  0.150852  0  0.134893  0.10639  0  0.998602  0
H  H49  1  0.21292189  0.90933044  0.85855201  1  0.150787  0  0.134911  0.106399  0  0.998688  0
H  H50  1  0.28710933  0.40933021  0.35855021  1  0.151187  0  0.134953  0.106457  0  0.998613  0
H  H51  1  0.78707980  0.09067982  0.14145020  1  0.150694  0  0.134889  0.106354  0  0.99861  0
H  H52  1  0.25403589  0.19289646  0.63937220  1  0.137789  0  0.098355  0.111125  0  1.056221  0
H  H53  1  0.75404879  0.30711376  0.86062664  1  0.137424  0  0.09836  0.11104  0  1.056234  0
H  H54  1  0.74594756  0.80709251  0.36062265  1  0.13757  0  0.098383  0.111175  0  1.055993  0
H  H55  1  0.24594804  0.69290225  0.13937537  1  0.137537  0  0.098372  0.111155  0  1.056122  0
H  H56  1  0.77970152  0.50493929  0.38649960  1  0.100167  0  0.118094  0.108286  0  0.979153  0
H  H57  1  0.27969490  0.99506337  0.11349999  1  0.10021  0  0.118102  0.108302  0  0.979218  0
H  H58  1  0.22030504  0.49506051  0.61350646  1  0.099942  0  0.118079  0.108239  0  0.979319  0
H  H59  1  0.72028368  0.00494300  0.88650008  1  0.10023  0  0.118133  0.108363  0  0.979112  0
H  H60  1  0.92815705  0.48673211  0.42929391  1  0.121422  0  0.116265  0.103047  0  1.008456  0
H  H61  1  0.42814975  0.01327199  0.07070740  1  0.121517  0  0.116293  0.103138  0  1.008473  0
H  H62  1  0.07184343  0.51325899  0.57070920  1  0.121372  0  0.116263  0.103124  0  1.008354  0
H  H63  1  0.57182640  0.98672393  0.92929650  1  0.121614  0  0.116243  0.103075  0  1.008418  0
H  H64  1  0.54515844  0.31453322  0.38470159  1  0.034066  0  0.10097  0.103552  0  1.009434  0
H  H65  1  0.04515639  0.18547250  0.11529390  1  0.034246  0  0.100985  0.103559  0  1.009407  0
H  H66  1  0.45483474  0.68547025  0.61529738  1  0.034127  0  0.100986  0.103543  0  1.009467  0
H  H67  1  0.95483071  0.81453569  0.88470211  1  0.034122  0  0.100995  0.103579  0  1.009394  0
H  H68  1  0.09556926  0.37827934  0.75079178  1  0.058862  0  0.099711  0.158993  0  1.011455  0
H  H69  1  0.59556208  0.12172141  0.74920783  1  0.058474  0  0.099683  0.158968  0  1.011381  0
H  H70  1  0.90444339  0.62172032  0.24920846  1  0.058828  0  0.099707  0.158993  0  1.011264  0
H  H71  1  0.40442502  0.87827525  0.25078755  1  0.058626  0  0.099722  0.159037  0  1.01154  0
H  H72  1  0.20674443  0.28836392  0.70815160  1  0.108797  0  0.100629  0.167726  0  1.015839  0
H  H73  1  0.70673690  0.21163171  0.79184961  1  0.108822  0  0.100659  0.167738  0  1.015803  0
H  H74  1  0.79326214  0.71163094  0.29184852  1  0.108839  0  0.100653  0.167713  0  1.015853  0
H  H75  1  0.29323438  0.78836212  0.20814775  1  0.109039  0  0.100607  0.167772  0  1.015637  0
H  H76  1  0.11749995  0.43961833  0.69611683  1  0.054407  0  0.089101  0.137003  0  1.030247  0
H  H77  1  0.61749475  0.06037296  0.80388323  1  0.05442  0  0.089101  0.136975  0  1.030256  0
H  H78  1  0.88250296  0.56037945  0.30388472  1  0.054565  0  0.089126  0.137002  0  1.030216  0
H  H79  1  0.38248747  0.93962183  0.19611381  1  0.054182  0  0.089128  0.136987  0  1.030314  0
H  H80  1  0.17397577  0.51856573  0.83104730  1  0.036683  0  0.093459  0.139909  0  1.037638  0
H  H81  1  0.67397894  0.98143583  0.66895272  1  0.036674  0  0.093462  0.139911  0  1.037599  0
H  H82  1  0.82603079  0.48144067  0.16895379  1  0.036773  0  0.093465  0.139943  0  1.037536  0
H  H83  1  0.32602762  0.01856282  0.33104544  1  0.036706  0  0.09349  0.139941  0  1.037578  0
H  H84  1  0.06583150  0.37891831  0.84653952  1  0.047103  0  0.093814  0.144506  0  1.014951  0
H  H85  1  0.56584241  0.12108031  0.65345832  1  0.047156  0  0.093815  0.144497  0  1.015057  0
H  H86  1  0.93416776  0.62108424  0.15346147  1  0.047075  0  0.093834  0.144537  0  1.014917  0
H  H87  1  0.43417023  0.87892793  0.34653974  1  0.047254  0  0.093868  0.144565  0  1.014963  0
H  H88  1  0.03429856  0.53061777  0.87760542  1  0.066816  0  0.102141  0.159883  0  0.985978  0
H  H89  1  0.53430033  0.96938682  0.62239295  1  0.066786  0  0.102145  0.159855  0  0.986014  0
H  H90  1  0.96570070  0.46938762  0.12239394  1  0.065475  0  0.10217  0.159901  0  0.986005  0
H  H91  1  0.46570015  0.03062048  0.37760577  1  0.066783  0  0.102171  0.159897  0  0.98598  0
H  H92  1  0.76331096  0.80533423  0.73741938  1  0.617509  0  0.288008  0.379133  0  0.956863  0
H  H93  1  0.26332261  0.69466968  0.76257900  1  0.617148  0  0.288041  0.379097  0  0.956905  0
H  H94  1  0.23668466  0.19466351  0.26258081  1  0.617395  0  0.287996  0.379057  0  0.956955  0
H  H95  1  0.73668030  0.30533475  0.23742033  1  0.617148  0  0.288039  0.379143  0  0.956854  0
H  H96  1  0.58815916  0.79645358  0.71418513  1  0.636888  0  0.278956  0.381376  0  0.963602  0
H  H97  1  0.08817581  0.70354938  0.78581286  1  0.637021  0  0.278922  0.381376  0  0.963616  0
H  H98  1  0.41183645  0.20354703  0.28581479  1  0.636842  0  0.27896  0.381383  0  0.963598  0
H  H99  1  0.91183197  0.29645696  0.21418617  1  0.636902  0  0.278937  0.381395  0  0.963601  0
C  C100  1  0.85890207  0.29182997  0.33772338  1  0.930558  0  0.158553  0.081454  0  3.882134  0
C  C101  1  0.35889786  0.20817282  0.16227891  1  0.937082  0  0.158628  0.081554  0  3.881744  0
C  C102  1  0.14110449  0.70817837  0.66227844  1  0.930179  0  0.158698  0.081569  0  3.881819  0
C  C103  1  0.64110140  0.79183070  0.83772210  1  0.937728  0  0.158665  0.081624  0  3.881837  0
C  C104  1  0.15680352  0.26394714  0.51396450  1  -0.054584  0  -0.093455  -0.127299  0  3.967445  0
C  C105  1  0.65679776  0.23603278  0.98603255  1  -0.055352  0  -0.093391  -0.127232  0  3.967334  0
C  C106  1  0.84320425  0.73604396  0.48603860  1  -0.054948  0  -0.093439  -0.127211  0  3.967508  0
C  C107  1  0.34319299  0.76396108  0.01396584  1  -0.055302  0  -0.093444  -0.127239  0  3.967623  0
C  C108  1  0.45248357  0.30527233  0.49844692  1  -0.015789  0  -0.00891  0.062675  0  3.995205  0
C  C109  1  0.95247662  0.19472894  0.00155125  1  -0.016011  0  -0.008832  0.062638  0  3.995395  0
C  C110  1  0.54752421  0.69473410  0.50155554  1  -0.016056  0  -0.008779  0.062799  0  3.99532  0
C  C111  1  0.04750318  0.80527836  0.99844747  1  -0.015864  0  -0.008864  0.062725  0  3.995283  0
C  C112  1  0.35091944  0.24292415  0.57464074  1  -0.08004  0  -0.093844  -0.125076  0  3.977276  0
C  C113  1  0.85091619  0.25706546  0.92535658  1  -0.079679  0  -0.093852  -0.124938  0  3.977299  0
C  C114  1  0.64909199  0.75705820  0.42535770  1  -0.079518  0  -0.093882  -0.124966  0  3.977386  0
C  C115  1  0.14907820  0.74293993  0.07464278  1  -0.079626  0  -0.093707  -0.124735  0  3.977058  0
C  C116  1  0.80892786  0.33494131  0.68690133  1  0.951569  0  0.162573  0.084289  0  3.883078  0
C  C117  1  0.30891135  0.16506444  0.81309877  1  0.951403  0  0.162633  0.084334  0  3.883097  0
C  C118  1  0.19110304  0.66506031  0.31310067  1  0.951232  0  0.162562  0.084326  0  3.883242  0
C  C119  1  0.69108548  0.83494186  0.18689855  1  0.951501  0  0.16268  0.084533  0  3.882913  0
C  C120  1  0.43761575  0.28831993  0.45038590  1  -0.043948  0  -0.091975  -0.123108  0  3.978174  0
C  C121  1  0.93760417  0.21168223  0.04961228  1  -0.044025  0  -0.092032  -0.1231  0  3.978276  0
C  C122  1  0.56239203  0.71167882  0.54961602  1  -0.044168  0  -0.092072  -0.123134  0  3.978214  0
C  C123  1  0.06237198  0.78833083  0.95038658  1  -0.043927  0  -0.092012  -0.12311  0  3.978586  0
C  C124  1  0.71670932  0.40420798  0.48805762  1  -0.03697  0  -0.087753  -0.120549  0  3.988059  0
C  C125  1  0.21669656  0.09577861  0.01194117  1  -0.036953  0  -0.0878  -0.120737  0  3.988003  0
C  C126  1  0.28329846  0.59578697  0.51194592  1  -0.036507  0  -0.087669  -0.120479  0  3.987733  0
C  C127  1  0.78327837  0.90420563  0.98805595  1  -0.037459  0  -0.087688  -0.120341  0  3.987661  0
C  C128  1  0.92103876  0.51386652  0.81152375  1  1.533226  0  0.195795  0.663647  0  4.171364  0
C  C129  1  0.42103705  0.98614023  0.68847678  1  1.533224  0  0.195683  0.663488  0  4.17176  0
C  C130  1  0.07896537  0.48613692  0.18847385  1  1.533205  0  0.195765  0.663621  0  4.171361  0
C  C131  1  0.57896830  0.01387390  0.31152656  1  1.533222  0  0.195804  0.663622  0  4.171486  0
C  C132  1  0.31958907  0.26941307  0.52905047  1  -0.040463  0  -0.007501  0.067871  0  3.990494  0
C  C133  1  0.81958931  0.23057735  0.97094754  1  -0.03996  0  -0.007478  0.067962  0  3.990443  0
C  C134  1  0.68040898  0.73057899  0.47095265  1  -0.039921  0  -0.007496  0.06779  0  3.9903  0
C  C135  1  0.18040022  0.76942512  0.02904969  1  -0.040253  0  -0.00751  0.067813  0  3.990265  0
C  C136  1  0.06373302  0.21457708  0.58941777  1  -0.033387  0  -0.019434  0.079986  0  3.99943  0
C  C137  1  0.56373365  0.28541671  0.91057892  1  -0.033241  0  -0.019379  0.080071  0  3.99926  0
C  C138  1  0.93627597  0.78540335  0.41058062  1  -0.032772  0  -0.019436  0.079973  0  3.999294  0
C  C139  1  0.43626318  0.71458768  0.08941870  1  -0.032889  0  -0.01938  0.080088  0  3.99939  0
C  C140  1  0.03152176  0.23630669  0.54368092  1  -0.069837  0  -0.091684  -0.128483  0  3.996598  0
C  C141  1  0.53153078  0.26367252  0.95631472  1  -0.069887  0  -0.091899  -0.128856  0  3.99673  0
C  C142  1  0.96846899  0.76367568  0.45631820  1  -0.070323  0  -0.091821  -0.128674  0  3.997067  0
C  C143  1  0.46846361  0.73632225  0.04368163  1  -0.070106  0  -0.091824  -0.128694  0  3.997047  0
C  C144  1  0.02860370  0.16087078  0.36308316  1  1.001162  0  0.143941  0.143423  0  4.018318  0
C  C145  1  0.52860677  0.33913120  0.13692009  1  1.001172  0  0.143925  0.143455  0  4.018034  0
C  C146  1  0.97139800  0.83913276  0.63691854  1  1.001301  0  0.143989  0.143595  0  4.018091  0
C  C147  1  0.47138762  0.66086363  0.86307900  1  1.000821  0  0.143886  0.143331  0  4.018064  0
C  C148  1  0.59512860  0.36307362  0.51664334  1  -0.016143  0  -0.089745  -0.120667  0  3.978171  0
C  C149  1  0.09511578  0.13691271  0.98335522  1  -0.015947  0  -0.089792  -0.120612  0  3.97812  0
C  C150  1  0.40487675  0.63692611  0.48335963  1  -0.016309  0  -0.089818  -0.120784  0  3.97829  0
C  C151  1  0.90485671  0.86307156  0.01664327  1  -0.016077  0  -0.08984  -0.120905  0  3.978211  0
C  C152  1  0.92592210  0.19100252  0.62160411  1  0.299398  0  -0.041263  -0.14067  0  3.896406  0
C  C153  1  0.42591793  0.30900196  0.87839632  1  0.299274  0  -0.041275  -0.14067  0  3.89617  0
C  C154  1  0.07408690  0.80899048  0.37839836  1  0.299549  0  -0.041285  -0.140851  0  3.89647  0
C  C155  1  0.57407890  0.69100908  0.12159873  1  0.299223  0  -0.041341  -0.14081  0  3.896476  0
C  C156  1  0.75279749  0.49583107  0.64908304  1  0.981369  0  0.142963  0.136809  0  3.997932  0
C  C157  1  0.25277841  0.00416768  0.85091757  1  0.98134  0  0.142864  0.136658  0  3.997827  0
C  C158  1  0.24724800  0.50417439  0.35091871  1  0.98124  0  0.14289  0.136834  0  3.997816  0
C  C159  1  0.74722328  0.99583391  0.14908340  1  0.98153  0  0.142911  0.136805  0  3.998018  0
C  C160  1  0.69986442  0.38929096  0.44046561  1  -0.056204  0  -0.015769  0.08674  0  3.979292  0
C  C161  1  0.19984093  0.11070521  0.05953683  1  -0.055858  0  -0.015792  0.086831  0  3.979003  0
C  C162  1  0.30015917  0.61069926  0.55954089  1  -0.056168  0  -0.015864  0.086754  0  3.979255  0
C  C163  1  0.80012792  0.88928774  0.94046358  1  -0.056155  0  -0.015735  0.086783  0  3.979347  0
C  C164  1  0.22548316  0.21603730  0.60450032  1  -0.065661  0  -0.095556  -0.13708  0  3.977837  0
C  C165  1  0.72549348  0.28395166  0.89549833  1  -0.065806  0  -0.095546  -0.137053  0  3.97785  0
C  C166  1  0.77451123  0.78393644  0.39549927  1  -0.066072  0  -0.095549  -0.137179  0  3.977889  0
C  C167  1  0.27450578  0.71605565  0.10450107  1  -0.065784  0  -0.095677  -0.13738  0  3.977964  0
C  C168  1  0.33399420  0.45279823  0.73835707  1  1.505617  0  0.194746  0.668119  0  4.157899  0
C  C169  1  0.83398760  0.04720199  0.76164632  1  1.505564  0  0.194703  0.668024  0  4.15786  0
C  C170  1  0.66601601  0.54720050  0.26164417  1  1.505577  0  0.194617  0.667907  0  4.158242  0
C  C171  1  0.16600679  0.95279483  0.23835556  1  1.505584  0  0.194708  0.668119  0  4.157932  0
C  C172  1  0.83006527  0.43725355  0.40970969  1  0.260293  0  -0.042785  -0.143979  0  3.912758  0
C  C173  1  0.33005479  0.06274616  0.09029081  1  0.26011  0  -0.042793  -0.144055  0  3.912805  0
C  C174  1  0.16993642  0.56274242  0.59029626  1  0.260624  0  -0.042648  -0.143938  0  3.912671  0
C  C175  1  0.66991892  0.93725058  0.90970799  1  0.259773  0  -0.042775  -0.144148  0  3.912853  0
C  C176  1  0.55930962  0.32953152  0.42189885  1  -0.027609  0  -0.094904  -0.136904  0  3.989  0
C  C177  1  0.05929034  0.17046183  0.07809770  1  -0.027965  0  -0.094909  -0.136865  0  3.989146  0
C  C178  1  0.44070546  0.67045467  0.57809969  1  -0.027793  0  -0.094902  -0.136896  0  3.989385  0
C  C179  1  0.94068824  0.82953874  0.92190051  1  -0.027628  0  -0.094987  -0.137082  0  3.989478  0
C  C180  1  0.17915203  0.38665213  0.72189660  1  -0.097025  0  -0.25223  -0.53205  0  3.880137  0
C  C181  1  0.67914361  0.11334725  0.77810675  1  -0.096875  0  -0.252256  -0.53201  0  3.880054  0
C  C182  1  0.82085454  0.61334856  0.27810640  1  -0.097363  0  -0.252308  -0.532027  0  3.879935  0
C  C183  1  0.32084714  0.88665242  0.22189383  1  -0.096868  0  -0.252259  -0.532118  0  3.880118  0
C  C184  1  0.05815843  0.48252087  0.84344618  1  -0.075854  0  -0.247769  -0.528863  0  3.903656  0
C  C185  1  0.55816112  0.01748255  0.65655315  1  -0.075925  0  -0.247796  -0.528832  0  3.903725  0
C  C186  1  0.94184814  0.51748164  0.15655310  1  -0.074563  0  -0.247836  -0.528991  0  3.903616  0
C  C187  1  0.44184787  0.98252860  0.34344635  1  -0.075919  0  -0.24789  -0.528983  0  3.903712  0
N  N188  1  0.85411238  0.31022068  0.64284560  1  -0.807872  0  -0.133502  0.161083  0  3.723538  0
N  N189  1  0.35409982  0.18978532  0.85715452  1  -0.807689  0  -0.133489  0.161136  0  3.723184  0
N  N190  1  0.14590635  0.68977520  0.35715728  1  -0.807722  0  -0.133552  0.161005  0  3.723486  0
N  N191  1  0.64589458  0.81022770  0.14284264  1  -0.808002  0  -0.133558  0.160908  0  3.723808  0
N  N192  1  0.90212568  0.33232732  0.38070159  1  -0.826821  0  -0.133185  0.170026  0  3.750097  0
N  N193  1  0.40211496  0.16767565  0.11929866  1  -0.826229  0  -0.133217  0.169902  0  3.750014  0
N  N194  1  0.09787723  0.66767525  0.61930009  1  -0.826136  0  -0.1333  0.16994  0  3.750105  0
N  N195  1  0.59786605  0.83232108  0.88069945  1  -0.826206  0  -0.133236  0.170005  0  3.750173  0
N  N196  1  0.74418088  0.45254884  0.69187298  1  -1.216842  0  -0.346391  -0.318131  0  3.475341  0
N  N197  1  0.24416090  0.04745752  0.80812679  1  -1.21675  0  -0.346371  -0.318111  0  3.475501  0
N  N198  1  0.25586218  0.54745758  0.30812913  1  -1.216833  0  -0.346237  -0.318073  0  3.475561  0
N  N199  1  0.75583715  0.95254788  0.19187257  1  -1.216853  0  -0.346332  -0.318107  0  3.47522  0
N  N200  1  0.93808851  0.18280036  0.32541242  1  -1.209958  0  -0.348287  -0.324853  0  3.477228  0
N  N201  1  0.43808042  0.31719899  0.17458877  1  -1.217647  0  -0.348399  -0.324933  0  3.477298  0
N  N202  1  0.06192414  0.81720695  0.67458698  1  -1.210237  0  -0.348413  -0.324938  0  3.477266  0
N  N203  1  0.56191885  0.68279778  0.82541105  1  -1.217497  0  -0.348382  -0.324954  0  3.477164  0
N  N204  1  0.01032609  0.24949900  0.39779919  1  -0.70275  0  -0.222899  -0.271579  0  3.106594  0
N  N205  1  0.51032954  0.25049999  0.10220364  1  -0.703059  0  -0.222916  -0.271635  0  3.106383  0
N  N206  1  0.98967195  0.75049782  0.60220268  1  -0.70332  0  -0.222931  -0.271703  0  3.106427  0
N  N207  1  0.48965999  0.74949772  0.89779552  1  -0.702869  0  -0.222857  -0.271556  0  3.106478  0
N  N208  1  0.81834272  0.41170070  0.61797337  1  -0.698978  0  -0.220468  -0.267368  0  3.123402  0
N  N209  1  0.31832566  0.08830799  0.88202680  1  -0.699027  0  -0.220506  -0.267307  0  3.123306  0
N  N210  1  0.18169425  0.58829709  0.38202853  1  -0.699127  0  -0.22053  -0.267385  0  3.123282  0
N  N211  1  0.68166874  0.91171181  0.11797325  1  -0.698847  0  -0.220508  -0.267343  0  3.123688  0
O  O212  1  0.69040785  0.74604272  0.71930902  1  -1.238697  0  -0.594945  -0.760417  0  2.067277  0
O  O213  1  0.19042006  0.75396077  0.78068797  1  -1.23851  0  -0.594995  -0.760417  0  2.067205  0
O  O214  1  0.30959263  0.25395879  0.28068852  1  -1.238551  0  -0.594952  -0.760342  0  2.067412  0
O  O215  1  0.80959015  0.24604272  0.21931168  1  -1.238365  0  -0.594962  -0.76045  0  2.067309  0
O  O216  1  0.42899882  0.39580059  0.76441106  1  -1.180251  0  -0.333905  -0.57521  0  2.16207  0
O  O217  1  0.92898295  0.10420392  0.73558971  1  -1.179951  0  -0.333894  -0.575216  0  2.161842  0
O  O218  1  0.57102477  0.60419707  0.23558571  1  -1.18002  0  -0.333818  -0.575164  0  2.162042  0
O  O219  1  0.07101388  0.89580638  0.26441421  1  -1.180186  0  -0.333861  -0.575184  0  2.162002  0
O  O220  1  0.36697860  0.56484147  0.72548892  1  -1.19256  0  -0.335015  -0.586355  0  2.198201  0
O  O221  1  0.86696450  0.93515924  0.77451214  1  -1.192537  0  -0.334979  -0.586278  0  2.198249  0
O  O222  1  0.63303405  0.43516011  0.27451103  1  -1.192519  0  -0.334977  -0.586241  0  2.198403  0
O  O223  1  0.13302016  0.06483752  0.22548700  1  -1.192551  0  -0.335025  -0.586405  0  2.198166  0
O  O224  1  0.92399207  0.62076109  0.79310797  1  -1.187444  0  -0.32868  -0.576387  0  2.188651  0
O  O225  1  0.42397850  0.87925231  0.70688965  1  -1.187139  0  -0.32858  -0.576197  0  2.188912  0
O  O226  1  0.07601692  0.37925103  0.20689224  1  -1.187186  0  -0.328621  -0.576328  0  2.188826  0
O  O227  1  0.57602806  0.12075881  0.29310814  1  -1.187417  0  -0.328695  -0.576406  0  2.1888  0
O  O228  1  0.80543412  0.43367548  0.80449172  1  -1.163528  0  -0.330411  -0.56637  0  2.187198  0
O  O229  1  0.30543723  0.06633408  0.69550813  1  -1.163757  0  -0.33044  -0.566447  0  2.187352  0
O  O230  1  0.19457610  0.56632896  0.19550795  1  -1.163691  0  -0.330453  -0.566427  0  2.187015  0
O  O231  1  0.69457299  0.93367611  0.30449134  1  -1.163552  0  -0.330443  -0.566389  0  2.187126  0
