# generated using pymatgen
data_CuH16C15(NO)7
_symmetry_space_group_name_H-M   'P 1'
_cell_length_a   9.19102637
_cell_length_b   9.22992992
_cell_length_c   11.83744610
_cell_angle_alpha   101.95565539
_cell_angle_beta   93.10569001
_cell_angle_gamma   94.10245988
_symmetry_Int_Tables_number   1
_chemical_formula_structural   CuH16C15(NO)7
_chemical_formula_sum   'Cu2 H32 C30 N14 O14'
_cell_volume   977.44766418
_cell_formula_units_Z   2
loop_
 _symmetry_equiv_pos_site_id
 _symmetry_equiv_pos_as_xyz
  1  'x, y, z'
loop_
 _atom_site_type_symbol
 _atom_site_label
 _atom_site_symmetry_multiplicity
 _atom_site_fract_x
 _atom_site_fract_y
 _atom_site_fract_z
 _atom_site_occupancy
 _atom_site_hle17_ddec_charge
 _atom_site_hle17_ddec_spin_density
 _atom_site_hle17_ddec_sum_bond_order
 _atom_site_hle17_magmom
 _atom_site_hse06_10hf_ddec_charge
 _atom_site_hse06_10hf_ddec_spin_density
 _atom_site_hse06_10hf_ddec_sum_bond_order
 _atom_site_hse06_10hf_magmom
 _atom_site_hse06_ddec_charge
 _atom_site_hse06_ddec_spin_density
 _atom_site_hse06_ddec_sum_bond_order
 _atom_site_hse06_magmom
 _atom_site_pbe_cm5_charge
 _atom_site_pbe_ddec_charge
 _atom_site_pbe_ddec_spin_density
 _atom_site_pbe_ddec_sum_bond_order
 _atom_site_pbe_magmom
Cu  Cu0  1  0.68266080  0.62238316  0.87517023  1  0.811699  0.673173  1.826713  0.475  0.78391  0.784187  2.213542  0.609  0.870918  0.876811  2.150231  0.703  0.753591  0.724688  0.658108  2.261934  0.503
Cu  Cu1  1  0.31733960  0.37761193  0.12482645  1  0.811609  -0.673153  1.826922  -0.475  0.783895  -0.78419  2.213676  -0.609  0.870818  -0.876797  2.15041  -0.703  0.753592  0.724698  -0.658097  2.262097  -0.503
H  H2  1  0.86553920  0.37916006  0.78206964  1  0.091512  0.001479  0.950589  0.002  0.093402  0.001271  1.024203  0.002  0.094694  0.00092  1.022677  0.002  0.117079  0.091891  0.001341  1.026074  0.002
H  H3  1  0.13445798  0.62082396  0.21791750  1  0.091641  -0.001479  0.950415  -0.002  0.09348  -0.001271  1.024081  -0.002  0.094777  -0.00092  1.022545  -0.002  0.117074  0.091973  -0.00134  1.025956  -0.002
H  H4  1  0.92950175  0.25739042  0.58246926  1  0.118992  0.001162  0.916651  0.001  0.132917  0.000905  0.962364  0.001  0.135539  0.000623  0.962054  0.001  0.119658  0.130952  0.001019  0.962598  0.001
H  H5  1  0.07048232  0.74260486  0.41751662  1  0.118892  -0.001161  0.916624  -0.001  0.132869  -0.000905  0.962285  -0.001  0.135491  -0.000623  0.961976  -0.001  0.11961  0.13091  -0.001018  0.962518  -0.001
H  H6  1  0.84522626  0.35800339  0.41324211  1  0.136006  0.000436  0.957787  0.001  0.145135  5e-05  1.017317  0.0  0.149071  -7e-06  1.013904  0.0  0.114963  0.141912  0.000107  1.020514  0.0
H  H7  1  0.15477926  0.64201168  0.58675211  1  0.135932  -0.000433  0.957855  -0.001  0.145101  -5e-05  1.017347  0.0  0.149036  7e-06  1.013933  0.0  0.114993  0.141891  -0.000107  1.020532  0.0
H  H8  1  0.64880375  0.69664784  0.65233789  1  0.101294  0.001777  0.984051  0.003  0.10201  0.001391  1.057766  0.002  0.104828  0.000944  1.054423  0.001  0.118581  0.099498  0.001579  1.060875  0.002
H  H9  1  0.35118664  0.30334512  0.34766478  1  0.101352  -0.001775  0.984102  -0.003  0.102019  -0.001391  1.057851  -0.002  0.104855  -0.000944  1.054487  -0.001  0.118583  0.099479  -0.001578  1.060996  -0.002
H  H10  1  0.71901372  0.54761964  0.34601259  1  0.312278  0.000325  0.872474  0.0  0.292635  0.000215  0.939244  0.0  0.30019  0.00014  0.932663  0.0  0.320516  0.287108  0.000258  0.944023  0.0
H  H11  1  0.28099605  0.45239427  0.65399176  1  0.312291  -0.000325  0.872445  0.0  0.292619  -0.000215  0.93926  0.0  0.300173  -0.00014  0.932676  0.0  0.320466  0.287088  -0.000258  0.94404  0.0
H  H12  1  0.53187528  0.66463208  0.27330228  1  0.290843  -4.7e-05  0.948113  0.0  0.271966  -5.1e-05  1.01482  0.0  0.279528  -2e-05  1.009347  0.0  0.302371  0.266497  -7.3e-05  1.018912  0.0
H  H13  1  0.46814387  0.33537727  0.72670849  1  0.291029  4.6e-05  0.947832  0.0  0.272138  5.1e-05  1.01459  0.0  0.2797  2e-05  1.009113  0.0  0.302404  0.26667  7.2e-05  1.01868  0.0
H  H14  1  0.43027218  0.92693114  0.41091956  1  0.082134  -2e-06  0.947009  0.0  0.094392  1e-06  1.014311  0.0  0.095535  -1e-06  1.013402  0.0  0.110193  0.093489  1e-06  1.014981  0.0
H  H15  1  0.56974138  0.07306492  0.58908459  1  0.082091  2e-06  0.946893  0.0  0.094304  -1e-06  1.014231  0.0  0.095446  1e-06  1.013322  0.0  0.11015  0.093396  -1e-06  1.014908  0.0
H  H16  1  0.41013177  0.86028301  0.25896579  1  0.064623  -5.7e-05  0.94318  0.0  0.081139  -3.6e-05  1.006333  0.0  0.080893  -3.1e-05  1.007538  0.0  0.10394  0.081368  -2.2e-05  1.005331  0.0
H  H17  1  0.58987458  0.13971757  0.74104554  1  0.06467  6e-05  0.942926  0.0  0.081094  3.5e-05  1.006184  0.0  0.080851  3.1e-05  1.007386  0.0  0.103909  0.081322  2.2e-05  1.005177  0.0
H  H18  1  0.53729981  0.10900586  0.30616374  1  0.059027  -2e-05  0.927257  0.0  0.075552  -1.2e-05  0.990342  0.0  0.074789  -4e-06  0.991181  0.0  0.099399  0.075914  -1.8e-05  0.990638  0.0
H  H19  1  0.46270576  0.89099807  0.69384304  1  0.059036  1.9e-05  0.927185  0.0  0.075618  1.3e-05  0.990247  0.0  0.074855  4e-06  0.991089  0.0  0.099399  0.075977  1.8e-05  0.990539  0.0
H  H20  1  0.66847496  0.05693560  0.40180808  1  0.066584  -1.3e-05  0.923178  0.0  0.081262  -6e-06  0.98662  0.0  0.081972  -6e-06  0.986143  0.0  0.106374  0.081636  0.0  0.986796  0.0
H  H21  1  0.33153632  0.94305938  0.59819326  1  0.066599  1.1e-05  0.923132  0.0  0.081293  6e-06  0.986585  0.0  0.082006  6e-06  0.98611  0.0  0.106417  0.081663  0.0  0.98676  0.0
H  H22  1  0.67162722  0.85963509  0.18247499  1  0.288637  5.2e-05  0.916684  0.0  0.270049  7.8e-05  0.986519  0.0  0.277478  4.4e-05  0.980956  0.0  0.305059  0.264852  9e-05  0.989965  0.0
H  H23  1  0.32837867  0.14034879  0.81753699  1  0.288735  -5.1e-05  0.916773  0.0  0.270121  -7.8e-05  0.986598  0.0  0.277567  -4.4e-05  0.981025  0.0  0.305042  0.264927  -9e-05  0.990044  0.0
H  H24  1  0.89468363  0.83187246  0.14926716  1  0.296371  -0.000216  0.938854  0.0  0.272771  -0.000133  1.013369  0.0  0.281172  -8.6e-05  1.006247  0.0  0.301842  0.266559  -0.000166  1.018924  0.0
H  H25  1  0.10531401  0.16812821  0.85074214  1  0.296359  0.000215  0.938942  0.0  0.272888  0.000133  1.013315  0.0  0.281295  8.6e-05  1.006195  0.0  0.301809  0.266669  0.000166  1.018884  0.0
H  H26  1  0.10461799  0.75701248  0.06732272  1  0.123617  -0.00043  0.942455  -0.001  0.128501  -7.7e-05  1.010663  0.0  0.132292  -2.4e-05  1.006961  0.0  0.112509  0.125457  -0.000112  1.013718  0.0
H  H27  1  0.89536576  0.24297941  0.93269301  1  0.123712  0.000435  0.942297  0.001  0.128601  7.7e-05  1.0105  0.0  0.132398  2.4e-05  1.006791  0.0  0.112555  0.125552  0.000112  1.013558  0.0
H  H28  1  0.36072157  0.82617815  0.02905265  1  0.114985  -0.000933  0.963547  -0.001  0.124268  -0.00067  1.022896  -0.001  0.127119  -0.000479  1.021627  -0.001  0.108054  0.121821  -0.000779  1.024223  -0.001
H  H29  1  0.63927229  0.17379361  0.97096277  1  0.115076  0.000935  0.963497  0.001  0.124263  0.00067  1.022925  0.001  0.127115  0.000479  1.021653  0.001  0.108031  0.121811  0.000779  1.024258  0.001
H  H30  1  0.45200169  0.09723486  0.06675112  1  0.082862  -0.001158  0.960544  -0.002  0.089368  -0.000938  1.030085  -0.002  0.090936  -0.000669  1.028271  -0.001  0.116611  0.088589  -0.001039  1.030151  -0.002
H  H31  1  0.54800099  0.90273795  0.93325048  1  0.082882  0.001158  0.96055  0.002  0.089309  0.000938  1.030175  0.002  0.090919  0.00067  1.028309  0.001  0.116506  0.088523  0.001039  1.030242  0.002
H  H32  1  0.04989774  0.22515450  0.17873245  1  0.114802  -0.001647  0.953098  -0.002  0.117577  -0.001342  1.018361  -0.002  0.119973  -0.000962  1.016401  -0.001  0.123894  0.115683  -0.001544  1.020207  -0.002
H  H33  1  0.95010089  0.77484510  0.82124546  1  0.114765  0.001646  0.953031  0.002  0.117618  0.001343  1.018214  0.002  0.120011  0.000962  1.016259  0.001  0.123941  0.115717  0.001544  1.020063  0.002
C  C34  1  0.83135443  0.41982011  0.70576755  1  0.106298  -0.00655  3.677416  -0.007  0.072  0.000315  3.943751  0.0  0.081163  -0.001356  3.962658  -0.002  0.033231  0.06535  0.001492  3.932629  0.001
C  C35  1  0.16864286  0.58016501  0.29422569  1  0.106221  0.006552  3.677206  0.007  0.071998  -0.000315  3.943524  0.0  0.081149  0.001358  3.962445  0.002  0.033253  0.065356  -0.001492  3.932403  -0.001
C  C36  1  0.86619444  0.35414093  0.59473991  1  -0.080167  0.012891  3.733252  0.014  -0.093666  0.005384  3.987779  0.006  -0.098008  0.004756  4.007061  0.006  -0.075248  -0.090798  0.005251  3.974739  0.006
C  C37  1  0.13380010  0.64584978  0.40525159  1  -0.080115  -0.012888  3.733089  -0.014  -0.093636  -0.005382  3.987611  -0.006  -0.097981  -0.004758  4.006902  -0.006  -0.075177  -0.09076  -0.00525  3.974561  -0.006
C  C38  1  0.82092946  0.41221206  0.50049444  1  -0.120643  -0.010874  3.657865  -0.01  -0.145775  -0.003406  3.9059  -0.003  -0.145464  -0.003725  3.922806  -0.004  -0.071341  -0.14588  -0.002809  3.895086  -0.003
C  C39  1  0.17907768  0.58778519  0.49950456  1  -0.120502  0.010864  3.657746  0.01  -0.145702  0.003404  3.905859  0.003  -0.145389  0.003727  3.922768  0.004  -0.07132  -0.145805  0.002809  3.895029  0.003
C  C40  1  0.74139857  0.53879904  0.51899088  1  0.243752  0.010378  3.804376  0.011  0.242084  0.004086  4.046488  0.005  0.246907  0.003681  4.068384  0.004  0.111729  0.238481  0.003933  4.03091  0.005
C  C41  1  0.25860550  0.46120046  0.48101089  1  0.243627  -0.010377  3.804461  -0.011  0.241919  -0.004083  4.046603  -0.005  0.246735  -0.003683  4.068499  -0.004  0.111656  0.238323  -0.003932  4.031013  -0.005
C  C42  1  0.70901537  0.59862101  0.63322453  1  0.005427  -0.007759  3.658416  -0.009  -0.033548  -0.001308  3.924817  -0.003  -0.026491  -0.002596  3.941972  -0.004  0.031356  -0.037646  -0.000264  3.913074  -0.001
C  C43  1  0.29098383  0.40137298  0.36677614  1  0.005481  0.007762  3.658406  0.009  -0.033425  0.001307  3.924799  0.002  -0.026374  0.002601  3.941926  0.004  0.031385  -0.037495  0.000265  3.913092  0.001
C  C44  1  0.63297663  0.73601279  0.43795973  1  0.718623  6.4e-05  3.890157  0.0  0.653456  1.7e-05  4.188938  0.0  0.687221  3.3e-05  4.186358  0.0  0.328983  0.630545  1.2e-05  4.189918  0.0
C  C45  1  0.36703226  0.26400334  0.56205255  1  0.718289  -6.4e-05  3.890231  0.0  0.653299  -2.2e-05  4.188777  0.0  0.687061  -3e-05  4.186201  0.0  0.328981  0.630395  -1.1e-05  4.189745  0.0
C  C46  1  0.48999795  0.88861954  0.33414774  1  0.034427  -5e-05  3.654148  0.0  -0.027021  -2.6e-05  3.922477  0.0  -0.021875  -2.3e-05  3.932248  0.0  -0.062215  -0.030337  -2.4e-05  3.915745  0.0
C  C47  1  0.51000155  0.11137777  0.66586278  1  0.034394  4.5e-05  3.653639  0.0  -0.026854  2.6e-05  3.921844  0.0  -0.021703  2.2e-05  3.931617  0.0  -0.062162  -0.030169  2.3e-05  3.915103  0.0
C  C48  1  0.59915888  0.01621532  0.32119744  1  0.052195  5.6e-05  3.661181  0.0  -0.011738  1e-06  3.936136  0.0  -0.006476  8e-06  3.947061  0.0  -0.060553  -0.015046  6e-06  3.927259  0.0
C  C49  1  0.40084348  0.98377752  0.67880656  1  0.052257  -5e-05  3.661117  0.0  -0.011837  -2e-06  3.936189  0.0  -0.006576  -7e-06  3.947141  0.0  -0.06067  -0.015133  -6e-06  3.927293  0.0
C  C50  1  0.82671790  0.03604165  0.22443266  1  0.716784  -1.6e-05  3.892846  0.0  0.651129  -4.3e-05  4.194021  0.0  0.684934  -5.1e-05  4.191073  0.0  0.32538  0.628149  -2.8e-05  4.195218  0.0
C  C51  1  0.17326546  0.96392248  0.77554559  1  0.717357  1.7e-05  3.89347  0.0  0.651835  4.4e-05  4.194394  0.0  0.68566  5.2e-05  4.191424  0.0  0.325682  0.628856  2.8e-05  4.195611  0.0
C  C52  1  0.05874397  0.98560322  0.13268256  1  0.242359  -0.009473  3.794241  -0.01  0.238637  -0.003616  4.036907  -0.004  0.243935  -0.003286  4.058296  -0.004  0.114199  0.234965  -0.003556  4.022368  -0.004
C  C53  1  0.94124435  0.01439088  0.86731430  1  0.242427  0.009484  3.793904  0.01  0.238781  0.003619  4.036615  0.004  0.244085  0.003283  4.058003  0.004  0.11418  0.235103  0.003556  4.022081  0.004
C  C54  1  0.14798153  0.87333076  0.08630826  1  -0.10886  0.010472  3.647349  0.01  -0.133675  0.003164  3.89898  0.003  -0.133122  0.003425  3.91485  0.003  -0.070884  -0.132305  0.002616  3.887003  0.002
C  C55  1  0.85200450  0.12666224  0.91369929  1  -0.108817  -0.010494  3.647135  -0.01  -0.133678  -0.003168  3.898793  -0.003  -0.133129  -0.003418  3.914654  -0.003  -0.070887  -0.132313  -0.002617  3.886826  -0.002
C  C56  1  0.29012552  0.91210646  0.06316048  1  -0.085545  -0.01168  3.749294  -0.012  -0.098693  -0.004723  4.002907  -0.006  -0.102477  -0.004214  4.021302  -0.005  -0.08249  -0.096085  -0.00476  3.989723  -0.006
C  C57  1  0.70986341  0.08787092  0.93684804  1  -0.085865  0.01168  3.749688  0.012  -0.098909  0.004723  4.003333  0.006  -0.102692  0.004209  4.021734  0.005  -0.082567  -0.096304  0.00476  3.990157  0.006
C  C58  1  0.34136741  0.06126531  0.08291236  1  0.091375  0.006605  3.708103  0.007  0.054311  -0.000205  3.981504  0.0  0.063963  0.001223  3.998317  0.002  0.026637  0.046701  -0.001355  3.9716  -0.001
C  C59  1  0.65862739  0.93871649  0.91708361  1  0.091442  -0.006609  3.708719  -0.007  0.054468  0.000207  3.981947  0.0  0.064093  -0.00122  3.99875  -0.002  0.026767  0.046855  0.001355  3.972035  0.001
C  C60  1  0.11597374  0.13440235  0.14696258  1  0.027169  0.006373  3.61712  0.007  -0.008769  0.00122  3.881264  0.002  -0.001419  0.002421  3.897746  0.004  0.039662  -0.015775  0.000383  3.872715  0.001
C  C61  1  0.88402111  0.86559170  0.85302440  1  0.02724  -0.006374  3.617144  -0.007  -0.008814  -0.001221  3.881322  -0.002  -0.001468  -0.002418  3.897814  -0.004  0.039639  -0.01582  -0.000382  3.872761  -0.001
C  C62  1  0.49912748  0.42665818  0.95685324  1  0.529383  0.000673  3.934802  0.001  0.47893  0.00047  4.244828  0.001  0.512255  0.000408  4.240072  0.001  0.204067  0.45492  0.000232  4.247771  0.0
C  C63  1  0.50087965  0.57336245  0.04314026  1  0.529316  -0.000667  3.934763  -0.001  0.478798  -0.000468  4.24493  -0.001  0.512126  -0.000406  4.240173  -0.001  0.203873  0.454784  -0.000226  4.247877  0.0
N  N64  1  0.75323967  0.53935714  0.72230134  1  -0.27624  0.100132  3.418622  0.122  -0.232003  0.068974  3.72759  0.09  -0.264637  0.058171  3.753916  0.08  -0.356024  -0.212141  0.067057  3.71197  0.085
N  N65  1  0.24675860  0.46062686  0.27769091  1  -0.276328  -0.100103  3.418602  -0.122  -0.232094  -0.068954  3.727553  -0.09  -0.2647  -0.058165  3.753851  -0.08  -0.35604  -0.212237  -0.067039  3.711947  -0.085
N  N66  1  0.69309461  0.59804660  0.42668550  1  -0.501474  0.001622  3.297997  0.002  -0.447014  0.000821  3.541496  0.001  -0.469407  0.000764  3.549122  0.001  -0.404974  -0.431248  0.000762  3.534699  0.001
N  N67  1  0.30691833  0.40196617  0.57331796  1  -0.501374  -0.00162  3.298208  -0.002  -0.446914  -0.00082  3.541587  -0.001  -0.46929  -0.000764  3.549195  -0.001  -0.404935  -0.43114  -0.000762  3.53477  -0.001
N  N68  1  0.55737149  0.75264628  0.34085504  1  -0.485438  -5.7e-05  3.32294  0.0  -0.429585  -0.000115  3.582281  0.0  -0.45174  -4.9e-05  3.58999  0.0  -0.442731  -0.414583  -0.000148  3.577265  0.0
N  N69  1  0.44263559  0.24736210  0.65914492  1  -0.485343  6e-05  3.32283  0.0  -0.429605  0.000115  3.58206  0.0  -0.451764  4.6e-05  3.58977  0.0  -0.442671  -0.414616  0.000147  3.577053  0.0
N  N70  1  0.69150340  0.96666669  0.22718175  1  -0.48791  -0.000366  3.285104  0.0  -0.431371  -8.8e-05  3.54573  0.0  -0.45363  -8.4e-05  3.553945  0.0  -0.440458  -0.414778  -5.3e-05  3.535904  0.0
N  N71  1  0.30849932  0.03334173  0.77281804  1  -0.488474  0.000362  3.28463  0.0  -0.43191  8.6e-05  3.545313  0.0  -0.454214  8.6e-05  3.553526  0.0  -0.440555  -0.415322  5.3e-05  3.535494  0.0
N  N72  1  0.91861290  0.94479856  0.15713660  1  -0.499997  -0.002045  3.330534  -0.002  -0.440644  -0.000833  3.568676  -0.001  -0.464659  -0.000711  3.579008  -0.001  -0.41032  -0.424703  -0.000805  3.56198  -0.001
N  N73  1  0.08138604  0.05520434  0.84285875  1  -0.500132  0.002051  3.330149  0.002  -0.440967  0.000831  3.568213  0.001  -0.464993  0.000712  3.578529  0.001  -0.410179  -0.425017  0.000806  3.561521  0.001
N  N74  1  0.25315175  0.16858917  0.12140590  1  -0.285426  -0.091551  3.423801  -0.112  -0.240952  -0.062115  3.735589  -0.081  -0.272355  -0.052596  3.759874  -0.072  -0.358456  -0.222283  -0.060654  3.724206  -0.077
N  N75  1  0.74684855  0.83140483  0.87858384  1  -0.285543  0.09157  3.424205  0.112  -0.241009  0.06212  3.735932  0.081  -0.272438  0.052594  3.760254  0.072  -0.358507  -0.222335  0.060658  3.724528  0.077
N  N76  1  0.82351037  0.55306938  0.09750251  1  0.684119  -0.000807  4.162449  -0.001  0.73673  -0.000664  4.430569  -0.001  0.765726  -0.000567  4.436058  -0.001  0.089547  0.717102  -0.000705  4.426386  -0.001
N  N77  1  0.17649810  0.44696568  0.90250016  1  0.684035  0.000814  4.162463  0.001  0.736528  0.000669  4.43086  0.001  0.765524  0.000553  4.436346  0.001  0.08919  0.716902  0.000705  4.426675  0.001
O  O78  1  0.64741518  0.83228515  0.52894606  1  -0.592292  0.000641  1.903605  0.001  -0.542939  0.000243  2.115352  0.0  -0.565027  0.000136  2.108736  0.0  -0.305141  -0.527114  0.000387  2.11931  0.001
O  O79  1  0.35258729  0.16770880  0.47105559  1  -0.592365  -0.000644  1.902971  -0.001  -0.543048  -0.000239  2.11461  0.0  -0.565146  -0.000139  2.108004  0.0  -0.305221  -0.52722  -0.000386  2.11856  -0.001
O  O80  1  0.86408459  0.16557113  0.27649516  1  -0.598251  -0.000821  1.890977  -0.001  -0.556416  -0.00022  2.104815  0.0  -0.577516  -0.000111  2.096239  0.0  -0.313153  -0.541247  -0.000425  2.110387  -0.001
O  O81  1  0.13590714  0.83445966  0.72349935  1  -0.598067  0.000815  1.892705  0.001  -0.556395  0.000224  2.106569  0.0  -0.577479  0.000106  2.097968  0.0  -0.313222  -0.541246  0.000424  2.112164  0.001
O  O82  1  0.57081493  0.42543532  0.86807516  1  -0.531146  0.046068  2.162192  0.06  -0.496314  0.036678  2.436813  0.052  -0.532635  0.031673  2.428823  0.047  -0.290738  -0.467889  0.034809  2.441853  0.048
O  O83  1  0.42918157  0.57457649  0.13192914  1  -0.53129  -0.046098  2.161797  -0.06  -0.496376  -0.036691  2.436421  -0.052  -0.532711  -0.031685  2.428445  -0.047  -0.290698  -0.467944  -0.034829  2.441462  -0.048
O  O84  1  0.86607727  0.57880645  0.00195239  1  -0.4972  0.000153  1.807281  0.001  -0.503011  -2.9e-05  2.048927  0.001  -0.522987  -0.000204  2.039663  0.001  -0.216139  -0.488712  0.000213  2.055241  0.001
O  O85  1  0.13393808  0.42126747  0.99806532  1  -0.497086  -0.000153  1.806859  -0.001  -0.502858  3e-05  2.048697  -0.001  -0.522814  0.000208  2.039436  -0.001  -0.215996  -0.488563  -0.000212  2.05502  -0.001
O  O86  1  0.74717769  0.43516190  0.10034558  1  -0.452134  -0.000361  1.724253  -0.001  -0.447262  -0.000159  1.922293  0.0  -0.460345  -0.000123  1.915536  0.0  -0.192396  -0.439047  -7.8e-05  1.927485  0.0
O  O87  1  0.25283655  0.56485312  0.89962958  1  -0.452192  0.000366  1.724461  0.001  -0.447341  0.000163  1.922544  0.0  -0.460419  0.000115  1.915779  0.0  -0.192297  -0.439119  7.7e-05  1.927734  0.0
O  O88  1  0.85658332  0.65030374  0.19040418  1  -0.481531  -0.001452  1.756781  -0.002  -0.472572  -0.000766  1.96235  -0.001  -0.484394  -0.000543  1.954062  -0.001  -0.198098  -0.463587  -0.000772  1.9676  -0.001
O  O89  1  0.14340774  0.34970811  0.80961088  1  -0.481417  0.001444  1.756785  0.002  -0.472444  0.000758  1.962345  0.001  -0.484292  0.000559  1.954096  0.001  -0.197987  -0.463444  0.000771  1.967582  0.001
O  O90  1  0.42500139  0.31544899  0.97800052  1  -0.524059  -0.047099  2.101963  -0.061  -0.491157  -0.038284  2.374873  -0.054  -0.528323  -0.032586  2.368581  -0.048  -0.288098  -0.46294  -0.036823  2.378301  -0.051
O  O91  1  0.57499864  0.68455389  0.02199741  1  -0.523715  0.047055  2.102087  0.061  -0.491045  0.038268  2.37529  0.054  -0.528218  0.032574  2.369006  0.048  -0.287968  -0.462823  0.036801  2.378707  0.051
