# generated using pymatgen
data_KGaCo4H8(C6O5)3
_symmetry_space_group_name_H-M   'P 1'
_cell_length_a   10.67624776
_cell_length_b   21.73296818
_cell_length_c   21.72972075
_cell_angle_alpha   117.36503680
_cell_angle_beta   99.41575959
_cell_angle_gamma   99.43495083
_symmetry_Int_Tables_number   1
_chemical_formula_structural   KGaCo4H8(C6O5)3
_chemical_formula_sum   'K6 Ga6 Co24 H48 C108 O90'
_cell_volume   4249.62492203
_cell_formula_units_Z   6
loop_
 _symmetry_equiv_pos_site_id
 _symmetry_equiv_pos_as_xyz
  1  'x, y, z'
loop_
 _atom_site_type_symbol
 _atom_site_label
 _atom_site_symmetry_multiplicity
 _atom_site_fract_x
 _atom_site_fract_y
 _atom_site_fract_z
 _atom_site_occupancy
 _atom_site_pbe_bader_charge
 _atom_site_pbe_bader_spin_density
 _atom_site_pbe_cm5_charge
 _atom_site_pbe_ddec_charge
 _atom_site_pbe_ddec_spin_density
 _atom_site_pbe_ddec_sum_bond_order
 _atom_site_pbe_magmom
K  K0  1  0.61781889  0.84316099  0.67789623  1  0.912891  0  0.794828  0.84582  0  0.669534  0
K  K1  1  0.77519954  0.83480740  0.15705124  1  0.912501  0  0.794845  0.845505  0  0.669593  0
K  K2  1  0.94104081  0.32219169  0.16524464  1  0.913159  0  0.795064  0.845492  0  0.669928  0
K  K3  1  0.38218170  0.15683134  0.32209693  1  0.912887  0  0.794838  0.84583  0  0.669549  0
K  K4  1  0.22480643  0.16519569  0.84295098  1  0.912477  0  0.794824  0.845479  0  0.669615  0
K  K5  1  0.05896163  0.67781195  0.83475754  1  0.913177  0  0.79505  0.845499  0  0.669885  0
Ga  Ga6  1  0.52449293  0.62468339  0.75163692  1  0.63929  0  -0.062682  0.203463  0  3.015238  0
Ga  Ga7  1  0.90008899  0.12697776  0.37534056  1  0.638766  0  -0.061946  0.203707  0  3.016491  0
Ga  Ga8  1  0.77321539  0.24836435  0.87311747  1  0.638447  0  -0.061242  0.204084  0  3.01299  0
Ga  Ga9  1  0.47550818  0.37531378  0.24836035  1  0.639112  0  -0.062696  0.203468  0  3.015196  0
Ga  Ga10  1  0.09991140  0.87302749  0.62466496  1  0.638819  0  -0.061951  0.203709  0  3.016548  0
Ga  Ga11  1  0.22678300  0.75163497  0.12688057  1  0.638434  0  -0.061239  0.204131  0  3.012985  0
Co  Co12  1  0.60692771  0.73003191  0.87511881  1  0.412633  0  0.343149  -0.286127  0  5.25407  0
Co  Co13  1  0.87696705  0.14512118  0.27000465  1  0.403031  0  0.344545  -0.284594  0  5.25251  0
Co  Co14  1  0.73200973  0.12479811  0.85486237  1  0.408  0  0.343777  -0.284605  0  5.252282  0
Co  Co15  1  0.39307149  0.26996526  0.12488107  1  0.412692  0  0.343183  -0.286021  0  5.253988  0
Co  Co16  1  0.12303376  0.85488299  0.72999857  1  0.402736  0  0.344587  -0.284551  0  5.252506  0
Co  Co17  1  0.26798933  0.87519690  0.14514340  1  0.408183  0  0.343679  -0.284806  0  5.252278  0
Co  Co18  1  0.59641752  0.59696042  0.64195583  1  0.413655  0  0.350596  -0.278576  0  5.244526  0
Co  Co19  1  0.99963659  0.04503598  0.40305616  1  0.411639  0  0.347546  -0.283723  0  5.248755  0
Co  Co20  1  0.95465463  0.35812384  0.95501120  1  0.412127  0  0.348923  -0.280037  0  5.244421  0
Co  Co21  1  0.40358278  0.40303513  0.35804017  1  0.413735  0  0.350539  -0.278651  0  5.244468  0
Co  Co22  1  0.00036436  0.95496657  0.59694771  1  0.411957  0  0.347599  -0.283682  0  5.248644  0
Co  Co23  1  0.04533820  0.64187387  0.04498657  1  0.412194  0  0.348937  -0.27998  0  5.244516  0
Co  Co24  1  0.35121662  0.58756826  0.64568786  1  0.396762  0  0.345133  -0.291131  0  5.243316  0
Co  Co25  1  0.76368285  0.05809653  0.41231815  1  0.400341  0  0.345571  -0.286021  0  5.239483  0
Co  Co26  1  0.70578202  0.35432019  0.94193776  1  0.398911  0  0.345791  -0.287562  0  5.240702  0
Co  Co27  1  0.64878530  0.41243052  0.35430975  1  0.396779  0  0.345154  -0.291071  0  5.243195  0
Co  Co28  1  0.23631512  0.94190387  0.58768311  1  0.400155  0  0.345634  -0.286008  0  5.239655  0
Co  Co29  1  0.29421786  0.64568021  0.05806135  1  0.398945  0  0.34581  -0.287482  0  5.24058  0
Co  Co30  1  0.56553009  0.59739361  0.84673293  1  0.398103  0  0.346688  -0.281285  0  5.235192  0
Co  Co31  1  0.96831616  0.24935082  0.40263999  1  0.393032  0  0.344375  -0.284655  0  5.237328  0
Co  Co32  1  0.71914097  0.15328760  0.75072207  1  0.398073  0  0.343784  -0.284833  0  5.238805  0
Co  Co33  1  0.43446816  0.40260356  0.15326457  1  0.398074  0  0.346687  -0.281278  0  5.235184  0
Co  Co34  1  0.03168735  0.75065497  0.59736833  1  0.39255  0  0.344293  -0.284598  0  5.237479  0
Co  Co35  1  0.28086012  0.84670957  0.24928486  1  0.397884  0  0.343697  -0.285106  0  5.239135  0
H  H36  1  0.47413827  0.86822489  0.52200506  1  0.051976  0  0.084798  0.041992  0  1.018634  0
H  H37  1  0.60584392  0.65375724  0.13174399  1  0.036362  0  0.085086  0.042251  0  1.018171  0
H  H38  1  0.95228948  0.47800184  0.34630089  1  0.031927  0  0.08389  0.040261  0  1.017848  0
H  H39  1  0.52586174  0.13177390  0.47799333  1  0.051807  0  0.084779  0.041977  0  1.018665  0
H  H40  1  0.39415745  0.34624424  0.86825482  1  0.036342  0  0.085094  0.04228  0  1.018183  0
H  H41  1  0.04771203  0.52199803  0.65369626  1  0.031988  0  0.083965  0.040387  0  1.017889  0
H  H42  1  0.64327780  0.88207113  0.52197290  1  0.047068  0  0.091122  0.053417  0  1.029512  0
H  H43  1  0.76114964  0.63994053  0.11792223  1  0.030666  0  0.089519  0.051419  0  1.029967  0
H  H44  1  0.12146645  0.47812010  0.36020562  1  0.050694  0  0.09076  0.053587  0  1.029109  0
H  H45  1  0.35671963  0.11792819  0.47802552  1  0.046609  0  0.091093  0.053402  0  1.029504  0
H  H46  1  0.23885160  0.36005879  0.88207558  1  0.030713  0  0.089535  0.051442  0  1.029903  0
H  H47  1  0.87853194  0.52187922  0.63979104  1  0.050635  0  0.090806  0.053709  0  1.029026  0
H  H48  1  0.60235178  0.69898114  0.46786178  1  0.045427  0  0.090653  0.057726  0  1.018428  0
H  H49  1  0.90333417  0.76886832  0.30099070  1  0.051265  0  0.0897  0.056632  0  1.019034  0
H  H50  1  0.13469785  0.53222386  0.23117128  1  0.066609  0  0.089506  0.056107  0  1.018646  0
H  H51  1  0.39764622  0.30101549  0.53213176  1  0.045373  0  0.090641  0.057729  0  1.018473  0
H  H52  1  0.09666706  0.23113101  0.69900849  1  0.051304  0  0.089705  0.056626  0  1.01899  0
H  H53  1  0.86530000  0.46777439  0.76882484  1  0.066585  0  0.089502  0.056098  0  1.018607  0
H  H54  1  0.46137152  0.69199506  0.50117486  1  0.06419  0  0.094442  0.059381  0  1.030651  0
H  H55  1  0.76934082  0.80916138  0.30800479  1  0.05668  0  0.095615  0.060684  0  1.029781  0
H  H56  1  0.96040748  0.49886682  0.19087811  1  0.063209  0  0.095524  0.059974  0  1.030721  0
H  H57  1  0.53862348  0.30800319  0.49881918  1  0.06414  0  0.094433  0.059434  0  1.030743  0
H  H58  1  0.23066259  0.19083849  0.69199344  1  0.05664  0  0.095625  0.06071  0  1.029754  0
H  H59  1  0.03959159  0.50113196  0.80911881  1  0.063299  0  0.095463  0.059897  0  1.030702  0
H  H60  1  0.59297642  0.78463123  0.40035419  1  0.030637  0  0.090529  0.091787  0  1.00679  0
H  H61  1  0.80819265  0.61569099  0.21536329  1  0.02756  0  0.089515  0.090418  0  1.00663  0
H  H62  1  0.19274278  0.59960213  0.38419528  1  0.022519  0  0.090421  0.092171  0  1.00695  0
H  H63  1  0.40702210  0.21537025  0.59964300  1  0.030514  0  0.090547  0.09182  0  1.006745  0
H  H64  1  0.19180844  0.38430995  0.78463525  1  0.027579  0  0.089513  0.090409  0  1.006538  0
H  H65  1  0.80725765  0.40039558  0.61579942  1  0.022599  0  0.090414  0.092153  0  1.006953  0
H  H66  1  0.44311260  0.80970210  0.39375554  1  0.031685  0  0.088552  0.090831  0  0.999845  0
H  H67  1  0.63317080  0.58408960  0.19032527  1  0.047336  0  0.088903  0.091178  0  0.998939  0
H  H68  1  0.04961361  0.60633330  0.41603041  1  0.045975  0  0.088445  0.090579  0  0.999077  0
H  H69  1  0.55688687  0.19029938  0.60624219  1  0.031798  0  0.088559  0.090832  0  0.999796  0
H  H70  1  0.36683166  0.41591026  0.80967242  1  0.047271  0  0.088882  0.091143  0  0.99895  0
H  H71  1  0.95039170  0.39366656  0.58396613  1  0.045807  0  0.088434  0.09057  0  0.999093  0
H  H72  1  0.33365748  0.71853341  0.41818255  1  0.024603  0  0.088626  0.088317  0  1.008615  0
H  H73  1  0.61501474  0.69965466  0.28143264  1  0.020911  0  0.088797  0.087915  0  1.008648  0
H  H74  1  0.91558964  0.58187912  0.30037140  1  0.033596  0  0.089033  0.088604  0  1.007164  0
H  H75  1  0.66633819  0.28146807  0.58181396  1  0.024606  0  0.088629  0.088301  0  1.008647  0
H  H76  1  0.38498703  0.30034574  0.71856754  1  0.020843  0  0.0888  0.087896  0  1.008701  0
H  H77  1  0.08441241  0.41812182  0.69962584  1  0.033571  0  0.08902  0.088614  0  1.007123  0
H  H78  1  0.43144259  0.67167377  0.36378858  1  0.067715  0  0.095923  0.104779  0  0.994405  0
H  H79  1  0.75963614  0.69214702  0.32836997  1  0.067718  0  0.095942  0.104665  0  0.994534  0
H  H80  1  0.06785864  0.63625117  0.30790250  1  0.070846  0  0.096125  0.104818  0  0.994208  0
H  H81  1  0.56855486  0.32832555  0.63620478  1  0.067844  0  0.09594  0.104805  0  0.99436  0
H  H82  1  0.24036604  0.30785231  0.67162792  1  0.06769  0  0.095911  0.104662  0  0.994526  0
H  H83  1  0.93214423  0.36374761  0.69209427  1  0.070753  0  0.096126  0.104812  0  0.994182  0
C  C84  1  0.48242497  0.65505694  0.63894240  1  0.733768  0  -0.040217  0.163085  0  3.989109  0
C  C85  1  0.82746660  0.98390302  0.34494009  1  0.739015  0  -0.042681  0.162193  0  3.989817  0
C  C86  1  0.84376136  0.36106700  0.01616000  1  0.737402  0  -0.041049  0.162654  0  3.987868  0
C  C87  1  0.51757276  0.34493915  0.36105226  1  0.733758  0  -0.040093  0.16334  0  3.988837  0
C  C88  1  0.17252757  0.01609738  0.65505994  1  0.738878  0  -0.042724  0.162128  0  3.989585  0
C  C89  1  0.15623498  0.63893394  0.98384045  1  0.73737  0  -0.041042  0.162595  0  3.987789  0
C  C90  1  0.44573282  0.73316677  0.88519275  1  0.902656  0  0.037952  0.169596  0  3.764249  0
C  C91  1  0.71268255  0.15211072  0.26687119  1  0.893299  0  0.036699  0.167687  0  3.76337  0
C  C92  1  0.56077794  0.11478357  0.84791916  1  0.870096  0  0.036232  0.167348  0  3.765793  0
C  C93  1  0.55426694  0.26682770  0.11480501  1  0.902175  0  0.037972  0.169503  0  3.764239  0
C  C94  1  0.28732001  0.84789507  0.73313199  1  0.893371  0  0.036718  0.167672  0  3.763227  0
C  C95  1  0.43922803  0.88521575  0.15208501  1  0.870241  0  0.03626  0.167374  0  3.76564  0
C  C96  1  0.69329395  0.79642878  0.96417491  1  0.959343  0  0.059353  0.231652  0  3.716154  0
C  C97  1  0.89714202  0.16772127  0.20358151  1  0.956626  0  0.055803  0.229909  0  3.716926  0
C  C98  1  0.72937809  0.03576499  0.83221290  1  0.954649  0  0.060709  0.232805  0  3.71609  0
C  C99  1  0.30670091  0.20356731  0.03582504  1  0.959546  0  0.059345  0.231539  0  3.71613  0
C  C100  1  0.10286123  0.83228397  0.79642194  1  0.956457  0  0.055863  0.229957  0  3.71707  0
C  C101  1  0.27062247  0.96423111  0.16778934  1  0.954423  0  0.060874  0.232948  0  3.715729  0
C  C102  1  0.64959833  0.77119653  0.82538074  1  0.845409  0  0.02447  0.166548  0  3.805627  0
C  C103  1  0.87844310  0.05424417  0.22888510  1  0.862429  0  0.025382  0.167622  0  3.803859  0
C  C104  1  0.82439277  0.17459542  0.94573371  1  0.852298  0  0.023476  0.166739  0  3.805144  0
C  C105  1  0.35040278  0.22880064  0.17462021  1  0.845767  0  0.024412  0.166435  0  3.805636  0
C  C106  1  0.12155676  0.94576000  0.77111759  1  0.862816  0  0.025405  0.167559  0  3.80414  0
C  C107  1  0.17560859  0.82540605  0.05426924  1  0.852204  0  0.023496  0.166735  0  3.805071  0
C  C108  1  0.72474006  0.67212039  0.87545515  1  0.704603  0  -0.03838  0.160433  0  3.979694  0
C  C109  1  0.05282322  0.20334111  0.32790326  1  0.73387  0  -0.037218  0.162052  0  3.979032  0
C  C110  1  0.84962673  0.12451760  0.79664875  1  0.739635  0  -0.038005  0.161989  0  3.976467  0
C  C111  1  0.27526185  0.32787840  0.12454522  1  0.704719  0  -0.03833  0.160479  0  3.979535  0
C  C112  1  0.94717691  0.79666360  0.67209877  1  0.734241  0  -0.037218  0.16204  0  3.979135  0
C  C113  1  0.15037247  0.87547957  0.20335526  1  0.739772  0  -0.037901  0.162156  0  3.976117  0
C  C114  1  0.58796086  0.50565605  0.61836018  1  0.91223  0  0.041223  0.152409  0  3.754528  0
C  C115  1  0.08241882  0.11270880  0.49438040  1  0.91818  0  0.041237  0.155276  0  3.754821  0
C  C116  1  0.96979700  0.38178967  0.88729196  1  0.908678  0  0.041327  0.154612  0  3.751318  0
C  C117  1  0.41203903  0.49434058  0.38163766  1  0.912339  0  0.041131  0.152192  0  3.754623  0
C  C118  1  0.91758173  0.88729106  0.50562267  1  0.918042  0  0.041273  0.155293  0  3.754708  0
C  C119  1  0.03020071  0.61821019  0.11270719  1  0.908643  0  0.04134  0.154602  0  3.751412  0
C  C120  1  0.63704739  0.59548787  0.56601790  1  0.962352  0  0.055733  0.219612  0  3.710538  0
C  C121  1  0.04155413  0.97056171  0.40452029  1  0.955998  0  0.055582  0.220984  0  3.712322  0
C  C122  1  0.07119869  0.43404300  0.02949311  1  0.956112  0  0.054878  0.218892  0  3.712554  0
C  C123  1  0.36295521  0.40451037  0.43398044  1  0.962586  0  0.055662  0.219555  0  3.710366  0
C  C124  1  0.95843760  0.02943761  0.59548043  1  0.956028  0  0.055559  0.220997  0  3.712437  0
C  C125  1  0.92879278  0.56595579  0.97050320  1  0.955276  0  0.054792  0.218856  0  3.71233  0
C  C126  1  0.39008777  0.57083021  0.82618538  1  0.876695  0  0.038056  0.160353  0  3.762063  0
C  C127  1  0.81941305  0.25538847  0.42917068  1  0.895003  0  0.041788  0.164206  0  3.759908  0
C  C128  1  0.56420924  0.17377510  0.74462535  1  0.890067  0  0.042877  0.164813  0  3.760437  0
C  C129  1  0.60991021  0.42916642  0.17381276  1  0.876636  0  0.037952  0.160309  0  3.762297  0
C  C130  1  0.18059195  0.74461840  0.57083872  1  0.894887  0  0.041793  0.164101  0  3.760045  0
C  C131  1  0.43578453  0.82622261  0.25537664  1  0.889951  0  0.042845  0.164927  0  3.760491  0
C  C132  1  0.25308785  0.56148620  0.55915091  1  0.963055  0  0.055792  0.214228  0  3.698038  0
C  C133  1  0.69153502  0.99767728  0.43842876  1  0.955601  0  0.054621  0.212734  0  3.700392  0
C  C134  1  0.69431428  0.44085378  0.00239635  1  0.964569  0  0.055373  0.212849  0  3.701746  0
C  C135  1  0.74691324  0.43851474  0.44084763  1  0.963014  0  0.055754  0.21411  0  3.698277  0
C  C136  1  0.30846647  0.00232635  0.56157841  1  0.955334  0  0.054675  0.21289  0  3.700459  0
C  C137  1  0.30568180  0.55914662  0.99760061  1  0.964482  0  0.055366  0.212818  0  3.701667  0
C  C138  1  0.31205748  0.50310413  0.64353472  1  0.904172  0  0.042142  0.166407  0  3.759958  0
C  C139  1  0.80899522  0.14037362  0.49679640  1  0.911213  0  0.041272  0.164404  0  3.758551  0
C  C140  1  0.66880609  0.35648098  0.85965744  1  0.901513  0  0.042408  0.165893  0  3.759197  0
C  C141  1  0.68794118  0.49689573  0.35646497  1  0.904278  0  0.04212  0.166369  0  3.760065  0
C  C142  1  0.19100166  0.85962840  0.50320551  1  0.911085  0  0.041231  0.164335  0  3.758815  0
C  C143  1  0.33119298  0.64351781  0.14034224  1  0.90149  0  0.042392  0.165953  0  3.759129  0
C  C144  1  0.60316426  0.59925209  0.93006088  1  0.957213  0  0.052225  0.207025  0  3.712052  0
C  C145  1  0.00421495  0.33077954  0.40072940  1  0.955036  0  0.051632  0.206425  0  3.71277  0
C  C146  1  0.67360833  0.06995957  0.66930175  1  0.952706  0  0.053536  0.209007  0  3.712547  0
C  C147  1  0.39683332  0.40074562  0.06993634  1  0.957306  0  0.05231  0.207013  0  3.711993  0
C  C148  1  0.99579250  0.66922463  0.59927619  1  0.955621  0  0.051738  0.206598  0  3.712572  0
C  C149  1  0.32639059  0.93004083  0.33070096  1  0.952784  0  0.053483  0.208974  0  3.713213  0
C  C150  1  0.74411927  0.65279985  0.70783347  1  0.859661  0  0.022893  0.176485  0  3.81833  0
C  C151  1  0.09151694  0.05498599  0.34715817  1  0.850373  0  0.026408  0.180062  0  3.818653  0
C  C152  1  0.03649531  0.29225004  0.94500661  1  0.858357  0  0.024099  0.17663  0  3.817355  0
C  C153  1  0.25588062  0.34719679  0.29216299  1  0.859886  0  0.022805  0.176387  0  3.81813  0
C  C154  1  0.90847709  0.94501603  0.65284443  1  0.8505  0  0.026462  0.180172  0  3.81865  0
C  C155  1  0.96350307  0.70774928  0.05499280  1  0.858341  0  0.02403  0.176587  0  3.817491  0
C  C156  1  0.27810097  0.64707927  0.70441876  1  0.873111  0  0.029259  0.182285  0  3.797537  0
C  C157  1  0.63106919  0.05735879  0.35283422  1  0.872168  0  0.02756  0.179537  0  3.794543  0
C  C158  1  0.57399711  0.29557544  0.94272844  1  0.884462  0  0.025988  0.179174  0  3.798058  0
C  C159  1  0.72190000  0.35291952  0.29557970  1  0.873124  0  0.029252  0.182327  0  3.797399  0
C  C160  1  0.36892674  0.94264323  0.64716854  1  0.872235  0  0.02757  0.17956  0  3.794566  0
C  C161  1  0.42600357  0.70442657  0.05727194  1  0.884484  0  0.025969  0.179082  0  3.7983  0
C  C162  1  0.54980510  0.84079869  0.50315341  1  0.379071  0  -0.081108  0.043505  0  3.891183  0
C  C163  1  0.70891740  0.66234559  0.15918464  1  0.410039  0  -0.079997  0.045237  0  3.888926  0
C  C164  1  0.04680442  0.49690540  0.33772336  1  0.398362  0  -0.07942  0.045664  0  3.886964  0
C  C165  1  0.45019370  0.15919956  0.49684233  1  0.379589  0  -0.081075  0.043478  0  3.891308  0
C  C166  1  0.29108505  0.33765427  0.84081443  1  0.410063  0  -0.080045  0.045147  0  3.888697  0
C  C167  1  0.95319668  0.50309554  0.66227379  1  0.39839  0  -0.079566  0.045325  0  3.887096  0
C  C168  1  0.61101344  0.52211317  0.78738412  1  0.914031  0  0.036454  0.177888  0  3.759438  0
C  C169  1  0.08905164  0.26523416  0.47790845  1  0.91282  0  0.03684  0.179445  0  3.75814  0
C  C170  1  0.82391911  0.21267979  0.73480855  1  0.906945  0  0.038144  0.178961  0  3.759411  0
C  C171  1  0.38898387  0.47788400  0.21261422  1  0.91393  0  0.036465  0.177886  0  3.759463  0
C  C172  1  0.91095160  0.73477109  0.52209961  1  0.912788  0  0.036792  0.179353  0  3.758286  0
C  C173  1  0.17607644  0.78731577  0.26519075  1  0.906996  0  0.038035  0.178736  0  3.759307  0
C  C174  1  0.51773165  0.72064053  0.47980642  1  0.386132  0  -0.083682  0.026945  0  3.901393  0
C  C175  1  0.79704987  0.75916415  0.27932299  1  0.388217  0  -0.083704  0.02629  0  3.901166  0
C  C176  1  0.03812592  0.52020927  0.24087637  1  0.359243  0  -0.083091  0.027722  0  3.900907  0
C  C177  1  0.48226877  0.27936095  0.52019185  1  0.386168  0  -0.08361  0.026894  0  3.901597  0
C  C178  1  0.20295380  0.24083625  0.72067643  1  0.388103  0  -0.083709  0.026311  0  3.901064  0
C  C179  1  0.96187329  0.47978790  0.75912028  1  0.35925  0  -0.083094  0.027809  0  3.900635  0
C  C180  1  0.50656189  0.79020792  0.42173730  1  -0.012857  0  -0.170192  -0.180936  0  3.93418  0
C  C181  1  0.71622650  0.63153310  0.20980737  1  -0.031235  0  -0.169262  -0.180194  0  3.931563  0
C  C182  1  0.08496217  0.57831196  0.36850724  1  -0.022544  0  -0.170202  -0.181482  0  3.932369  0
C  C183  1  0.49343677  0.20979194  0.57825871  1  -0.012439  0  -0.170248  -0.181013  0  3.934226  0
C  C184  1  0.28377596  0.36846676  0.79019125  1  -0.030995  0  -0.169185  -0.180077  0  3.931266  0
C  C185  1  0.91503839  0.42168790  0.63148846  1  -0.022737  0  -0.17011  -0.181294  0  3.932261  0
C  C186  1  0.43528734  0.71897618  0.41452101  1  -0.030156  0  -0.171508  -0.187504  0  3.929099  0
C  C187  1  0.71622711  0.69556844  0.28103929  1  -0.024434  0  -0.171828  -0.186662  0  3.929243  0
C  C188  1  0.02089572  0.58550963  0.30446531  1  -0.039693  0  -0.171647  -0.187761  0  3.927802  0
C  C189  1  0.56470888  0.28102260  0.58547430  1  -0.030504  0  -0.171516  -0.187446  0  3.929313  0
C  C190  1  0.28377725  0.30443143  0.71895855  1  -0.024489  0  -0.17185  -0.186713  0  3.929252  0
C  C191  1  0.97910525  0.41448915  0.69553039  1  -0.03952  0  -0.171675  -0.187847  0  3.927652  0
O  O192  1  0.48684949  0.70827664  0.63517446  1  -1.122931  0  -0.280015  -0.274153  0  2.456825  0
O  O193  1  0.77867900  0.92689123  0.29175346  1  -1.127362  0  -0.277835  -0.272987  0  2.456395  0
O  O194  1  0.85197406  0.36479930  0.07314417  1  -1.125095  0  -0.278474  -0.272924  0  2.455821  0
O  O195  1  0.51314811  0.29171730  0.36481873  1  -1.122984  0  -0.280135  -0.274368  0  2.456742  0
O  O196  1  0.22131855  0.07311402  0.70824816  1  -1.127386  0  -0.277875  -0.273022  0  2.456082  0
O  O197  1  0.14802608  0.63520164  0.92685705  1  -1.125069  0  -0.278465  -0.272879  0  2.455753  0
O  O198  1  0.67666950  0.80730423  0.80034684  1  -1.10302  0  -0.170782  -0.17618  0  2.426761  0
O  O199  1  0.86936285  0.99311754  0.19273070  1  -1.117532  0  -0.17154  -0.176723  0  2.424192  0
O  O200  1  0.87643481  0.19969954  0.00688746  1  -1.112493  0  -0.170449  -0.176477  0  2.425657  0
O  O201  1  0.32333459  0.19269133  0.19965177  1  -1.10319  0  -0.170738  -0.176096  0  2.426782  0
O  O202  1  0.13064107  0.00688717  0.80727716  1  -1.117724  0  -0.171582  -0.176718  0  2.424458  0
O  O203  1  0.12356057  0.80030517  0.99311695  1  -1.112481  0  -0.17038  -0.176376  0  2.425585  0
O  O204  1  0.67323463  0.59856751  0.51968736  1  -1.107887  0  -0.137824  -0.148749  0  2.433384  0
O  O205  1  0.07443061  0.92109951  0.40140980  1  -1.101901  0  -0.137653  -0.14947  0  2.433861  0
O  O206  1  0.15362391  0.48030360  0.07898344  1  -1.106471  0  -0.137017  -0.148621  0  2.433961  0
O  O207  1  0.32677338  0.40143397  0.48031291  1  -1.108168  0  -0.137734  -0.148687  0  2.43325  0
O  O208  1  0.92555991  0.07889927  0.59859057  1  -1.101953  0  -0.137635  -0.149478  0  2.433936  0
O  O209  1  0.84636837  0.51969680  0.92100999  1  -1.105725  0  -0.136939  -0.148605  0  2.433767  0
O  O210  1  0.58700675  0.44628900  0.60003228  1  -1.10277  0  -0.130556  -0.121499  0  2.470525  0
O  O211  1  0.14077130  0.15373969  0.55376070  1  -1.113253  0  -0.130077  -0.123318  0  2.470434  0
O  O212  1  0.98709225  0.40010710  0.84622388  1  -1.097309  0  -0.129885  -0.122681  0  2.469701  0
O  O213  1  0.41299652  0.55370870  0.39996771  1  -1.102943  0  -0.130472  -0.121316  0  2.470553  0
O  O214  1  0.85923414  0.84625856  0.44624109  1  -1.113237  0  -0.130112  -0.123355  0  2.470424  0
O  O215  1  0.01291289  0.59989815  0.15378019  1  -1.097265  0  -0.129892  -0.122676  0  2.469675  0
O  O216  1  0.28357191  0.44837067  0.64191316  1  -1.09622  0  -0.134887  -0.125489  0  2.412762  0
O  O217  1  0.83532752  0.19344612  0.55156293  1  -1.104635  0  -0.133569  -0.124184  0  2.411246  0
O  O218  1  0.64185034  0.35812652  0.80656159  1  -1.095191  0  -0.13596  -0.125541  0  2.410797  0
O  O219  1  0.71642675  0.55162920  0.35808791  1  -1.096322  0  -0.134874  -0.125467  0  2.412765  0
O  O220  1  0.16467370  0.80655698  0.44843844  1  -1.10456  0  -0.133556  -0.124161  0  2.411476  0
O  O221  1  0.35814697  0.64187065  0.19343721  1  -1.095196  0  -0.135952  -0.125616  0  2.410824  0
O  O222  1  0.27585493  0.55170583  0.81259318  1  -1.094961  0  -0.128582  -0.128426  0  2.456709  0
O  O223  1  0.72428088  0.26096288  0.44826641  1  -1.107089  0  -0.131547  -0.131612  0  2.456067  0
O  O224  1  0.46355155  0.18732428  0.73899649  1  -1.102349  0  -0.132142  -0.131753  0  2.45684  0
O  O225  1  0.72414184  0.44829026  0.18740600  1  -1.094922  0  -0.12847  -0.128393  0  2.456909  0
O  O226  1  0.27572411  0.73904775  0.55174058  1  -1.10698  0  -0.131524  -0.131542  0  2.456091  0
O  O227  1  0.53644303  0.81267504  0.26100585  1  -1.102295  0  -0.132159  -0.131809  0  2.456811  0
O  O228  1  0.62576904  0.59748523  0.98321917  1  -1.10837  0  -0.137194  -0.149107  0  2.454235  0
O  O229  1  0.02867011  0.38566206  0.40242318  1  -1.106066  0  -0.136569  -0.148267  0  2.45379  0
O  O230  1  0.64316881  0.01676848  0.61442989  1  -1.107191  0  -0.137884  -0.150386  0  2.454562  0
O  O231  1  0.37423016  0.40251194  0.01677886  1  -1.108449  0  -0.137256  -0.149066  0  2.454192  0
O  O232  1  0.97132745  0.61433942  0.59757854  1  -1.106578  0  -0.136689  -0.148493  0  2.453747  0
O  O233  1  0.35683880  0.98323031  0.38557278  1  -1.107284  0  -0.137832  -0.150318  0  2.455122  0
O  O234  1  0.85242243  0.68488058  0.74355774  1  -1.143206  0  -0.214399  -0.203472  0  2.466066  0
O  O235  1  0.16771689  0.05857169  0.31504219  1  -1.129428  0  -0.214636  -0.204759  0  2.465556  0
O  O236  1  0.10890318  0.25645354  0.94142252  1  -1.138042  0  -0.21337  -0.202744  0  2.464532  0
O  O237  1  0.14757542  0.31511767  0.25644068  1  -1.143243  0  -0.21429  -0.203324  0  2.465941  0
O  O238  1  0.83227836  0.94143086  0.68495846  1  -1.129573  0  -0.21466  -0.204832  0  2.465679  0
O  O239  1  0.89109913  0.74354794  0.05857866  1  -1.138059  0  -0.213329  -0.202742  0  2.464597  0
O  O240  1  0.84019475  0.67783039  0.88666234  1  -1.093686  0  -0.259755  -0.266174  0  2.413823  0
O  O241  1  0.16252812  0.20877568  0.32213709  1  -1.12073  0  -0.25888  -0.266403  0  2.413564  0
O  O242  1  0.95390789  0.11335342  0.79117506  1  -1.125481  0  -0.259953  -0.267353  0  2.411741  0
O  O243  1  0.15980419  0.32216624  0.11333635  1  -1.09399  0  -0.259814  -0.266228  0  2.413645  0
O  O244  1  0.83747430  0.79123173  0.67786683  1  -1.12079  0  -0.2589  -0.266371  0  2.413585  0
O  O245  1  0.04609184  0.88664859  0.20882985  1  -1.125526  0  -0.259996  -0.267395  0  2.411572  0
O  O246  1  0.74790180  0.84288022  0.02256772  1  -1.129893  0  -0.17618  -0.182185  0  2.396908  0
O  O247  1  0.90556961  0.17962822  0.15712148  1  -1.121693  0  -0.173209  -0.181255  0  2.3971  0
O  O248  1  0.72568959  0.97738642  0.82029639  1  -1.119347  0  -0.177236  -0.183204  0  2.398368  0
O  O249  1  0.25208859  0.15711641  0.97743258  1  -1.130072  0  -0.176179  -0.182098  0  2.396872  0
O  O250  1  0.09444421  0.82037918  0.84288382  1  -1.12169  0  -0.173276  -0.181299  0  2.397263  0
O  O251  1  0.27430189  0.02260859  0.17970647  1  -1.119005  0  -0.177357  -0.183253  0  2.398154  0
O  O252  1  0.21774774  0.68295399  0.73880425  1  -1.137482  0  -0.196723  -0.205456  0  2.465417  0
O  O253  1  0.53476120  0.05592813  0.31705801  1  -1.138112  0  -0.196656  -0.204445  0  2.463798  0
O  O254  1  0.47920366  0.26119375  0.94419642  1  -1.1476  0  -0.193751  -0.203368  0  2.464868  0
O  O255  1  0.78225513  0.31704479  0.26119574  1  -1.137584  0  -0.196737  -0.205517  0  2.465376  0
O  O256  1  0.46523703  0.94407658  0.68294433  1  -1.138119  0  -0.196644  -0.204452  0  2.463831  0
O  O257  1  0.52079933  0.73880719  0.05580503  1  -1.147675  0  -0.193711  -0.203294  0  2.465026  0
O  O258  1  0.34376390  0.73850395  0.89633158  1  -1.131659  0  -0.187494  -0.183708  0  2.465451  0
O  O259  1  0.60541617  0.15796521  0.26153693  1  -1.125483  0  -0.188267  -0.183297  0  2.465487  0
O  O260  1  0.44768471  0.10374045  0.84214787  1  -1.103654  0  -0.186851  -0.183129  0  2.466401  0
O  O261  1  0.65623369  0.26148999  0.10366346  1  -1.131166  0  -0.187493  -0.183607  0  2.46542  0
O  O262  1  0.39458722  0.84203842  0.73846809  1  -1.125357  0  -0.18825  -0.183253  0  2.465326  0
O  O263  1  0.55232247  0.89626318  0.15785746  1  -1.103785  0  -0.186832  -0.183111  0  2.466383  0
O  O264  1  0.56685219  0.79623266  0.53552071  1  -1.046621  0  -0.32916  -0.324229  0  2.427979  0
O  O265  1  0.77051814  0.73928572  0.20372452  1  -1.041577  0  -0.329846  -0.323921  0  2.428092  0
O  O266  1  0.03155925  0.46450361  0.26079248  1  -1.042471  0  -0.330734  -0.324523  0  2.427351  0
O  O267  1  0.43315108  0.20376882  0.46447779  1  -1.046591  0  -0.329156  -0.324165  0  2.428047  0
O  O268  1  0.22948662  0.26071307  0.79627424  1  -1.041585  0  -0.329867  -0.323939  0  2.428105  0
O  O269  1  0.96844104  0.53549572  0.73920571  1  -1.042389  0  -0.330691  -0.324528  0  2.427114  0
O  O270  1  0.63423288  0.46869155  0.75090358  1  -1.10421  0  -0.135762  -0.131639  0  2.445066  0
O  O271  1  0.16575458  0.28216628  0.53131279  1  -1.102674  0  -0.135277  -0.131878  0  2.444159  0
O  O272  1  0.88359823  0.24913321  0.71781565  1  -1.097773  0  -0.136573  -0.13204  0  2.444316  0
O  O273  1  0.36576389  0.53130454  0.24909698  1  -1.104016  0  -0.135769  -0.131656  0  2.445171  0
O  O274  1  0.83425013  0.71784382  0.46869715  1  -1.10247  0  -0.135204  -0.131772  0  2.444182  0
O  O275  1  0.11640450  0.75086342  0.28218702  1  -1.097843  0  -0.136502  -0.131828  0  2.443964  0
O  O276  1  0.18620944  0.54695380  0.50396415  1  -1.103983  0  -0.133777  -0.129913  0  2.417584  0
O  O277  1  0.63920686  0.95707674  0.45303446  1  -1.094909  0  -0.133044  -0.12989  0  2.419652  0
O  O278  1  0.68268209  0.49605976  0.04302581  1  -1.106282  0  -0.134419  -0.130652  0  2.420454  0
O  O279  1  0.81379342  0.45304876  0.49603436  1  -1.103903  0  -0.13372  -0.129808  0  2.417788  0
O  O280  1  0.36079950  0.04292905  0.54697685  1  -1.094509  0  -0.133134  -0.130026  0  2.419584  0
O  O281  1  0.31730274  0.50393902  0.95696674  1  -1.10613  0  -0.134423  -0.13063  0  2.420378  0
