# generated using pymatgen
data_LiH13C8N2O
_symmetry_space_group_name_H-M   'P 1'
_cell_length_a   8.66340687
_cell_length_b   9.28404127
_cell_length_c   11.73793004
_cell_angle_alpha   89.99905828
_cell_angle_beta   106.22614013
_cell_angle_gamma   90.00006683
_symmetry_Int_Tables_number   1
_chemical_formula_structural   LiH13C8N2O
_chemical_formula_sum   'Li4 H52 C32 N8 O4'
_cell_volume   906.49152863
_cell_formula_units_Z   4
loop_
 _symmetry_equiv_pos_site_id
 _symmetry_equiv_pos_as_xyz
  1  'x, y, z'
loop_
 _atom_site_type_symbol
 _atom_site_label
 _atom_site_symmetry_multiplicity
 _atom_site_fract_x
 _atom_site_fract_y
 _atom_site_fract_z
 _atom_site_occupancy
 _atom_site_hle17_bader_spin_density
 _atom_site_hle17_ddec_charge
 _atom_site_hle17_ddec_spin_density
 _atom_site_hle17_ddec_sum_bond_order
 _atom_site_hle17_magmom
 _atom_site_hse06_10hf_bader_spin_density
 _atom_site_hse06_10hf_ddec_charge
 _atom_site_hse06_10hf_ddec_spin_density
 _atom_site_hse06_10hf_ddec_sum_bond_order
 _atom_site_hse06_10hf_magmom
 _atom_site_hse06_bader_spin_density
 _atom_site_hse06_ddec_charge
 _atom_site_hse06_ddec_spin_density
 _atom_site_hse06_ddec_sum_bond_order
 _atom_site_hse06_magmom
 _atom_site_pbe_bader_spin_density
 _atom_site_pbe_cm5_charge
 _atom_site_pbe_ddec_charge
 _atom_site_pbe_ddec_spin_density
 _atom_site_pbe_ddec_sum_bond_order
 _atom_site_pbe_magmom
Li  Li0  1  0.50421802  0.38069513  0.44709863  1  0  0.808357  0  0.484315  0  0  0.750317  0  0.618104  0  0  0.760376  0  0.602188  0  0  0.548203  0.743243  0  0.629137  0
Li  Li1  1  0.49578098  0.88069591  0.05289367  1  0  0.808382  0  0.484267  0  0  0.750349  0  0.618042  0  0  0.760406  0  0.602129  0  0  0.548195  0.743276  0  0.629076  0
Li  Li2  1  0.49577391  0.61930241  0.55290129  1  0  0.808386  0  0.484257  0  0  0.750358  0  0.618024  0  0  0.760414  0  0.602111  0  0  0.548179  0.743283  0  0.629058  0
Li  Li3  1  0.50422160  0.11930593  0.94709982  1  0  0.808388  0  0.484224  0  0  0.750378  0  0.617953  0  0  0.76043  0  0.602046  0  0  0.548193  0.743306  0  0.628986  0
H  H4  1  0.96954414  0.22210237  0.27967932  1  0  0.120652  0  1.002063  0  0  0.128337  0  1.068538  0  0  0.131171  0  1.069239  0  0  0.0961  0.126344  0  1.068041  0
H  H5  1  0.03046035  0.72211645  0.22031954  1  0  0.120663  0  1.002177  0  0  0.128355  0  1.06862  0  0  0.131188  0  1.069322  0  0  0.096115  0.126362  0  1.068122  0
H  H6  1  0.03045033  0.77789624  0.72032792  1  0  0.120594  0  1.002136  0  0  0.128293  0  1.068597  0  0  0.131127  0  1.069299  0  0  0.096044  0.126298  0  1.068098  0
H  H7  1  0.96955062  0.27789401  0.77967474  1  0  0.120584  0  1.002423  0  0  0.128292  0  1.068858  0  0  0.131126  0  1.069561  0  0  0.096066  0.126297  0  1.06836  0
H  H8  1  0.82895993  0.95740643  0.03195114  1  0  0.113923  0  0.964869  0  0  0.132724  0  1.029648  0  0  0.134926  0  1.028689  0  0  0.103244  0.131201  0  1.030229  0
H  H9  1  0.17103881  0.45741565  0.46804267  1  0  0.113929  0  0.96497  0  0  0.132753  0  1.029728  0  0  0.134955  0  1.028772  0  0  0.103227  0.131229  0  1.030308  0
H  H10  1  0.17104394  0.04259434  0.96804772  1  0  0.113903  0  0.964978  0  0  0.132711  0  1.029747  0  0  0.134913  0  1.028789  0  0  0.103227  0.131188  0  1.030329  0
H  H11  1  0.82895643  0.54257974  0.53194342  1  0  0.113902  0  0.965004  0  0  0.132743  0  1.029766  0  0  0.134948  0  1.02881  0  0  0.103225  0.13122  0  1.030345  0
H  H12  1  0.99119300  0.97984365  0.16352923  1  0  0.10846  0  0.959  0  0  0.130941  0  1.020162  0  0  0.132818  0  1.020006  0  0  0.092592  0.129476  0  1.020585  0
H  H13  1  0.00880566  0.47985220  0.33646427  1  0  0.108476  0  0.958958  0  0  0.13099  0  1.02007  0  0  0.132871  0  1.019908  0  0  0.092611  0.129523  0  1.020495  0
H  H14  1  0.00880973  0.02016143  0.83647196  1  0  0.108463  0  0.959024  0  0  0.130951  0  1.020169  0  0  0.132828  0  1.020012  0  0  0.092602  0.129485  0  1.020592  0
H  H15  1  0.99119308  0.52015287  0.66351739  1  0  0.108414  0  0.959111  0  0  0.130954  0  1.020203  0  0  0.132835  0  1.020044  0  0  0.092594  0.129485  0  1.020626  0
H  H16  1  0.94257122  0.11935954  0.05666047  1  0  0.113582  0  0.948766  0  0  0.136901  0  1.007653  0  0  0.138632  0  1.007884  0  0  0.0967  0.135834  0  1.007104  0
H  H17  1  0.05742745  0.61936580  0.44332837  1  0  0.113618  0  0.948737  0  0  0.136978  0  1.007574  0  0  0.138707  0  1.007808  0  0  0.096749  0.135909  0  1.007024  0
H  H18  1  0.05742911  0.88064123  0.94334025  1  0  0.113595  0  0.948776  0  0  0.136917  0  1.007654  0  0  0.138635  0  1.007899  0  0  0.096698  0.135849  0  1.007105  0
H  H19  1  0.94257028  0.38063174  0.55666247  1  0  0.113513  0  0.948844  0  0  0.136874  0  1.007706  0  0  0.138605  0  1.007936  0  0  0.09668  0.135805  0  1.007155  0
H  H20  1  0.40287413  0.06972488  0.34522148  1  0  0.055111  0  0.931653  0  0  0.068021  0  0.999316  0  0  0.068412  0  0.99901  0  0  0.106631  0.067439  0  0.999943  0
H  H21  1  0.59712742  0.56972473  0.15478221  1  0  0.055068  0  0.93168  0  0  0.067983  0  0.999305  0  0  0.068373  0  0.998998  0  0  0.106619  0.067401  0  0.999931  0
H  H22  1  0.59712630  0.93027374  0.65478437  1  0  0.055068  0  0.931632  0  0  0.067983  0  0.999243  0  0  0.068365  0  0.998944  0  0  0.106605  0.067399  0  0.99987  0
H  H23  1  0.40287167  0.43027927  0.84521657  1  0  0.055096  0  0.931645  0  0  0.067996  0  0.999305  0  0  0.068384  0  0.999  0  0  0.106614  0.067413  0  0.99993  0
H  H24  1  0.21893540  0.16900306  0.30799200  1  0  0.037499  0  0.933831  0  0  0.054954  0  0.995169  0  0  0.055595  0  0.994376  0  0  0.096648  0.054633  0  0.995367  0
H  H25  1  0.78106461  0.66900340  0.19201265  1  0  0.037515  0  0.933808  0  0  0.054945  0  0.995136  0  0  0.055584  0  0.994345  0  0  0.096659  0.054625  0  0.995332  0
H  H26  1  0.78106381  0.83099556  0.69201277  1  0  0.037532  0  0.933785  0  0  0.054962  0  0.995111  0  0  0.055603  0  0.994316  0  0  0.096659  0.05464  0  0.995309  0
H  H27  1  0.21893216  0.33099522  0.80798993  1  0  0.037547  0  0.933778  0  0  0.054986  0  0.995111  0  0  0.055627  0  0.99432  0  0  0.096671  0.054665  0  0.995307  0
H  H28  1  0.12673419  0.94713434  0.37741631  1  0  0.074224  0  0.963834  0  0  0.08902  0  1.032347  0  0  0.089133  0  1.034428  0  0  0.092131  0.088695  0  1.031218  0
H  H29  1  0.87326967  0.44713527  0.12259142  1  0  0.074208  0  0.963935  0  0  0.089033  0  1.032457  0  0  0.089146  0  1.034544  0  0  0.092184  0.088708  0  1.031328  0
H  H30  1  0.87326746  0.05286643  0.62259064  1  0  0.07417  0  0.963858  0  0  0.089023  0  1.03236  0  0  0.089137  0  1.034444  0  0  0.09213  0.088697  0  1.03123  0
H  H31  1  0.12672710  0.55286443  0.87741116  1  0  0.07426  0  0.963886  0  0  0.089038  0  1.032456  0  0  0.089153  0  1.034541  0  0  0.092162  0.088713  0  1.031326  0
H  H32  1  0.31527335  0.91628579  0.48184194  1  0  0.083756  0  0.940705  0  0  0.099665  0  1.001474  0  0  0.100585  0  1.002411  0  0  0.100758  0.098936  0  1.000719  0
H  H33  1  0.68472947  0.41628762  0.01816855  1  0  0.083822  0  0.940663  0  0  0.099718  0  1.001484  0  0  0.100642  0  1.002422  0  0  0.100774  0.098987  0  1.00073  0
H  H34  1  0.68472469  0.08371390  0.51816430  1  0  0.083808  0  0.940672  0  0  0.099718  0  1.001482  0  0  0.100642  0  1.002421  0  0  0.100771  0.098985  0  1.000728  0
H  H35  1  0.31526975  0.58371315  0.98183707  1  0  0.083801  0  0.940669  0  0  0.099722  0  1.00145  0  0  0.100646  0  1.002388  0  0  0.10078  0.09899  0  1.000697  0
H  H36  1  0.06785120  0.14881049  0.49408160  1  0  0.068088  0  0.9479  0  0  0.086335  0  1.008948  0  0  0.086782  0  1.009966  0  0  0.089392  0.085757  0  1.00846  0
H  H37  1  0.93214879  0.64881269  0.00591904  1  0  0.068075  0  0.947899  0  0  0.086321  0  1.008906  0  0  0.086766  0  1.009925  0  0  0.089376  0.085744  0  1.008421  0
H  H38  1  0.93214797  0.85119243  0.50592145  1  0  0.068096  0  0.947967  0  0  0.086328  0  1.008988  0  0  0.086776  0  1.010003  0  0  0.089389  0.08575  0  1.008499  0
H  H39  1  0.06784911  0.35118377  0.99408035  1  0  0.068072  0  0.947849  0  0  0.086364  0  1.008822  0  0  0.086811  0  1.009838  0  0  0.089399  0.085787  0  1.008336  0
H  H40  1  0.16215008  0.02342432  0.60728977  1  0  0.0806  0  0.971448  0  0  0.097371  0  1.03374  0  0  0.097676  0  1.035753  0  0  0.092618  0.096859  0  1.032719  0
H  H41  1  0.83785067  0.52342594  0.89271704  1  0  0.080648  0  0.971384  0  0  0.097348  0  1.033733  0  0  0.097653  0  1.035746  0  0  0.092598  0.096839  0  1.032709  0
H  H42  1  0.83784912  0.97657968  0.39271500  1  0  0.080637  0  0.971401  0  0  0.097397  0  1.033688  0  0  0.097694  0  1.035706  0  0  0.092611  0.096883  0  1.032669  0
H  H43  1  0.16214730  0.47656945  0.10728578  1  0  0.080689  0  0.971408  0  0  0.09739  0  1.033751  0  0  0.097695  0  1.035765  0  0  0.092626  0.096881  0  1.032728  0
H  H44  1  0.41879154  0.14616907  0.64686166  1  0  0.052613  0  0.938491  0  0  0.064996  0  1.006095  0  0  0.065802  0  1.005584  0  0  0.102395  0.064238  0  1.006702  0
H  H45  1  0.58120396  0.64616587  0.85314422  1  0  0.052566  0  0.938529  0  0  0.065004  0  1.006099  0  0  0.065813  0  1.005581  0  0  0.102382  0.064247  0  1.006705  0
H  H46  1  0.58120526  0.85383708  0.35314263  1  0  0.052492  0  0.938572  0  0  0.064961  0  1.006136  0  0  0.065768  0  1.005622  0  0  0.102365  0.064199  0  1.006752  0
H  H47  1  0.41879401  0.35383382  0.14685860  1  0  0.052561  0  0.938513  0  0  0.064985  0  1.006117  0  0  0.065795  0  1.005599  0  0  0.102376  0.06423  0  1.006722  0
H  H48  1  0.28764825  0.29733636  0.60566152  1  0  0.044282  0  0.938941  0  0  0.059276  0  1.006218  0  0  0.059556  0  1.005309  0  0  0.106424  0.058935  0  1.006788  0
H  H49  1  0.71234770  0.79733674  0.89433395  1  0  0.044218  0  0.939015  0  0  0.059237  0  1.006305  0  0  0.059508  0  1.005395  0  0  0.106408  0.058899  0  1.006872  0
H  H50  1  0.71235089  0.70266441  0.39433982  1  0  0.04421  0  0.938879  0  0  0.059235  0  1.006191  0  0  0.059515  0  1.00528  0  0  0.106396  0.058894  0  1.006763  0
H  H51  1  0.28765742  0.20266187  0.10566686  1  0  0.044282  0  0.93898  0  0  0.059286  0  1.00628  0  0  0.059558  0  1.005369  0  0  0.106414  0.05895  0  1.006847  0
H  H52  1  0.55956284  0.10847816  0.17508927  1  0  0.267556  0  0.96527  0  0  0.265766  0  1.020607  0  0  0.270902  0  1.017713  0  0  0.276167  0.262193  0  1.022705  0
H  H53  1  0.44043716  0.60849156  0.32490423  1  0  0.267385  0  0.965329  0  0  0.265624  0  1.020611  0  0  0.27076  0  1.017718  0  0  0.276122  0.262051  0  1.022702  0
H  H54  1  0.44043135  0.89151507  0.82490428  1  0  0.267504  0  0.965299  0  0  0.265725  0  1.020604  0  0  0.27086  0  1.017711  0  0  0.276148  0.262151  0  1.0227  0
H  H55  1  0.55957027  0.39150705  0.67509277  1  0  0.267476  0  0.965358  0  0  0.265704  0  1.020657  0  0  0.27084  0  1.017764  0  0  0.276152  0.26213  0  1.022751  0
C  C56  1  0.74359256  0.26797851  0.31041761  1  0  0.385051  0  3.950237  0  0  0.376117  0  4.213246  0  0  0.393942  0  4.230728  0  0  0.176028  0.363841  0  4.201641  0
C  C57  1  0.25639243  0.76798807  0.18957258  1  0  0.385215  0  3.950448  0  0  0.376282  0  4.213448  0  0  0.394111  0  4.230924  0  0  0.176069  0.364007  0  4.201848  0
C  C58  1  0.25639330  0.73200825  0.68957858  1  0  0.38522  0  3.950455  0  0  0.376291  0  4.213472  0  0  0.394121  0  4.230948  0  0  0.176089  0.364016  0  4.201864  0
C  C59  1  0.74361636  0.23201593  0.81043236  1  0  0.385237  0  3.950765  0  0  0.376306  0  4.213762  0  0  0.394132  0  4.231237  0  0  0.176094  0.364029  0  4.202165  0
C  C60  1  0.84189038  0.19679140  0.25433240  1  0  -0.47478  0  3.860822  0  0  -0.483649  0  4.115325  0  0  -0.503272  0  4.133618  0  0  -0.167802  -0.469927  0  4.102274  0
C  C61  1  0.15810567  0.69679861  0.24565918  1  0  -0.474838  0  3.860816  0  0  -0.483679  0  4.115351  0  0  -0.503302  0  4.133645  0  0  -0.167803  -0.46996  0  4.102305  0
C  C62  1  0.15809913  0.80321045  0.74566620  1  0  -0.474853  0  3.860464  0  0  -0.483722  0  4.115011  0  0  -0.503347  0  4.133307  0  0  -0.167784  -0.469995  0  4.101955  0
C  C63  1  0.84190892  0.30320862  0.75433667  1  0  -0.474755  0  3.860675  0  0  -0.483649  0  4.115183  0  0  -0.503272  0  4.133474  0  0  -0.167754  -0.469925  0  4.102132  0
C  C64  1  0.77620673  0.09858509  0.16157172  1  0  0.468469  0  3.84481  0  0  0.466566  0  4.09402  0  0  0.486376  0  4.107104  0  0  0.126711  0.453596  0  4.083864  0
C  C65  1  0.22379456  0.59859153  0.33842472  1  0  0.468402  0  3.844657  0  0  0.466407  0  4.094046  0  0  0.486217  0  4.107132  0  0  0.126638  0.453439  0  4.083886  0
C  C66  1  0.22379355  0.90142645  0.83842729  1  0  0.468494  0  3.844642  0  0  0.466515  0  4.093985  0  0  0.486326  0  4.107065  0  0  0.126734  0.453544  0  4.083829  0
C  C67  1  0.77621397  0.40141032  0.66156738  1  0  0.46851  0  3.844745  0  0  0.466582  0  4.094029  0  0  0.486391  0  4.107113  0  0  0.126684  0.453611  0  4.083869  0
C  C68  1  0.89088395  0.03446393  0.09990297  1  0  -0.369464  0  3.676146  0  0  -0.4474  0  3.908824  0  0  -0.452316  0  3.914613  0  0  -0.230321  -0.443829  0  3.904437  0
C  C69  1  0.10911629  0.53447113  0.40008899  1  0  -0.369479  0  3.676309  0  0  -0.447493  0  3.909063  0  0  -0.452413  0  3.91485  0  0  -0.230338  -0.443921  0  3.904673  0
C  C70  1  0.10911521  0.96553792  0.90009922  1  0  -0.369496  0  3.676348  0  0  -0.447414  0  3.909023  0  0  -0.45232  0  3.914825  0  0  -0.230344  -0.443844  0  3.904636  0
C  C71  1  0.89088496  0.46552749  0.59989828  1  0  -0.369333  0  3.676556  0  0  -0.447378  0  3.90915  0  0  -0.452304  0  3.914934  0  0  -0.230262  -0.443804  0  3.904759  0
C  C72  1  0.30735502  0.11276607  0.38045058  1  0  0.107838  0  3.597131  0  0  0.051691  0  3.869172  0  0  0.058788  0  3.874746  0  0  -0.061627  0.047058  0  3.864785  0
C  C73  1  0.69265000  0.61276674  0.11955493  1  0  0.107802  0  3.59712  0  0  0.051778  0  3.86908  0  0  0.058878  0  3.874659  0  0  -0.061645  0.047144  0  3.86469  0
C  C74  1  0.69264658  0.88723255  0.61955380  1  0  0.1078  0  3.597068  0  0  0.051787  0  3.869018  0  0  0.058895  0  3.874596  0  0  -0.061633  0.047155  0  3.864625  0
C  C75  1  0.30735156  0.38723295  0.88044774  1  0  0.107759  0  3.597008  0  0  0.051688  0  3.869019  0  0  0.058787  0  3.874599  0  0  -0.061617  0.047056  0  3.864626  0
C  C76  1  0.22846314  0.00031330  0.44021296  1  0  -0.149782  0  3.676487  0  0  -0.188884  0  3.933555  0  0  -0.191481  0  3.947966  0  0  -0.166375  -0.18676  0  3.923219  0
C  C77  1  0.77153994  0.50031637  0.05979535  1  0  -0.149836  0  3.67658  0  0  -0.189068  0  3.933727  0  0  -0.191679  0  3.948157  0  0  -0.166471  -0.186939  0  3.923388  0
C  C78  1  0.77153611  0.99968639  0.55979437  1  0  -0.149814  0  3.676482  0  0  -0.18908  0  3.933623  0  0  -0.19169  0  3.948046  0  0  -0.166423  -0.18695  0  3.923279  0
C  C79  1  0.22845808  0.49968548  0.94021003  1  0  -0.149814  0  3.676395  0  0  -0.188986  0  3.933519  0  0  -0.191595  0  3.947947  0  0  -0.166428  -0.186856  0  3.923178  0
C  C80  1  0.17972851  0.08955684  0.53450821  1  0  -0.151668  0  3.686552  0  0  -0.189715  0  3.940232  0  0  -0.191905  0  3.953963  0  0  -0.169549  -0.187965  0  3.930656  0
C  C81  1  0.82027076  0.58955801  0.96549659  1  0  -0.151701  0  3.686472  0  0  -0.189619  0  3.940164  0  0  -0.191805  0  3.953897  0  0  -0.169486  -0.187873  0  3.930594  0
C  C82  1  0.82026949  0.91044716  0.46549632  1  0  -0.151721  0  3.686521  0  0  -0.189681  0  3.940252  0  0  -0.191862  0  3.95399  0  0  -0.169485  -0.18793  0  3.930674  0
C  C83  1  0.17972844  0.41043737  0.03450817  1  0  -0.151746  0  3.686467  0  0  -0.189702  0  3.940158  0  0  -0.19189  0  3.953891  0  0  -0.169554  -0.187956  0  3.93059  0
C  C84  1  0.32063346  0.19252350  0.57549427  1  0  0.101595  0  3.59861  0  0  0.044573  0  3.871216  0  0  0.051895  0  3.876296  0  0  -0.063154  0.039874  0  3.866843  0
C  C85  1  0.67936419  0.69252645  0.92450715  1  0  0.101741  0  3.598567  0  0  0.044618  0  3.871241  0  0  0.051956  0  3.876303  0  0  -0.063112  0.039918  0  3.866872  0
C  C86  1  0.67936573  0.80747835  0.42450963  1  0  0.101887  0  3.598287  0  0  0.044698  0  3.871049  0  0  0.052024  0  3.876126  0  0  -0.063091  0.039997  0  3.866677  0
C  C87  1  0.32063495  0.30747539  0.07549419  1  0  0.101665  0  3.598628  0  0  0.044535  0  3.871357  0  0  0.05187  0  3.876425  0  0  -0.063138  0.039835  0  3.866993  0
N  N88  1  0.65259475  0.32555639  0.35393904  1  0  -0.620449  0  2.679801  0  0  -0.585043  0  2.925651  0  0  -0.600022  0  2.932297  0  0  -0.450213  -0.575661  0  2.922115  0
N  N89  1  0.34738650  0.82557340  0.14605391  1  0  -0.620608  0  2.679943  0  0  -0.585209  0  2.925793  0  0  -0.600191  0  2.932437  0  0  -0.450282  -0.575827  0  2.922261  0
N  N90  1  0.34738165  0.67442607  0.64606295  1  0  -0.620539  0  2.68025  0  0  -0.58514  0  2.926082  0  0  -0.60012  0  2.93272  0  0  -0.450265  -0.575761  0  2.922546  0
N  N91  1  0.65263054  0.17444029  0.85394412  1  0  -0.620546  0  2.68064  0  0  -0.58516  0  2.92648  0  0  -0.600133  0  2.933123  0  0  -0.450252  -0.57578  0  2.922951  0
N  N92  1  0.62270793  0.05915538  0.12365719  1  0  -0.912767  0  2.889642  0  0  -0.870622  0  3.135074  0  0  -0.890617  0  3.133039  0  0  -0.692114  -0.856877  0  3.135895  0
N  N93  1  0.37729948  0.55916226  0.37633842  1  0  -0.912511  0  2.889397  0  0  -0.870321  0  3.134867  0  0  -0.890319  0  3.132837  0  0  -0.691982  -0.856574  0  3.135681  0
N  N94  1  0.37729710  0.94084323  0.87633935  1  0  -0.912682  0  2.889657  0  0  -0.870497  0  3.135114  0  0  -0.890494  0  3.133086  0  0  -0.692052  -0.856752  0  3.135934  0
N  N95  1  0.62270801  0.44083312  0.62366115  1  0  -0.912792  0  2.889726  0  0  -0.870632  0  3.135183  0  0  -0.890631  0  3.133148  0  0  -0.692115  -0.856884  0  3.135999  0
O  O96  1  0.37879759  0.21734461  0.47213463  1  0  -0.412769  0  2.225929  0  0  -0.338292  0  2.481432  0  0  -0.353788  0  2.480521  0  0  -0.301602  -0.327169  0  2.480678  0
O  O97  1  0.62120584  0.71734496  0.02787005  1  0  -0.41274  0  2.225961  0  0  -0.338318  0  2.481493  0  0  -0.353813  0  2.480579  0  0  -0.301585  -0.327195  0  2.480743  0
O  O98  1  0.62120402  0.78265508  0.52787060  1  0  -0.412768  0  2.22585  0  0  -0.338327  0  2.481394  0  0  -0.35382  0  2.480482  0  0  -0.301587  -0.327202  0  2.480641  0
O  O99  1  0.37879816  0.28265473  0.97213480  1  0  -0.412754  0  2.225935  0  0  -0.338287  0  2.481461  0  0  -0.353778  0  2.480549  0  0  -0.3016  -0.327164  0  2.480713  0
