# generated using pymatgen
data_ZnPH20C16N7(ClO)2
_symmetry_space_group_name_H-M   'P 1'
_cell_length_a   9.22623644
_cell_length_b   11.97450089
_cell_length_c   12.06424249
_cell_angle_alpha   67.42720448
_cell_angle_beta   69.50533669
_cell_angle_gamma   90.09578975
_symmetry_Int_Tables_number   1
_chemical_formula_structural   ZnPH20C16N7(ClO)2
_chemical_formula_sum   'Zn2 P2 H40 C32 N14 Cl4 O4'
_cell_volume   1138.49126057
_cell_formula_units_Z   2
loop_
 _symmetry_equiv_pos_site_id
 _symmetry_equiv_pos_as_xyz
  1  'x, y, z'
loop_
 _atom_site_type_symbol
 _atom_site_label
 _atom_site_symmetry_multiplicity
 _atom_site_fract_x
 _atom_site_fract_y
 _atom_site_fract_z
 _atom_site_occupancy
 _atom_site_hle17_bader_spin_density
 _atom_site_hle17_ddec_charge
 _atom_site_hle17_ddec_spin_density
 _atom_site_hle17_ddec_sum_bond_order
 _atom_site_hle17_magmom
 _atom_site_hse06_10hf_bader_spin_density
 _atom_site_hse06_10hf_ddec_charge
 _atom_site_hse06_10hf_ddec_spin_density
 _atom_site_hse06_10hf_ddec_sum_bond_order
 _atom_site_hse06_10hf_magmom
 _atom_site_hse06_bader_spin_density
 _atom_site_hse06_ddec_charge
 _atom_site_hse06_ddec_spin_density
 _atom_site_hse06_ddec_sum_bond_order
 _atom_site_hse06_magmom
 _atom_site_pbe_bader_spin_density
 _atom_site_pbe_cm5_charge
 _atom_site_pbe_ddec_charge
 _atom_site_pbe_ddec_spin_density
 _atom_site_pbe_ddec_sum_bond_order
 _atom_site_pbe_magmom
Zn  Zn0  1  0.72240242  0.28921974  0.80204740  1  0  0.831771  0  2.181426  0  0  0.654395  0  2.68366  0  0  0.693272  0  2.637076  0  0  0.550355  0.627368  0  2.715773  0
Zn  Zn1  1  0.27759958  0.71078153  0.19794758  1  0  0.831767  0  2.181481  0  0  0.654385  0  2.683729  0  0  0.693266  0  2.637148  0  0  0.550367  0.627362  0  2.715843  0
P  P2  1  0.18006955  0.81477341  0.76435361  1  0  1.441872  0  4.729555  0  0  1.278521  0  5.235341  0  0  1.330557  0  5.19965  0  0  0.528625  1.242496  0  5.259342  0
P  P3  1  0.81993257  0.18522787  0.23564880  1  0  1.441928  0  4.72955  0  0  1.278576  0  5.235332  0  0  1.330606  0  5.199635  0  0  0.528641  1.24255  0  5.259338  0
H  H4  1  0.54132196  0.67749762  0.84937761  1  0  0.097974  0  0.969699  0  0  0.112956  0  1.042884  0  0  0.113744  0  1.042389  0  0  0.093432  0.112297  0  1.043293  0
H  H5  1  0.45867815  0.32250547  0.15062134  1  0  0.097952  0  0.969746  0  0  0.112938  0  1.042926  0  0  0.113724  0  1.042436  0  0  0.093416  0.112275  0  1.043332  0
H  H6  1  0.69841411  0.62206925  0.76026228  1  0  0.079023  0  1.000587  0  0  0.098808  0  1.066719  0  0  0.097992  0  1.070053  0  0  0.095  0.099293  0  1.06449  0
H  H7  1  0.30158582  0.37793293  0.23973707  1  0  0.079025  0  1.000582  0  0  0.098813  0  1.06671  0  0  0.097997  0  1.070044  0  0  0.095  0.099299  0  1.064478  0
H  H8  1  0.50279929  0.54859143  0.81770421  1  0  0.089549  0  0.928292  0  0  0.110263  0  0.991048  0  0  0.11052  0  0.991038  0  0  0.095182  0.109936  0  0.991208  0
H  H9  1  0.49720147  0.45140893  0.18229727  1  0  0.089516  0  0.928319  0  0  0.110226  0  0.991084  0  0  0.110484  0  0.991073  0  0  0.09516  0.109898  0  0.991246  0
H  H10  1  0.66507211  0.68395708  0.48726918  1  0  0.091021  0  0.926309  0  0  0.111319  0  0.987731  0  0  0.112009  0  0.987036  0  0  0.097946  0.110722  0  0.988318  0
H  H11  1  0.33492244  0.31604141  0.51273058  1  0  0.090921  0  0.926394  0  0  0.111247  0  0.98779  0  0  0.111937  0  0.987095  0  0  0.097935  0.110652  0  0.988369  0
H  H12  1  0.80097893  0.70617946  0.55481761  1  0  0.090236  0  0.951182  0  0  0.111276  0  1.013915  0  0  0.111654  0  1.01436  0  0  0.099775  0.110905  0  1.013687  0
H  H13  1  0.19901756  0.29381722  0.44518147  1  0  0.090238  0  0.951119  0  0  0.111227  0  1.013926  0  0  0.111606  0  1.014371  0  0  0.099764  0.110841  0  1.013714  0
H  H14  1  0.72787740  0.83419691  0.46658708  1  0  0.09572  0  0.971236  0  0  0.108425  0  1.049325  0  0  0.109427  0  1.049237  0  0  0.098171  0.107607  0  1.049508  0
H  H15  1  0.27212063  0.16580160  0.53341171  1  0  0.095715  0  0.971212  0  0  0.108395  0  1.049333  0  0  0.109401  0  1.049241  0  0  0.098174  0.107578  0  1.049515  0
H  H16  1  0.56777221  0.98064524  0.30607150  1  0  0.093647  0  0.978204  0  0  0.107476  0  1.052975  0  0  0.108913  0  1.051652  0  0  0.098208  0.106296  0  1.05405  0
H  H17  1  0.43222520  0.01935601  0.69392725  1  0  0.09363  0  0.978209  0  0  0.107462  0  1.052971  0  0  0.108898  0  1.05165  0  0  0.098205  0.106285  0  1.05404  0
H  H18  1  0.46239337  0.04356567  0.20342644  1  0  0.09527  0  0.960236  0  0  0.112789  0  1.029201  0  0  0.113584  0  1.029151  0  0  0.09195  0.11204  0  1.029432  0
H  H19  1  0.53760211  0.95643741  0.79657380  1  0  0.09529  0  0.960275  0  0  0.112822  0  1.029221  0  0  0.113629  0  1.02916  0  0  0.091952  0.112074  0  1.029451  0
H  H20  1  0.45127199  0.88033596  0.28185440  1  0  0.083865  0  0.961957  0  0  0.099699  0  1.036729  0  0  0.100308  0  1.035996  0  0  0.08585  0.099158  0  1.037293  0
H  H21  1  0.54872558  0.11966620  0.71814312  1  0  0.083899  0  0.962001  0  0  0.099735  0  1.036757  0  0  0.100343  0  1.036026  0  0  0.085878  0.099193  0  1.037323  0
H  H22  1  0.11900043  0.96260169  0.36449508  1  0  0.084565  0  0.9367  0  0  0.10481  0  1.00253  0  0  0.104931  0  1.003281  0  0  0.092059  0.104601  0  1.002137  0
H  H23  1  0.88099709  0.03739408  0.63550655  1  0  0.084611  0  0.936687  0  0  0.104837  0  1.002528  0  0  0.104959  0  1.003279  0  0  0.092079  0.104638  0  1.002128  0
H  H24  1  0.24102390  0.10803636  0.28807402  1  0  0.094497  0  0.93659  0  0  0.116865  0  0.996696  0  0  0.117287  0  0.997149  0  0  0.100738  0.11651  0  0.996405  0
H  H25  1  0.75897049  0.89196122  0.71192778  1  0  0.094499  0  0.936562  0  0  0.116882  0  0.996649  0  0  0.117306  0  0.9971  0  0  0.100752  0.116528  0  0.996359  0
H  H26  1  0.12591107  0.04479633  0.45838706  1  0  0.105775  0  0.966116  0  0  0.124466  0  1.032419  0  0  0.125743  0  1.031795  0  0  0.105495  0.123481  0  1.032921  0
H  H27  1  0.87408583  0.95520218  0.54161453  1  0  0.105787  0  0.966082  0  0  0.124458  0  1.032398  0  0  0.125734  0  1.031776  0  0  0.105513  0.123475  0  1.032893  0
H  H28  1  0.83806992  0.84745697  0.95260520  1  0  0.142703  0  0.948924  0  0  0.148971  0  1.010129  0  0  0.153107  0  1.00796  0  0  0.110917  0.145878  0  1.012131  0
H  H29  1  0.16193300  0.15254248  0.04739685  1  0  0.142717  0  0.948882  0  0  0.148962  0  1.010119  0  0  0.153096  0  1.00795  0  0  0.110907  0.145868  0  1.01212  0
H  H30  1  0.67233549  0.01127552  0.94135671  1  0  0.083662  0  0.947355  0  0  0.090498  0  1.013996  0  0  0.092644  0  1.012159  0  0  0.112484  0.088835  0  1.015459  0
H  H31  1  0.32766593  0.98872300  0.05863699  1  0  0.083803  0  0.947338  0  0  0.090612  0  1.013973  0  0  0.092762  0  1.01214  0  0  0.112531  0.088948  0  1.01544  0
H  H32  1  0.24517907  0.12997933  0.75436377  1  0  0.142574  0  0.928294  0  0  0.156826  0  0.97767  0  0  0.159918  0  0.977099  0  0  0.127713  0.154598  0  0.978269  0
H  H33  1  0.75482154  0.87002011  0.24563975  1  0  0.14258  0  0.928257  0  0  0.156842  0  0.97763  0  0  0.159934  0  0.977058  0  0  0.127742  0.154613  0  0.978229  0
H  H34  1  0.06189321  0.28420941  0.74746837  1  0  0.082773  0  0.927237  0  0  0.094615  0  0.983054  0  0  0.096511  0  0.981748  0  0  0.122832  0.093107  0  0.984211  0
H  H35  1  0.93810841  0.71579002  0.25252576  1  0  0.082725  0  0.927312  0  0  0.094579  0  0.983117  0  0  0.096475  0  0.981811  0  0  0.122823  0.093072  0  0.984272  0
H  H36  1  0.69972711  0.36318159  0.01486918  1  0  0.089194  0  0.984074  0  0  0.091534  0  1.056925  0  0  0.094731  0  1.053639  0  0  0.112986  0.089185  0  1.059288  0
H  H37  1  0.30028001  0.63681605  0.98512825  1  0  0.089209  0  0.984086  0  0  0.091584  0  1.056912  0  0  0.09478  0  1.053626  0  0  0.113011  0.089236  0  1.059273  0
H  H38  1  0.80479686  0.53977718  0.04038096  1  0  0.136604  0  0.919709  0  0  0.147452  0  0.974498  0  0  0.151357  0  0.973173  0  0  0.119268  0.144615  0  0.975721  0
H  H39  1  0.19520547  0.46021952  0.95961899  1  0  0.136611  0  0.919675  0  0  0.147462  0  0.97447  0  0  0.151367  0  0.973145  0  0  0.119271  0.144624  0  0.975691  0
H  H40  1  0.10863810  0.68079166  0.63284551  1  0  0.145483  0  0.95954  0  0  0.152557  0  1.019006  0  0  0.155934  0  1.018439  0  0  0.111334  0.150077  0  1.019725  0
H  H41  1  0.89136104  0.31921235  0.36715420  1  0  0.145401  0  0.959632  0  0  0.152508  0  1.019051  0  0  0.155882  0  1.018481  0  0  0.111313  0.150029  0  1.019771  0
H  H42  1  0.98546875  0.50394489  0.62228991  1  0  0.082305  0  0.966644  0  0  0.085466  0  1.040111  0  0  0.088316  0  1.037056  0  0  0.104802  0.083369  0  1.042386  0
H  H43  1  0.01453697  0.49605732  0.37770783  1  0  0.082322  0  0.966603  0  0  0.085482  0  1.040081  0  0  0.088332  0  1.037027  0  0  0.104812  0.083386  0  1.042357  0
C  C44  1  0.44179548  0.77310998  0.65220045  1  0  0.602116  0  3.843148  0  0  0.546561  0  4.123785  0  0  0.577616  0  4.128332  0  0  0.351799  0.525794  0  4.119946  0
C  C45  1  0.55820276  0.22688945  0.34780042  1  0  0.602019  0  3.843257  0  0  0.546431  0  4.123937  0  0  0.577485  0  4.128489  0  0  0.351734  0.525666  0  4.120103  0
C  C46  1  0.31773718  0.90014225  0.52429285  1  0  0.603456  0  3.843488  0  0  0.546366  0  4.130711  0  0  0.577581  0  4.134556  0  0  0.34954  0.525456  0  4.127506  0
C  C47  1  0.68226125  0.09985809  0.47570844  1  0  0.603356  0  3.843601  0  0  0.546278  0  4.130813  0  0  0.577485  0  4.134659  0  0  0.349495  0.525368  0  4.127612  0
C  C48  1  0.57747147  0.63772312  0.77758697  1  0  -0.153359  0  3.671935  0  0  -0.253513  0  3.916933  0  0  -0.249493  0  3.92803  0  0  -0.140049  -0.255931  0  3.909252  0
C  C49  1  0.42253041  0.36227724  0.22241171  1  0  -0.15331  0  3.671982  0  0  -0.253466  0  3.916981  0  0  -0.249446  0  3.928077  0  0  -0.140018  -0.255881  0  3.909305  0
C  C50  1  0.69811690  0.73733402  0.53390467  1  0  -0.158897  0  3.691604  0  0  -0.262329  0  3.943356  0  0  -0.257962  0  3.952591  0  0  -0.137166  -0.264973  0  3.937002  0
C  C51  1  0.30187998  0.26266449  0.46609527  1  0  -0.158726  0  3.691551  0  0  -0.262126  0  3.9433  0  0  -0.257762  0  3.952536  0  0  -0.137129  -0.264753  0  3.936954  0
C  C52  1  0.45939459  0.96755684  0.29186825  1  0  -0.161295  0  3.667677  0  0  -0.262814  0  3.918344  0  0  -0.258662  0  3.927307  0  0  -0.145404  -0.265233  0  3.912221  0
C  C53  1  0.54060285  0.03244441  0.70813214  1  0  -0.161372  0  3.66784  0  0  -0.262909  0  3.9185  0  0  -0.258769  0  3.927458  0  0  -0.145439  -0.265328  0  3.91238  0
C  C54  1  0.19576958  0.02347863  0.37713974  1  0  -0.149731  0  3.66609  0  0  -0.253669  0  3.917854  0  0  -0.249633  0  3.927493  0  0  -0.137647  -0.256123  0  3.911241  0
C  C55  1  0.80422636  0.97652079  0.62286259  1  0  -0.149787  0  3.666045  0  0  -0.253695  0  3.917825  0  0  -0.249662  0  3.927466  0  0  -0.137674  -0.256157  0  3.911208  0
C  C56  1  0.05482026  0.97775935  0.85070835  1  0  0.368444  0  3.748473  0  0  0.350659  0  4.014362  0  0  0.365463  0  4.027466  0  0  0.115149  0.340629  0  4.005452  0
C  C57  1  0.94518099  0.02223735  0.14929686  1  0  0.368293  0  3.748612  0  0  0.350512  0  4.014513  0  0  0.365315  0  4.027615  0  0  0.1151  0.340483  0  4.0056  0
C  C58  1  0.89263788  0.94288721  0.90650825  1  0  -0.227092  0  3.694469  0  0  -0.248958  0  3.951442  0  0  -0.258467  0  3.970611  0  0  -0.087618  -0.242829  0  3.938875  0
C  C59  1  0.10736373  0.05711133  0.09349618  1  0  -0.227089  0  3.694629  0  0  -0.248961  0  3.951635  0  0  -0.258466  0  3.970803  0  0  -0.087645  -0.24283  0  3.939064  0
C  C60  1  0.79969157  0.03464838  0.89988323  1  0  0.162443  0  3.676463  0  0  0.130513  0  3.926079  0  0  0.138706  0  3.943589  0  0  0.055645  0.125204  0  3.914209  0
C  C61  1  0.20031128  0.96535107  0.10011470  1  0  0.162251  0  3.676574  0  0  0.13038  0  3.926177  0  0  0.138565  0  3.943695  0  0  0.0556  0.12507  0  3.914305  0
C  C62  1  0.11896551  0.10130248  0.79569742  1  0  -0.21391  0  3.691639  0  0  -0.232569  0  3.940651  0  0  -0.241581  0  3.959978  0  0  -0.079371  -0.22679  0  3.927836  0
C  C63  1  0.88103625  0.89869697  0.20430496  1  0  -0.21379  0  3.691635  0  0  -0.232485  0  3.940687  0  0  -0.241496  0  3.960012  0  0  -0.07937  -0.226706  0  3.927869  0
C  C64  1  0.01713469  0.18646857  0.79250490  1  0  0.150516  0  3.696181  0  0  0.11851  0  3.945391  0  0  0.12646  0  3.962816  0  0  0.052951  0.113368  0  3.933611  0
C  C65  1  0.98286582  0.81353087  0.20749285  1  0  0.15055  0  3.696151  0  0  0.118561  0  3.945387  0  0  0.126513  0  3.962811  0  0  0.052974  0.113418  0  3.933607  0
C  C66  1  0.78828424  0.43641832  0.93225614  1  0  0.150757  0  3.686243  0  0  0.118986  0  3.936643  0  0  0.128059  0  3.952443  0  0  0.048365  0.113112  0  3.925791  0
C  C67  1  0.21172114  0.56358206  0.06774322  1  0  0.150789  0  3.686307  0  0  0.118951  0  3.936732  0  0  0.128024  0  3.952533  0  0  0.048341  0.11308  0  3.925871  0
C  C68  1  0.84774845  0.53394503  0.94679764  1  0  -0.211008  0  3.68167  0  0  -0.234373  0  3.940251  0  0  -0.243957  0  3.958138  0  0  -0.085987  -0.228053  0  3.928228  0
C  C69  1  0.15225678  0.46605443  0.05320377  1  0  -0.211  0  3.68169  0  0  -0.234389  0  3.940257  0  0  -0.243974  0  3.958145  0  0  -0.086004  -0.228072  0  3.92825  0
C  C70  1  0.96396576  0.62426357  0.83882477  1  0  0.373473  0  3.767295  0  0  0.356774  0  4.028477  0  0  0.372929  0  4.040873  0  0  0.116958  0.345831  0  4.020018  0
C  C71  1  0.03603500  0.37573679  0.16117670  1  0  0.373272  0  3.767523  0  0  0.356662  0  4.028592  0  0  0.372815  0  4.040989  0  0  0.116891  0.345717  0  4.020133  0
C  C72  1  0.01846389  0.61352950  0.72016996  1  0  -0.243185  0  3.696864  0  0  -0.25933  0  3.941637  0  0  -0.269569  0  3.960669  0  0  -0.093162  -0.252933  0  3.929303  0
C  C73  1  0.98153622  0.38647360  0.27982899  1  0  -0.242953  0  3.697016  0  0  -0.259141  0  3.941787  0  0  -0.269373  0  3.960814  0  0  -0.093057  -0.252742  0  3.929456  0
C  C74  1  0.95012911  0.51358447  0.71408517  1  0  0.142561  0  3.716734  0  0  0.111306  0  3.966767  0  0  0.120063  0  3.983365  0  0  0.045536  0.105566  0  3.955714  0
C  C75  1  0.04987544  0.48641773  0.28591207  1  0  0.142532  0  3.716793  0  0  0.111245  0  3.966856  0  0  0.120003  0  3.983452  0  0  0.045498  0.105505  0  3.955804  0
N  N76  1  0.32402749  0.74447129  0.77105611  1  0  -0.818373  0  2.952606  0  0  -0.756726  0  3.245682  0  0  -0.783996  0  3.24405  0  0  -0.39304  -0.737854  0  3.246147  0
N  N77  1  0.67597074  0.25552814  0.22894394  1  0  -0.818394  0  2.952568  0  0  -0.756744  0  3.24567  0  0  -0.784015  0  3.244041  0  0  -0.393031  -0.737852  0  3.246097  0
N  N78  1  0.44218530  0.84424069  0.53456308  1  0  -0.619801  0  3.037455  0  0  -0.583314  0  3.330363  0  0  -0.608824  0  3.337365  0  0  -0.362056  -0.565995  0  3.325055  0
N  N79  1  0.55781272  0.15575782  0.46543571  1  0  -0.619754  0  3.037557  0  0  -0.583243  0  3.330443  0  0  -0.608755  0  3.337451  0  0  -0.362023  -0.565927  0  3.325138  0
N  N80  1  0.18362966  0.89608300  0.62384565  1  0  -0.836848  0  2.942355  0  0  -0.777027  0  3.236682  0  0  -0.80313  0  3.233356  0  0  -0.401156  -0.758992  0  3.238398  0
N  N81  1  0.81637185  0.10392102  0.37615670  1  0  -0.836807  0  2.942369  0  0  -0.777036  0  3.236742  0  0  -0.803116  0  3.233399  0  0  -0.401159  -0.759002  0  3.238459  0
N  N82  1  0.32651226  0.96693546  0.40199912  1  0  -0.135081  0  3.404378  0  0  -0.029483  0  3.633823  0  0  -0.050047  0  3.656986  0  0  -0.275471  -0.015682  0  3.617722  0
N  N83  1  0.67348599  0.03306397  0.59800257  1  0  -0.135003  0  3.404416  0  0  -0.029406  0  3.633833  0  0  -0.049971  0  3.657006  0  0  -0.275473  -0.015606  0  3.617737  0
N  N84  1  0.57174815  0.72138796  0.65482893  1  0  -0.134756  0  3.388738  0  0  -0.02635  0  3.613312  0  0  -0.046537  0  3.63498  0  0  -0.27497  -0.012773  0  3.598137  0
N  N85  1  0.42824988  0.27861055  0.34517069  1  0  -0.13474  0  3.3887  0  0  -0.02632  0  3.613267  0  0  -0.046507  0  3.634938  0  0  -0.274937  -0.012745  0  3.598087  0
N  N86  1  0.86025433  0.15436603  0.84195755  1  0  -0.322145  0  3.319402  0  0  -0.241595  0  3.595144  0  0  -0.259996  0  3.610026  0  0  -0.333018  -0.229173  0  3.584912  0
N  N87  1  0.13974730  0.84563340  0.15803740  1  0  -0.322082  0  3.319257  0  0  -0.241579  0  3.595036  0  0  -0.259984  0  3.609923  0  0  -0.333001  -0.229158  0  3.584808  0
N  N88  1  0.83701733  0.42678136  0.81752212  1  0  -0.340323  0  3.340655  0  0  -0.255283  0  3.611593  0  0  -0.275065  0  3.627121  0  0  -0.343513  -0.241906  0  3.600966  0
N  N89  1  0.16298653  0.57321718  0.18247753  1  0  -0.340325  0  3.340764  0  0  -0.255222  0  3.611671  0  0  -0.275005  0  3.627201  0  0  -0.343462  -0.241845  0  3.601044  0
Cl  Cl90  1  0.76095504  0.35315551  0.59333492  1  0  -0.574129  0  0.887789  0  0  -0.513579  0  1.13735  0  0  -0.528272  0  1.114596  0  0  -0.342208  -0.50277  0  1.153059  0
Cl  Cl91  1  0.23904188  0.64684939  0.40666009  1  0  -0.574143  0  0.887773  0  0  -0.513584  0  1.137333  0  0  -0.528278  0  1.11458  0  0  -0.342231  -0.502779  0  1.153044  0
Cl  Cl92  1  0.48307495  0.22932357  0.95793326  1  0  -0.576174  0  0.89602  0  0  -0.514869  0  1.157149  0  0  -0.528538  0  1.132857  0  0  -0.325715  -0.504946  0  1.174043  0
Cl  Cl93  1  0.51692843  0.77067862  0.04206348  1  0  -0.57618  0  0.896073  0  0  -0.514876  0  1.157212  0  0  -0.52855  0  1.132929  0  0  -0.325722  -0.504952  0  1.174105  0
O  O94  1  0.15622766  0.89279358  0.85198120  1  0  -0.478152  0  2.265063  0  0  -0.397161  0  2.504329  0  0  -0.417961  0  2.496756  0  0  -0.168161  -0.382394  0  2.509031  0
O  O95  1  0.84377278  0.10720494  0.14802271  1  0  -0.478185  0  2.265191  0  0  -0.397137  0  2.504383  0  0  -0.417948  0  2.496834  0  0  -0.168157  -0.382377  0  2.50909  0
O  O96  1  0.01540793  0.72034933  0.85790970  1  0  -0.479588  0  2.297222  0  0  -0.396723  0  2.535673  0  0  -0.41764  0  2.527111  0  0  -0.165352  -0.381999  0  2.541288  0
O  O97  1  0.98459184  0.27965194  0.14209088  1  0  -0.47957  0  2.297319  0  0  -0.396735  0  2.535731  0  0  -0.417651  0  2.527172  0  0  -0.165341  -0.38201  0  2.541348  0
