# generated using pymatgen
data_Zn4H57C88N27O22
_symmetry_space_group_name_H-M   'P 1'
_cell_length_a   19.32838322
_cell_length_b   19.63756653
_cell_length_c   20.11655117
_cell_angle_alpha   106.97357642
_cell_angle_beta   106.27866406
_cell_angle_gamma   113.59473691
_symmetry_Int_Tables_number   1
_chemical_formula_structural   Zn4H57C88N27O22
_chemical_formula_sum   'Zn4 H57 C88 N27 O22'
_cell_volume   5965.86726493
_cell_formula_units_Z   1
loop_
 _symmetry_equiv_pos_site_id
 _symmetry_equiv_pos_as_xyz
  1  'x, y, z'
loop_
 _atom_site_type_symbol
 _atom_site_label
 _atom_site_symmetry_multiplicity
 _atom_site_fract_x
 _atom_site_fract_y
 _atom_site_fract_z
 _atom_site_occupancy
 _atom_site_pbe_bader_charge
 _atom_site_pbe_bader_spin_density
 _atom_site_pbe_cm5_charge
 _atom_site_pbe_ddec_charge
 _atom_site_pbe_ddec_spin_density
 _atom_site_pbe_ddec_sum_bond_order
 _atom_site_pbe_magmom
Zn  Zn0  1  0.12951867  0.12801789  0.50523874  1  1.24672  0  0.731108  0.683719  0  2.373439  0
Zn  Zn1  1  0.89743150  0.88835430  0.50263035  1  1.187776  0  0.75439  0.606306  0  2.5035  0
Zn  Zn2  1  0.99415845  0.90166072  0.38348059  1  1.243366  0  0.7317  0.659166  0  2.427618  0
Zn  Zn3  1  0.00280517  0.08970233  0.59223228  1  1.194354  0  0.753046  0.61981  0  2.53144  0
H  H4  1  0.72588941  0.85860129  0.39139097  1  0.085405  0  0.116282  0.106864  0  0.995149  0
H  H5  1  0.74165896  0.66648803  0.39145726  1  0.098808  0  0.125309  0.117171  0  0.986071  0
H  H6  1  0.87772762  0.12825219  0.49283693  1  0.111754  0  0.114959  0.11357  0  1.040118  0
H  H7  1  0.85023223  0.90093932  0.26636044  1  0.082698  0  0.116819  0.104111  0  1.002562  0
H  H8  1  0.28753312  0.14177324  0.63200492  1  0.092344  0  0.116687  0.102713  0  1.019674  0
H  H9  1  0.00764260  0.85214428  0.61881237  1  0.082771  0  0.118665  0.110878  0  0.991647  0
H  H10  1  0.14747047  0.87373359  0.34379091  1  0.133409  0  0.127173  0.124905  0  0.983963  0
H  H11  1  0.93688415  0.11671791  0.72777398  1  0.137834  0  0.123  0.118299  0  1.003527  0
H  H12  1  0.80667418  0.84613428  0.61732149  1  0.069047  0  0.121899  0.110958  0  0.987128  0
H  H13  1  0.11242079  0.07316040  0.72992475  1  0.132144  0  0.11755  0.106082  0  1.027886  0
H  H14  1  0.15350781  0.80892092  0.66668728  1  0.104828  0  0.106503  0.113735  0  0.992261  0
H  H15  1  0.95687154  0.64031064  0.43122313  1  0.05766  0  0.105622  0.111311  0  0.998176  0
H  H16  1  0.89696284  0.48825621  0.37876875  1  0.099648  0  0.110579  0.113676  0  0.978901  0
H  H17  1  0.89723954  0.36852765  0.39365802  1  0.083325  0  0.110033  0.117517  0  0.999133  0
H  H18  1  0.21551072  0.63530550  0.76495547  1  0.096088  0  0.111547  0.118576  0  0.990509  0
H  H19  1  0.21138810  0.75331700  0.74927488  1  0.067368  0  0.111367  0.113544  0  0.978154  0
H  H20  1  0.34303756  0.06572718  0.34278786  1  0.09373  0  0.107185  0.112879  0  1.003849  0
H  H21  1  0.58475170  0.09312810  0.30344900  1  0.071298  0  0.102547  0.117034  0  1.027049  0
H  H22  1  0.69202178  0.05939417  0.35005431  1  0.059521  0  0.103453  0.113429  0  0.9936  0
H  H23  1  0.67807836  0.93613841  0.49475837  1  0.110741  0  0.10111  0.114142  0  1.048157  0
H  H24  1  0.43906879  0.91368376  0.53980690  1  0.127988  0  0.117719  0.129203  0  1.006584  0
H  H25  1  0.79615546  0.55594761  0.18047835  1  0.110052  0  0.103794  0.110546  0  1.012619  0
H  H26  1  0.68719285  0.41110452  0.07681560  1  0.117712  0  0.115937  0.126794  0  0.986647  0
H  H27  1  0.38707387  0.14617234  0.73159886  1  0.133357  0  0.113311  0.124475  0  1.013556  0
H  H28  1  0.62259382  0.55476132  0.27713350  1  0.084769  0  0.102636  0.102942  0  1.001737  0
H  H29  1  0.37697962  0.24350204  0.98273286  1  0.111808  0  0.106498  0.111514  0  1.065529  0
H  H30  1  0.51678449  0.40736508  0.17640983  1  0.097232  0  0.106292  0.109128  0  0.995139  0
H  H31  1  0.88727477  0.17455880  0.14230251  1  0.044399  0  0.104346  0.106875  0  0.995887  0
H  H32  1  0.93783962  0.17351231  0.27025979  1  0.105978  0  0.09926  0.111542  0  1.033192  0
H  H33  1  0.82560715  0.86776044  0.74954571  1  0.043866  0  0.103637  0.106768  0  0.997739  0
H  H34  1  0.75086992  0.90575372  0.02397904  1  0.099454  0  0.104573  0.104801  0  1.017887  0
H  H35  1  0.78783560  0.87055786  0.85842947  1  0.099563  0  0.110684  0.114537  0  0.988547  0
H  H36  1  0.80178107  0.90375922  0.15019206  1  0.050075  0  0.099822  0.101506  0  1.00186  0
H  H37  1  0.11038529  0.14779265  0.31285038  1  0.066088  0  0.10121  0.102731  0  0.982587  0
H  H38  1  0.17325795  0.21347856  0.41678310  1  0.0661  0  0.091367  0.090273  0  1.044706  0
H  H39  1  0.14178147  0.25590328  0.35484659  1  0.05997  0  0.106443  0.111389  0  0.977465  0
H  H40  1  0.12863295  0.72942252  0.45652007  1  0.052046  0  0.0954  0.097238  0  1.021709  0
H  H41  1  0.19622960  0.83023712  0.46478817  1  0.080478  0  0.098918  0.105599  0  1.044487  0
H  H42  1  0.13274292  0.73905663  0.37180948  1  0.071038  0  0.110562  0.11805  0  0.964773  0
H  H43  1  0.41990050  0.03919542  0.61598782  1  0.047178  0  0.104972  0.11163  0  0.978797  0
H  H44  1  0.31786893  0.97128561  0.60645476  1  0.072045  0  0.107133  0.113621  0  0.97403  0
H  H45  1  0.33207410  0.05047600  0.57524062  1  0.050524  0  0.088986  0.08038  0  1.041082  0
H  H46  1  0.43998428  0.14986793  0.21698188  1  0.049989  0  0.111546  0.115946  0  0.970892  0
H  H47  1  0.48044425  0.08185609  0.20246621  1  0.06846  0  0.102255  0.099187  0  0.984234  0
H  H48  1  0.54531669  0.18516951  0.28362089  1  0.061946  0  0.101887  0.098217  0  0.984725  0
H  H49  1  0.92616774  0.31177051  0.61739413  1  0.086949  0  0.095136  0.0958  0  1.017524  0
H  H50  1  0.01647830  0.37110695  0.71271141  1  0.092846  0  0.095369  0.099695  0  1.01405  0
H  H51  1  0.91868651  0.28643242  0.69482022  1  0.072619  0  0.115606  0.127953  0  0.960323  0
H  H52  1  0.25327079  0.24010964  0.95887024  1  0.040686  0  0.106901  0.108956  0  0.975307  0
H  H53  1  0.24758471  0.14854066  0.96498391  1  0.056639  0  0.104667  0.104727  0  0.980753  0
H  H54  1  0.15273478  0.14420759  0.91235207  1  0.078604  0  0.116555  0.123324  0  0.964377  0
H  H55  1  0.87516263  0.21225982  0.92614782  1  0.074833  0  0.090249  0.09407  0  1.02318  0
H  H56  1  0.85578141  0.17504473  0.99567823  1  0.096152  0  0.086659  0.07355  0  1.07557  0
H  H57  1  0.79331711  0.21215954  0.95175479  1  0.077746  0  0.110049  0.124583  0  0.961825  0
H  H58  1  0.19920826  0.44331933  0.55951827  1  0.068358  0  0.095121  0.096427  0  1.015341  0
H  H59  1  0.11693342  0.36004975  0.46378001  1  0.060773  0  0.095135  0.095015  0  1.025794  0
H  H60  1  0.22643741  0.39814526  0.48800875  1  0.055698  0  0.111632  0.116754  0  0.967388  0
C  C61  1  0.99773173  0.09972997  0.35596525  1  1.057521  0  0.188242  0.301748  0  4.057686  0
C  C62  1  0.77581104  0.92411521  0.42004950  1  0.427375  0  0.004907  -0.052681  0  3.98214  0
C  C63  1  0.83592942  0.72554845  0.28987098  1  0.782979  0  0.178969  0.080666  0  3.975988  0
C  C64  1  0.03919967  0.26057370  0.61674088  1  1.064829  0  0.183036  0.306384  0  4.148116  0
C  C65  1  0.77681721  0.69496294  0.36365248  1  0.435215  0  0.015017  -0.057638  0  3.949091  0
C  C66  1  0.12569169  0.29237988  0.56323851  1  1.097878  0  0.189468  0.323072  0  4.110265  0
C  C67  1  0.85335009  0.06180539  0.47106634  1  0.458445  0  0.01034  -0.038435  0  3.928944  0
C  C68  1  0.90325855  0.96508458  0.30216420  1  0.437513  0  0.012707  -0.025713  0  3.976651  0
C  C69  1  0.91965609  0.03583885  0.28992328  1  0.014585  0  -0.039925  -0.147669  0  4.05991  0
C  C70  1  0.76905880  0.99462757  0.43057344  1  -0.058199  0  -0.034892  -0.036926  0  4.057952  0
C  C71  1  0.77416120  0.65596620  0.29141779  1  -0.008071  0  -0.011589  -0.052048  0  4.00974  0
C  C72  1  0.07749711  0.32006562  0.59232679  1  -0.001453  0  -0.079094  -0.317812  0  4.092049  0
C  C73  1  0.23338964  0.11922458  0.64377852  1  0.440227  0  0.01398  -0.03579  0  3.945924  0
C  C74  1  0.02141104  0.84838585  0.56947993  1  0.394107  0  0.004894  -0.044055  0  4.010167  0
C  C75  1  0.17041826  0.93888027  0.37911310  1  0.374684  0  0.017138  -0.050556  0  3.918243  0
C  C76  1  0.91102252  0.05075704  0.69230570  1  0.406914  0  0.01333  -0.045045  0  3.956053  0
C  C77  1  0.84592398  0.91269955  0.63674770  1  0.425838  0  0.012572  -0.044622  0  3.983689  0
C  C78  1  0.24143615  0.07417784  0.45166341  1  0.798913  0  0.174495  0.062187  0  4.035252  0
C  C79  1  0.14461098  0.08601591  0.69487818  1  0.419982  0  0.011572  -0.042776  0  3.964531  0
C  C80  1  0.05184546  0.81742675  0.47098342  1  1.021711  0  0.182639  0.292075  0  4.080932  0
C  C81  1  0.22998166  0.11392008  0.71146821  1  0.016265  0  -0.036996  -0.034699  0  4.064695  0
C  C82  1  0.04994748  0.79985160  0.53404967  1  0.039319  0  -0.051903  -0.170712  0  4.092392  0
C  C83  1  0.25269536  0.00833008  0.41610582  1  0.034379  0  -0.012093  -0.031965  0  4.033397  0
C  C84  1  0.85495443  0.98036593  0.69549285  1  0.037226  0  -0.03761  -0.042581  0  4.093997  0
C  C85  1  0.11015724  0.74537287  0.61902141  1  -0.074937  0  -0.082794  -0.182553  0  3.916521  0
C  C86  1  0.05545881  0.73230544  0.54763309  1  0.025017  0  -0.005158  0.11692  0  4.078137  0
C  C87  1  0.00044497  0.65050898  0.48638650  1  -0.089606  0  -0.083259  -0.180505  0  3.92694  0
C  C88  1  0.99888438  0.58174659  0.49478713  1  0.036506  0  -0.007922  0.075703  0  4.068305  0
C  C89  1  0.05574909  0.59528926  0.56703239  1  -0.022678  0  0.001896  -0.000323  0  3.916087  0
C  C90  1  0.11172482  0.67824875  0.62972343  1  0.039396  0  -0.006114  0.07935  0  4.049174  0
C  C91  1  0.94124371  0.49804129  0.43327717  1  -0.042715  0  -0.080036  -0.110148  0  3.990182  0
C  C92  1  0.94114903  0.43152943  0.44164336  1  -0.056291  0  -0.090414  -0.132436  0  4.003139  0
C  C93  1  0.00017736  0.44384747  0.51243059  1  0.02592  0  0.000506  0.037461  0  4.024687  0
C  C94  1  0.05703470  0.52651391  0.57585336  1  -0.002877  0  0.009425  0.017921  0  3.919092  0
C  C95  1  0.11600721  0.54081525  0.64755187  1  0.036418  0  0.000428  0.036037  0  4.023428  0
C  C96  1  0.17118076  0.62439105  0.70995966  1  -0.073976  0  -0.08802  -0.127188  0  3.990071  0
C  C97  1  0.16874104  0.69000367  0.70122759  1  0.009269  0  -0.076436  -0.108298  0  3.978994  0
C  C98  1  0.00599152  0.37854844  0.52343671  1  0.181495  0  0.08061  -0.02985  0  3.904163  0
C  C99  1  0.06656161  0.38964502  0.59030851  1  0.148403  0  0.005542  0.040137  0  4.075233  0
C  C100  1  0.11897778  0.47147068  0.65107138  1  0.166279  0  0.08149  -0.027119  0  3.904714  0
C  C101  1  0.36330508  0.97556851  0.46219304  1  0.476228  0  0.08788  0.162279  0  3.986069  0
C  C102  1  0.32972018  0.00878115  0.41858527  1  0.065617  0  -0.016133  -0.014086  0  4.065332  0
C  C103  1  0.36905236  0.03978159  0.37641512  1  -0.018666  0  -0.079228  -0.134803  0  3.95023  0
C  C104  1  0.44059313  0.03774313  0.37606468  1  0.009104  0  -0.013012  -0.01828  0  4.020667  0
C  C105  1  0.47432556  0.00298316  0.41936576  1  0.004805  0  0.007653  0.032279  0  3.948797  0
C  C106  1  0.43488963  0.97179883  0.46293767  1  0.034428  0  -0.012098  -0.012894  0  4.040761  0
C  C107  1  0.48176884  0.06956420  0.33285740  1  0.404909  0  0.082  0.21041  0  4.074015  0
C  C108  1  0.55284833  0.06832256  0.33515263  1  0.014697  0  -0.120523  -0.300306  0  4.017734  0
C  C109  1  0.58741187  0.03377858  0.37875086  1  0.03587  0  -0.007283  0.109774  0  4.058908  0
C  C110  1  0.54655831  0.99932226  0.42023195  1  -0.021266  0  -0.002221  -0.013953  0  3.915794  0
C  C111  1  0.57921238  0.96252884  0.46234920  1  0.02657  0  -0.003467  0.043641  0  4.015333  0
C  C112  1  0.53667081  0.93201916  0.50522614  1  0.174415  0  0.081136  0.033998  0  3.885249  0
C  C113  1  0.46854333  0.93735287  0.50627895  1  0.025215  0  -0.07293  -0.145998  0  3.967007  0
C  C114  1  0.66025603  0.03249718  0.38102565  1  -0.04762  0  -0.088572  -0.183141  0  3.918625  0
C  C115  1  0.69186693  0.99656794  0.42197981  1  0.010918  0  -0.002969  0.109267  0  4.053995  0
C  C116  1  0.65121328  0.96196768  0.46193617  1  -0.005246  0  -0.095636  -0.18784  0  3.943006  0
C  C117  1  0.30296611  0.14567372  0.78386222  1  0.052722  0  -0.004161  0.013134  0  4.000037  0
C  C118  1  0.30133368  0.16868669  0.85741325  1  0.45415  0  0.094262  0.228045  0  4.01787  0
C  C119  1  0.37615783  0.21750918  0.92658123  1  0.059812  0  -0.106203  -0.285233  0  3.980516  0
C  C120  1  0.45546619  0.24201259  0.92730647  1  0.352612  0  0.094508  0.148977  0  4.050265  0
C  C121  1  0.45618785  0.21034250  0.85495100  1  0.222633  0  0.075312  0.000511  0  3.916588  0
C  C122  1  0.38180252  0.16488010  0.78560324  1  -0.017409  0  -0.081894  -0.161933  0  3.966771  0
C  C123  1  0.67462121  0.44321152  0.12176408  1  -0.00025  0  -0.077194  -0.129458  0  3.939904  0
C  C124  1  0.73488495  0.52433415  0.17960702  1  0.018764  0  -0.088412  -0.116799  0  3.977506  0
C  C125  1  0.59461200  0.40202467  0.11922095  1  0.277053  0  0.088554  0.171807  0  4.058913  0
C  C126  1  0.71668304  0.56744370  0.23512406  1  0.002894  0  -0.006712  0.086773  0  4.031093  0
C  C127  1  0.63827127  0.52316755  0.23481937  1  -0.037321  0  -0.092155  -0.127831  0  3.987622  0
C  C128  1  0.57859385  0.44103190  0.17856145  1  -0.102175  0  -0.085247  -0.142948  0  3.982714  0
C  C129  1  0.87717619  0.03882965  0.21955050  1  -0.00794  0  -0.00074  0.121571  0  4.01564  0
C  C130  1  0.81984550  0.96348186  0.14911727  1  -0.097625  0  -0.092362  -0.126637  0  3.982356  0
C  C131  1  0.79094950  0.96388756  0.07830216  1  0.053002  0  -0.088197  -0.138013  0  3.989646  0
C  C132  1  0.81847692  0.04068405  0.07525274  1  0.339306  0  0.076096  0.149966  0  4.065157  0
C  C133  1  0.86817857  0.11562159  0.14530545  1  -0.072095  0  -0.086038  -0.139098  0  3.987966  0
C  C134  1  0.89703204  0.11491949  0.21655248  1  -0.031225  0  -0.098698  -0.141295  0  3.972602  0
C  C135  1  0.78729212  0.04220916  0.85328146  1  0.61942  0  0.102162  0.160269  0  3.996495  0
C  C136  1  0.80465442  0.03625348  0.78930933  1  0.220901  0  0.069922  -0.075362  0  3.890732  0
C  C137  1  0.78521646  0.98232578  0.88037659  1  0.379245  0  0.08703  0.081654  0  4.039585  0
C  C138  1  0.82247097  0.97709996  0.75237965  1  0.049077  0  0.001647  0.065398  0  4.046362  0
C  C139  1  0.81305951  0.91526491  0.77689492  1  0.017302  0  -0.096242  -0.135943  0  4.021139  0
C  C140  1  0.79290958  0.91702332  0.83781166  1  -0.071619  0  -0.079947  -0.123138  0  4.003998  0
C  C141  1  0.12259554  0.19991767  0.36367123  1  0.351373  0  -0.136171  -0.167276  0  3.886169  0
C  C142  1  0.13568533  0.77027114  0.42832492  1  0.358865  0  -0.13843  -0.171189  0  3.877131  0
C  C143  1  0.35096430  0.00548969  0.57992907  1  0.378827  0  -0.135158  -0.166627  0  3.900355  0
C  C144  1  0.48024630  0.13081954  0.24632476  1  0.389633  0  -0.131211  -0.168093  0  3.936167  0
C  C145  1  0.96068685  0.30907385  0.66927085  1  0.33672  0  -0.134243  -0.157652  0  3.864969  0
C  C146  1  0.22012418  0.17143537  0.92769862  1  0.39703  0  -0.1275  -0.173168  0  3.906583  0
C  C147  1  0.82734378  0.17982617  0.94304907  1  0.316061  0  -0.144393  -0.172055  0  3.892411  0
C  C148  1  0.17968038  0.38517829  0.51050893  1  0.387868  0  -0.136394  -0.163814  0  3.891101  0
N  N149  1  0.02424468  0.06926824  0.40258605  1  -0.789299  0  -0.277725  -0.28326  0  3.557754  0
N  N150  1  0.85807930  0.94814612  0.45288074  1  -0.794786  0  -0.296989  -0.205918  0  3.663935  0
N  N151  1  0.86863760  0.79733715  0.35373350  1  -0.694588  0  -0.237848  -0.217807  0  3.487175  0
N  N152  1  0.06253168  0.20426061  0.60337059  1  -0.822531  0  -0.301996  -0.279469  0  3.564319  0
N  N153  1  0.83295431  0.77861882  0.39917700  1  -0.727495  0  -0.235651  -0.115768  0  3.524967  0
N  N154  1  0.11557177  0.22301885  0.56873184  1  -0.799982  0  -0.281245  -0.284956  0  3.456866  0
N  N155  1  0.90604059  0.03310055  0.48533671  1  -0.803952  0  -0.286742  -0.187754  0  3.583357  0
N  N156  1  0.96617709  0.98524642  0.36845346  1  -0.792436  0  -0.278664  -0.172792  0  3.618809  0
N  N157  1  0.15723906  0.09751551  0.59274830  1  -0.801457  0  -0.272587  -0.171018  0  3.578675  0
N  N158  1  0.00656503  0.89047270  0.53037662  1  -0.773023  0  -0.288342  -0.183435  0  3.600134  0
N  N159  1  0.11642238  0.96274035  0.39252066  1  -0.702599  0  -0.227625  -0.105117  0  3.479678  0
N  N160  1  0.93356918  0.02656944  0.63654810  1  -0.82283  0  -0.268249  -0.15878  0  3.539087  0
N  N161  1  0.89301443  0.94079048  0.60189535  1  -0.780841  0  -0.277506  -0.181132  0  3.580721  0
N  N162  1  0.16024705  0.04535755  0.43728493  1  -0.705292  0  -0.24065  -0.221773  0  3.534923  0
N  N163  1  0.10263455  0.07694989  0.62418686  1  -0.786543  0  -0.279003  -0.175542  0  3.622057  0
N  N164  1  0.02855173  0.87352141  0.47129246  1  -0.7945  0  -0.282414  -0.274088  0  3.551452  0
N  N165  1  0.53023089  0.30802109  0.99373841  1  -0.431419  0  -0.139511  -0.098251  0  3.299253  0
N  N166  1  0.52500288  0.32485838  0.05740392  1  -0.477704  0  -0.154575  -0.144929  0  3.270298  0
N  N167  1  0.80940238  0.04831667  0.00619626  1  -0.468711  0  -0.14626  -0.124575  0  3.270618  0
N  N168  1  0.78085454  0.97957226  0.94789215  1  -0.500434  0  -0.158804  -0.134005  0  3.343792  0
N  N169  1  0.29913372  0.16137209  0.50023460  1  0.272359  0  0.048878  0.497855  0  4.220505  0
N  N170  1  0.94520785  0.29275443  0.45968220  1  0.413773  0  0.060355  0.520748  0  4.223315  0
N  N171  1  0.18442701  0.48614922  0.72209023  1  0.398278  0  0.057928  0.521064  0  4.238804  0
N  N172  1  0.87000506  0.73450850  0.23646828  1  0.270897  0  0.056587  0.504564  0  4.195073  0
N  N173  1  0.56280006  0.89145895  0.55001802  1  0.403267  0  0.055833  0.525269  0  4.186829  0
N  N174  1  0.53504339  0.22610478  0.85066177  1  0.349879  0  0.051882  0.5274  0  4.204913  0
N  N175  1  0.80207884  0.09528359  0.75809972  1  0.398043  0  0.063974  0.540917  0  4.214524  0
O  O176  1  0.04560144  0.18057854  0.37150248  1  -1.078816  0  -0.195595  -0.198412  0  2.565367  0
O  O177  1  0.37476856  0.19180552  0.51577547  1  -0.421879  0  -0.121802  -0.303246  0  1.866464  0
O  O178  1  0.26970143  0.20483291  0.52655146  1  -0.523174  0  -0.150511  -0.358641  0  1.990299  0
O  O179  1  0.06601871  0.78405942  0.41084094  1  -1.092375  0  -0.195836  -0.199464  0  2.571755  0
O  O180  1  0.89151754  0.24450216  0.47216864  1  -0.454075  0  -0.108762  -0.31272  0  1.928425  0
O  O181  1  0.95031231  0.27541547  0.39763168  1  -0.446326  0  -0.106064  -0.309415  0  1.938997  0
O  O182  1  0.24782696  0.48774672  0.71866756  1  -0.423003  0  -0.110558  -0.297627  0  1.86245  0
O  O183  1  0.17092697  0.49621243  0.77987608  1  -0.442352  0  -0.124418  -0.324473  0  1.867185  0
O  O184  1  0.32558544  0.94364965  0.50382645  1  -1.087078  0  -0.206361  -0.203132  0  2.583187  0
O  O185  1  0.44398068  0.09975026  0.29169820  1  -1.078531  0  -0.186484  -0.158045  0  2.582558  0
O  O186  1  0.93781988  0.80342462  0.26080704  1  -0.503068  0  -0.150341  -0.350783  0  2.017282  0
O  O187  1  0.83424205  0.67733898  0.16962436  1  -0.422399  0  -0.112792  -0.2988  0  1.901354  0
O  O188  1  0.59795596  0.85456682  0.52854500  1  -0.480272  0  -0.152962  -0.358775  0  1.904909  0
O  O189  1  0.54633397  0.89469423  0.60576846  1  -0.465791  0  -0.146658  -0.345952  0  1.87869  0
O  O190  1  0.53738359  0.22144919  0.78830406  1  -0.466276  0  -0.160449  -0.360762  0  1.853786  0
O  O191  1  0.59476948  0.24269230  0.90939074  1  -0.441176  0  -0.145667  -0.348055  0  1.884474  0
O  O192  1  0.98465785  0.24843412  0.64810633  1  -1.089689  0  -0.186561  -0.179667  0  2.579708  0
O  O193  1  0.22389319  0.14460321  0.85522021  1  -1.06691  0  -0.172567  -0.142683  0  2.596755  0
O  O194  1  0.86230630  0.16911941  0.79643376  1  -0.457655  0  -0.135963  -0.350934  0  1.893807  0
O  O195  1  0.74093795  0.06690681  0.69551764  1  -0.422392  0  -0.114716  -0.305979  0  1.884838  0
O  O196  1  0.76313210  0.09678252  0.87981671  1  -1.075707  0  -0.202693  -0.175156  0  2.536994  0
O  O197  1  0.18058362  0.32432515  0.53584591  1  -1.085177  0  -0.181426  -0.165273  0  2.591216  0
