# generated using pymatgen
data_AlH21C45(ClO)6
_symmetry_space_group_name_H-M   'P 1'
_cell_length_a   3.95659929
_cell_length_b   23.58520254
_cell_length_c   23.53774060
_cell_angle_alpha   60.04336495
_cell_angle_beta   87.69160515
_cell_angle_gamma   87.24704413
_symmetry_Int_Tables_number   1
_chemical_formula_structural   AlH21C45(ClO)6
_chemical_formula_sum   'Al1 H21 C45 Cl6 O6'
_cell_volume   1900.50137266
_cell_formula_units_Z   1
loop_
 _symmetry_equiv_pos_site_id
 _symmetry_equiv_pos_as_xyz
  1  'x, y, z'
loop_
 _atom_site_type_symbol
 _atom_site_label
 _atom_site_symmetry_multiplicity
 _atom_site_fract_x
 _atom_site_fract_y
 _atom_site_fract_z
 _atom_site_occupancy
 _atom_site_pbe_bader_charge
 _atom_site_pbe_bader_spin_density
 _atom_site_pbe_cm5_charge
 _atom_site_pbe_ddec_charge
 _atom_site_pbe_ddec_spin_density
 _atom_site_pbe_ddec_sum_bond_order
 _atom_site_pbe_magmom
Al  Al0  1  0.00101731  0.50014010  0.49965070  1  2.502871  0  0.421736  1.597759  0  2.571595  0
H  H1  1  0.44771638  0.32422453  0.67555043  1  0.090422  0  0.112365  0.119538  0  0.969  0
H  H2  1  0.44626847  0.25730587  0.79639113  1  0.058345  0  0.087431  0.092877  0  1.055853  0
H  H3  1  0.80908172  0.15992794  0.01662045  1  0.086068  0  0.101095  0.113373  0  1.011055  0
H  H4  1  0.55325210  0.80754539  0.25825831  1  0.080464  0  0.101595  0.112927  0  1.010584  0
H  H5  1  0.25033224  0.89382744  0.23247408  1  0.092399  0  0.103455  0.106413  0  0.999546  0
H  H6  1  0.24843452  0.01311028  0.16818919  1  0.063083  0  0.100996  0.103431  0  1.004279  0
H  H7  1  0.50608853  0.10444788  0.10724341  1  0.069909  0  0.099161  0.098419  0  1.025985  0
H  H8  1  0.47471063  0.67523450  0.50029356  1  0.091069  0  0.112205  0.119208  0  0.971283  0
H  H9  1  0.47209963  0.79551328  0.44747695  1  0.065425  0  0.087738  0.093813  0  1.057354  0
H  H10  1  0.79550152  0.01567454  0.32156971  1  0.070958  0  0.101088  0.113205  0  1.013231  0
H  H11  1  0.64161522  0.25887671  0.43271914  1  0.034608  0  0.101856  0.113142  0  1.010014  0
H  H12  1  0.29536104  0.23400087  0.37773366  1  0.057628  0  0.103339  0.106292  0  0.998633  0
H  H13  1  0.27475496  0.16973938  0.32232050  1  0.050704  0  0.101068  0.103696  0  1.003415  0
H  H14  1  0.53876736  0.10737641  0.28815702  1  0.083181  0  0.09927  0.099126  0  1.026651  0
H  H15  1  0.49473764  0.50030132  0.32296068  1  0.03889  0  0.112359  0.119423  0  0.970241  0
H  H16  1  0.49865536  0.44575894  0.25653619  1  0.049849  0  0.089563  0.094665  0  1.047874  0
H  H17  1  0.83629961  0.31800900  0.15896346  1  0.069553  0  0.100397  0.112704  0  1.013139  0
H  H18  1  0.57249049  0.43214938  0.80765806  1  0.062356  0  0.101457  0.112725  0  1.009831  0
H  H19  1  0.22324509  0.37567675  0.89296450  1  0.057796  0  0.10336  0.106127  0  0.996559  0
H  H20  1  0.22085340  0.32011802  0.01325315  1  0.043743  0  0.100601  0.102759  0  1.003229  0
H  H21  1  0.53034027  0.28790971  0.10413744  1  0.025733  0  0.099046  0.098695  0  1.025094  0
C  C22  1  0.49134910  0.45255825  0.60026353  1  1.615206  0  0.279117  0.672436  0  4.060366  0
C  C23  1  0.52772146  0.44724264  0.45181962  1  1.627503  0  0.27928  0.671832  0  4.06214  0
C  C24  1  0.48704904  0.60054386  0.44644231  1  1.565101  0  0.279848  0.670757  0  4.057172  0
C  C25  1  0.47033730  0.34740054  0.70532045  1  0.061938  0  -0.078318  -0.068201  0  3.960167  0
C  C26  1  0.47447532  0.30979663  0.77322887  1  -0.020521  0  -0.09667  -0.136073  0  4.001078  0
C  C27  1  0.67393687  0.23871161  0.92218246  1  -0.027858  0  0.015037  0.109969  0  4.014692  0
C  C28  1  0.67331033  0.20692880  0.99044105  1  0.037992  0  -0.098052  -0.199882  0  3.981426  0
C  C29  1  0.50217282  0.71203745  0.34147894  1  0.043213  0  0.02002  0.143863  0  4.023482  0
C  C30  1  0.52474622  0.77983782  0.31143873  1  -0.06565  0  -0.096432  -0.200469  0  3.954303  0
C  C31  1  0.37974869  0.92049417  0.25146644  1  -0.186476  0  -0.088155  -0.111224  0  3.991221  0
C  C32  1  0.37760243  0.98832737  0.21491069  1  0.032741  0  -0.095028  -0.135899  0  4.001842  0
C  C33  1  0.49079320  0.41560462  0.67345413  1  -0.055035  0  -0.009402  -0.085107  0  3.933963  0
C  C34  1  0.51161984  0.33909936  0.81187710  1  0.021207  0  -0.00873  0.092064  0  3.993753  0
C  C35  1  0.51813058  0.30124893  0.88439029  1  -0.00529  0  -0.009456  0.004332  0  3.964911  0
C  C36  1  0.51556087  0.23526695  0.02501892  1  0.106152  0  -0.007064  0.082453  0  4.005201  0
C  C37  1  0.51786207  0.20017023  0.09748199  1  -0.062324  0  -0.006842  0.081748  0  4.016468  0
C  C38  1  0.51462231  0.13159265  0.13341450  1  0.015025  0  -0.087742  -0.174493  0  3.923224  0
C  C39  1  0.48527066  0.70516047  0.44695025  1  0.015641  0  -0.077426  -0.065626  0  3.960054  0
C  C40  1  0.49033843  0.77284634  0.41709924  1  -0.079235  0  -0.097832  -0.137885  0  4.001673  0
C  C41  1  0.66925423  0.92188880  0.33772496  1  -0.016882  0  0.015809  0.108937  0  4.01129  0
C  C42  1  0.66868225  0.99000943  0.30125008  1  0.070982  0  -0.098153  -0.199659  0  3.982146  0
C  C43  1  0.58001464  0.34265105  0.44515306  1  0.020775  0  0.019247  0.142286  0  4.026496  0
C  C44  1  0.60086174  0.31182719  0.40766232  1  0.06055  0  -0.096498  -0.2023  0  3.960125  0
C  C45  1  0.42300645  0.25166294  0.33021350  1  -0.062159  0  -0.08844  -0.110215  0  3.993044  0
C  C46  1  0.41119114  0.21522674  0.29886377  1  -0.055646  0  -0.095262  -0.136983  0  4.003052  0
C  C47  1  0.48833953  0.67347992  0.41000543  1  0.140916  0  -0.0095  -0.085432  0  3.927992  0
C  C48  1  0.51674852  0.81179815  0.34844689  1  0.091201  0  -0.007073  0.092084  0  3.988718  0
C  C49  1  0.52623787  0.88415561  0.31392713  1  0.036239  0  -0.010266  0.005033  0  3.959486  0
C  C50  1  0.52293898  0.02493537  0.23927712  1  0.012473  0  -0.007304  0.082472  0  4.002256  0
C  C51  1  0.52239498  0.09728262  0.20211387  1  -0.122718  0  -0.00664  0.081296  0  4.013844  0
C  C52  1  0.53284124  0.13322563  0.23476405  1  -0.069709  0  -0.087605  -0.173752  0  3.921381  0
C  C53  1  0.52289913  0.44713509  0.34649709  1  0.051396  0  -0.077458  -0.067794  0  3.961776  0
C  C54  1  0.53020401  0.41641382  0.30919507  1  -0.025042  0  -0.095668  -0.134949  0  3.994192  0
C  C55  1  0.72241111  0.33521162  0.23859926  1  -0.019791  0  0.015273  0.111272  0  4.016855  0
C  C56  1  0.71138657  0.29895774  0.20677290  1  0.085886  0  -0.098225  -0.201244  0  3.983609  0
C  C57  1  0.51922525  0.44534287  0.71168004  1  0.121797  0  0.018762  0.140847  0  4.029619  0
C  C58  1  0.53530550  0.40752671  0.77978381  1  -0.014664  0  -0.096147  -0.201229  0  3.958242  0
C  C59  1  0.35934659  0.32870415  0.92027627  1  -0.033358  0  -0.087585  -0.10985  0  3.990108  0
C  C60  1  0.35741601  0.29732113  0.98829940  1  -0.068642  0  -0.094963  -0.135987  0  4.00198  0
C  C61  1  0.54445118  0.41094402  0.41489863  1  0.028662  0  -0.00958  -0.086286  0  3.934939  0
C  C62  1  0.57364688  0.34801699  0.33906663  1  0.028773  0  -0.007766  0.093627  0  3.993212  0
C  C63  1  0.57792891  0.31278097  0.30175873  1  0.11586  0  -0.010737  0.000897  0  3.971186  0
C  C64  1  0.55436065  0.23855562  0.23578774  1  -0.069968  0  -0.006646  0.084383  0  4.001531  0
C  C65  1  0.53770481  0.20176692  0.20034801  1  0.016174  0  -0.006616  0.081411  0  4.01346  0
C  C66  1  0.52793709  0.23457971  0.13163991  1  -0.017937  0  -0.087374  -0.175241  0  3.924817  0
Cl  Cl67  1  0.61583059  0.29512221  0.52940283  1  -0.215994  0  -0.016737  -0.086732  0  1.490878  0
Cl  Cl68  1  0.55452708  0.52929596  0.67509997  1  -0.194914  0  -0.016517  -0.086553  0  1.491848  0
Cl  Cl69  1  0.51121409  0.67663721  0.29233098  1  -0.206522  0  -0.017996  -0.088742  0  1.492626  0
Cl  Cl70  1  0.93150942  0.40856401  0.19611351  1  -0.224651  0  0.001152  -0.081023  0  1.584517  0
Cl  Cl71  1  0.88873093  0.19716766  0.88735589  1  -0.222331  0  0.00242  -0.080714  0  1.587406  0
Cl  Cl72  1  0.86683617  0.88763492  0.41299054  1  -0.216107  0  0.00462  -0.078462  0  1.597255  0
O  O73  1  0.25836087  0.57190862  0.43469750  1  -1.244768  0  -0.232435  -0.591285  0  2.381195  0
O  O74  1  0.24849425  0.49317509  0.57145532  1  -1.256418  0  -0.232064  -0.592311  0  2.381943  0
O  O75  1  0.28490357  0.43575397  0.49284743  1  -1.251693  0  -0.233131  -0.595635  0  2.3902  0
O  O76  1  0.71602425  0.57194899  0.48922888  1  -1.262573  0  -0.235128  -0.596827  0  2.374262  0
O  O77  1  0.75413886  0.48913602  0.43761130  1  -1.244691  0  -0.232489  -0.589279  0  2.358406  0
O  O78  1  0.73549555  0.43852996  0.57199112  1  -1.248888  0  -0.232611  -0.590973  0  2.366374  0
