# generated using pymatgen
data_CuBH10(C3N2)3
_symmetry_space_group_name_H-M   'P 1'
_cell_length_a   8.03798772
_cell_length_b   9.99956331
_cell_length_c   13.75594922
_cell_angle_alpha   89.99991546
_cell_angle_beta   89.99984007
_cell_angle_gamma   93.70329162
_symmetry_Int_Tables_number   1
_chemical_formula_structural   CuBH10(C3N2)3
_chemical_formula_sum   'Cu4 B4 H40 C36 N24'
_cell_volume   1103.34451987
_cell_formula_units_Z   4
loop_
 _symmetry_equiv_pos_site_id
 _symmetry_equiv_pos_as_xyz
  1  'x, y, z'
loop_
 _atom_site_type_symbol
 _atom_site_label
 _atom_site_symmetry_multiplicity
 _atom_site_fract_x
 _atom_site_fract_y
 _atom_site_fract_z
 _atom_site_occupancy
 _atom_site_hle17_bader_spin_density
 _atom_site_hle17_ddec_charge
 _atom_site_hle17_ddec_spin_density
 _atom_site_hle17_ddec_sum_bond_order
 _atom_site_hle17_magmom
 _atom_site_hse06_10hf_bader_spin_density
 _atom_site_hse06_10hf_ddec_charge
 _atom_site_hse06_10hf_ddec_spin_density
 _atom_site_hse06_10hf_ddec_sum_bond_order
 _atom_site_hse06_10hf_magmom
 _atom_site_hse06_bader_spin_density
 _atom_site_hse06_ddec_charge
 _atom_site_hse06_ddec_spin_density
 _atom_site_hse06_ddec_sum_bond_order
 _atom_site_hse06_magmom
 _atom_site_pbe_bader_spin_density
 _atom_site_pbe_cm5_charge
 _atom_site_pbe_ddec_charge
 _atom_site_pbe_ddec_spin_density
 _atom_site_pbe_ddec_sum_bond_order
 _atom_site_pbe_magmom
Cu  Cu0  1  0.05657863  0.95212785  0.09028038  1  0  0.38209  0  1.936846  0  0  0.247319  0  2.435953  0  0  0.260042  0  2.38139  0  0  0.497386  0.241104  0  2.471829  0
Cu  Cu1  1  0.94342505  0.54787275  0.59027954  1  0  0.382103  0  1.936816  0  0  0.247329  0  2.435898  0  0  0.260038  0  2.381326  0  0  0.497414  0.241121  0  2.471764  0
Cu  Cu2  1  0.94342016  0.04787423  0.90971978  1  0  0.382025  0  1.936876  0  0  0.247246  0  2.435974  0  0  0.259944  0  2.381401  0  0  0.497363  0.241035  0  2.471812  0
Cu  Cu3  1  0.05657721  0.45212631  0.40971989  1  0  0.382098  0  1.936857  0  0  0.247311  0  2.435952  0  0  0.260013  0  2.381371  0  0  0.497405  0.241098  0  2.471791  0
B  B4  1  0.54969800  0.35936470  0.14341367  1  0  0.546738  0  3.159488  0  0  0.370112  0  3.477778  0  0  0.390751  0  3.476744  0  0  -0.058759  0.355694  0  3.479369  0
B  B5  1  0.45030317  0.14063644  0.64341426  1  0  0.546803  0  3.159442  0  0  0.370101  0  3.477841  0  0  0.39075  0  3.476798  0  0  -0.058757  0.355656  0  3.479457  0
B  B6  1  0.45030302  0.64063436  0.85658576  1  0  0.54678  0  3.15957  0  0  0.370118  0  3.477866  0  0  0.390758  0  3.476831  0  0  -0.058767  0.355676  0  3.479476  0
B  B7  1  0.54969793  0.85936363  0.35658662  1  0  0.54691  0  3.159288  0  0  0.370193  0  3.477711  0  0  0.390863  0  3.476614  0  0  -0.058733  0.355736  0  3.47937  0
H  H8  1  0.52601531  0.47583263  0.12926629  1  0  -0.224834  0  0.942786  0  0  -0.18444  0  1.039617  0  0  -0.188627  0  1.038313  0  0  0.056302  -0.181425  0  1.040399  0
H  H9  1  0.47398345  0.02416855  0.62926552  1  0  -0.224853  0  0.94281  0  0  -0.184436  0  1.039633  0  0  -0.188617  0  1.038314  0  0  0.05631  -0.181419  0  1.040424  0
H  H10  1  0.47398713  0.52416844  0.87073604  1  0  -0.224845  0  0.94282  0  0  -0.184443  0  1.039645  0  0  -0.188632  0  1.038346  0  0  0.056312  -0.181422  0  1.040428  0
H  H11  1  0.52601259  0.97583053  0.37073610  1  0  -0.224858  0  0.94276  0  0  -0.184441  0  1.039608  0  0  -0.188639  0  1.038319  0  0  0.056308  -0.181425  0  1.040397  0
H  H12  1  0.42037195  0.08734420  0.08076248  1  0  0.0781  0  0.952493  0  0  0.088092  0  1.018756  0  0  0.09047  0  1.015749  0  0  0.128626  0.086179  0  1.021244  0
H  H13  1  0.57963433  0.41265506  0.58076112  1  0  0.0781  0  0.952546  0  0  0.088084  0  1.01882  0  0  0.090459  0  1.015816  0  0  0.12863  0.086171  0  1.021314  0
H  H14  1  0.57962915  0.91265587  0.91923767  1  0  0.0781  0  0.952501  0  0  0.088093  0  1.018761  0  0  0.09047  0  1.015753  0  0  0.128635  0.086177  0  1.02125  0
H  H15  1  0.42036660  0.58734300  0.41923759  1  0  0.078101  0  0.952513  0  0  0.08809  0  1.018784  0  0  0.090467  0  1.015778  0  0  0.128639  0.086179  0  1.021267  0
H  H16  1  0.23691270  0.42816692  0.21522282  1  0  0.105283  0  0.961977  0  0  0.115141  0  1.025087  0  0  0.118367  0  1.022819  0  0  0.118681  0.112606  0  1.027107  0
H  H17  1  0.76308811  0.07183405  0.71522515  1  0  0.105298  0  0.961978  0  0  0.115151  0  1.025094  0  0  0.118386  0  1.022811  0  0  0.118677  0.112613  0  1.027116  0
H  H18  1  0.76308990  0.57183615  0.78477588  1  0  0.105281  0  0.962024  0  0  0.115146  0  1.025116  0  0  0.118395  0  1.022813  0  0  0.118677  0.112605  0  1.027139  0
H  H19  1  0.23691166  0.92816502  0.28477355  1  0  0.105278  0  0.961964  0  0  0.115142  0  1.025074  0  0  0.118363  0  1.022806  0  0  0.118692  0.112608  0  1.027094  0
H  H20  1  0.97779709  0.23418016  0.18943130  1  0  0.096958  0  0.974662  0  0  0.106039  0  1.036741  0  0  0.10788  0  1.037024  0  0  0.111002  0.104736  0  1.036601  0
H  H21  1  0.02220386  0.26582088  0.68943391  1  0  0.096947  0  0.974668  0  0  0.106018  0  1.036773  0  0  0.10786  0  1.037056  0  0  0.110976  0.104719  0  1.036606  0
H  H22  1  0.02220312  0.76582392  0.81056668  1  0  0.096932  0  0.974693  0  0  0.106009  0  1.036782  0  0  0.107852  0  1.037063  0  0  0.110975  0.104716  0  1.036617  0
H  H23  1  0.97779458  0.73417720  0.31056407  1  0  0.096932  0  0.974676  0  0  0.106001  0  1.036792  0  0  0.107845  0  1.037074  0  0  0.110968  0.104713  0  1.036614  0
H  H24  1  0.70211073  0.10573179  0.09250553  1  0  0.074559  0  0.974101  0  0  0.082143  0  1.044806  0  0  0.084509  0  1.041812  0  0  0.124425  0.080246  0  1.047294  0
H  H25  1  0.29788962  0.39427148  0.59250682  1  0  0.074605  0  0.974058  0  0  0.082141  0  1.044807  0  0  0.084507  0  1.041814  0  0  0.124421  0.08023  0  1.04731  0
H  H26  1  0.29788921  0.89426929  0.90749390  1  0  0.074599  0  0.97401  0  0  0.082131  0  1.044775  0  0  0.084497  0  1.041782  0  0  0.124398  0.080226  0  1.047266  0
H  H27  1  0.70211024  0.60572859  0.40749334  1  0  0.074614  0  0.974045  0  0  0.082147  0  1.044795  0  0  0.084512  0  1.041805  0  0  0.124422  0.080236  0  1.047295  0
H  H28  1  0.69841555  0.50088241  0.98427366  1  0  0.102576  0  0.977958  0  0  0.1121  0  1.042023  0  0  0.11459  0  1.041051  0  0  0.117747  0.110284  0  1.042725  0
H  H29  1  0.30158280  0.99912131  0.48427478  1  0  0.102561  0  0.977906  0  0  0.112116  0  1.041935  0  0  0.114602  0  1.040972  0  0  0.117759  0.1103  0  1.042642  0
H  H30  1  0.30158439  0.49911866  0.01572723  1  0  0.10256  0  0.977917  0  0  0.112113  0  1.041947  0  0  0.114604  0  1.040975  0  0  0.11775  0.110297  0  1.042655  0
H  H31  1  0.69841449  0.00087777  0.51572756  1  0  0.102532  0  0.977949  0  0  0.112097  0  1.041967  0  0  0.114586  0  1.041  0  0  0.117757  0.110286  0  1.04267  0
H  H32  1  0.90781004  0.35428241  0.87073215  1  0  0.088703  0  0.976318  0  0  0.099449  0  1.038638  0  0  0.101629  0  1.038338  0  0  0.107078  0.097859  0  1.038999  0
H  H33  1  0.09218662  0.14572223  0.37073544  1  0  0.088706  0  0.976311  0  0  0.099471  0  1.038612  0  0  0.101626  0  1.038336  0  0  0.107088  0.097875  0  1.038969  0
H  H34  1  0.09218883  0.64572067  0.12926729  1  0  0.088719  0  0.97629  0  0  0.099468  0  1.038613  0  0  0.101622  0  1.038339  0  0  0.107075  0.097876  0  1.038972  0
H  H35  1  0.90781076  0.85427785  0.62926617  1  0  0.088721  0  0.976301  0  0  0.099468  0  1.038631  0  0  0.101621  0  1.038357  0  0  0.10709  0.097876  0  1.038992  0
H  H36  1  0.82649014  0.51013683  0.22481451  1  0  0.079168  0  0.947727  0  0  0.088827  0  1.014925  0  0  0.091241  0  1.012348  0  0  0.128629  0.086789  0  1.017293  0
H  H37  1  0.17351404  0.98986246  0.72481663  1  0  0.079137  0  0.947792  0  0  0.088808  0  1.014969  0  0  0.091223  0  1.012394  0  0  0.128619  0.086767  0  1.017337  0
H  H38  1  0.17351203  0.48986123  0.77518638  1  0  0.079157  0  0.947782  0  0  0.088813  0  1.014991  0  0  0.091228  0  1.012414  0  0  0.12863  0.086771  0  1.01736  0
H  H39  1  0.82648848  0.01013960  0.27518571  1  0  0.079117  0  0.947802  0  0  0.088782  0  1.014997  0  0  0.091198  0  1.012424  0  0  0.128618  0.086742  0  1.017363  0
H  H40  1  0.76326180  0.22571401  0.44992095  1  0  0.101977  0  0.968955  0  0  0.112469  0  1.027665  0  0  0.114743  0  1.027681  0  0  0.112876  0.110754  0  1.027823  0
H  H41  1  0.23673759  0.27428342  0.94992247  1  0  0.101927  0  0.968982  0  0  0.112421  0  1.027689  0  0  0.114694  0  1.027704  0  0  0.112854  0.110708  0  1.02785  0
H  H42  1  0.23674375  0.77428002  0.55007703  1  0  0.101933  0  0.968938  0  0  0.112455  0  1.027613  0  0  0.114729  0  1.02763  0  0  0.112873  0.110743  0  1.027775  0
H  H43  1  0.76326013  0.72572067  0.05007768  1  0  0.101939  0  0.968965  0  0  0.112457  0  1.027651  0  0  0.114727  0  1.027672  0  0  0.112873  0.110744  0  1.027802  0
H  H44  1  0.51333500  0.17659441  0.31207828  1  0  0.107413  0  0.973218  0  0  0.115458  0  1.038749  0  0  0.117833  0  1.038443  0  0  0.115429  0.113671  0  1.039278  0
H  H45  1  0.48666401  0.32340534  0.81208007  1  0  0.107411  0  0.973215  0  0  0.115463  0  1.038737  0  0  0.117838  0  1.03843  0  0  0.115427  0.11368  0  1.039266  0
H  H46  1  0.48666709  0.82340264  0.68792188  1  0  0.107387  0  0.97323  0  0  0.11542  0  1.038782  0  0  0.117794  0  1.038477  0  0  0.115402  0.113641  0  1.039308  0
H  H47  1  0.51333487  0.67659774  0.18792155  1  0  0.107338  0  0.973304  0  0  0.115402  0  1.038815  0  0  0.117776  0  1.03851  0  0  0.115393  0.113621  0  1.039339  0
C  C48  1  0.33514576  0.15236392  0.11513238  1  0  0.1789  0  3.683897  0  0  0.123112  0  3.944604  0  0  0.135928  0  3.957296  0  0  0.133802  0.114815  0  3.936044  0
C  C49  1  0.66485671  0.34763628  0.61513094  1  0  0.178845  0  3.683975  0  0  0.123071  0  3.944685  0  0  0.13589  0  3.957372  0  0  0.133773  0.114767  0  3.93614  0
C  C50  1  0.66485543  0.84763715  0.88486706  1  0  0.178906  0  3.683862  0  0  0.123103  0  3.944564  0  0  0.135924  0  3.95725  0  0  0.133782  0.114805  0  3.936006  0
C  C51  1  0.33514182  0.65236280  0.38486777  1  0  0.17891  0  3.68386  0  0  0.123117  0  3.944567  0  0  0.135941  0  3.957256  0  0  0.133771  0.114814  0  3.936004  0
C  C52  1  0.23542544  0.32891515  0.18340610  1  0  -0.032254  0  3.702667  0  0  -0.066972  0  3.953458  0  0  -0.065238  0  3.972166  0  0  0.003577  -0.067846  0  3.940885  0
C  C53  1  0.76457429  0.17108590  0.68340614  1  0  -0.032285  0  3.702738  0  0  -0.066984  0  3.953518  0  0  -0.065255  0  3.972225  0  0  0.003588  -0.067853  0  3.940932  0
C  C54  1  0.76457442  0.67108493  0.81659334  1  0  -0.032211  0  3.702595  0  0  -0.06694  0  3.953339  0  0  -0.065222  0  3.972047  0  0  0.0036  -0.067805  0  3.940757  0
C  C55  1  0.23542540  0.82891216  0.31659184  1  0  -0.032084  0  3.70261  0  0  -0.0668  0  3.953377  0  0  -0.065057  0  3.972102  0  0  0.003653  -0.067674  0  3.9408  0
C  C56  1  0.10869677  0.23149152  0.17140563  1  0  -0.018042  0  3.769509  0  0  -0.046679  0  4.029958  0  0  -0.046069  0  4.050539  0  0  -0.014315  -0.047065  0  4.016078  0
C  C57  1  0.89130435  0.26851055  0.67140681  1  0  -0.018111  0  3.769622  0  0  -0.046746  0  4.030065  0  0  -0.046141  0  4.05065  0  0  -0.014357  -0.047124  0  4.016174  0
C  C58  1  0.89130717  0.76851254  0.82859381  1  0  -0.018068  0  3.769498  0  0  -0.046711  0  4.029945  0  0  -0.046102  0  4.050531  0  0  -0.014327  -0.047103  0  4.016056  0
C  C59  1  0.10869426  0.73148952  0.32859189  1  0  -0.018136  0  3.769551  0  0  -0.046786  0  4.030003  0  0  -0.046176  0  4.050585  0  0  -0.014356  -0.047169  0  4.016126  0
C  C60  1  0.72648711  0.19226215  0.04590308  1  0  0.16644  0  3.692612  0  0  0.111946  0  3.95423  0  0  0.124335  0  3.966775  0  0  0.126556  0.10404  0  3.945795  0
C  C61  1  0.27351347  0.30774122  0.54590523  1  0  0.166405  0  3.692592  0  0  0.111938  0  3.954149  0  0  0.12433  0  3.966693  0  0  0.126574  0.104042  0  3.945719  0
C  C62  1  0.27351283  0.80773892  0.95409635  1  0  0.166482  0  3.692508  0  0  0.112023  0  3.954103  0  0  0.124416  0  3.966649  0  0  0.126638  0.104118  0  3.945671  0
C  C63  1  0.72648763  0.69225885  0.45409565  1  0  0.166413  0  3.692524  0  0  0.111974  0  3.954102  0  0  0.124364  0  3.96665  0  0  0.126605  0.104088  0  3.945665  0
C  C64  1  0.72976883  0.39752817  0.98899165  1  0  -0.034189  0  3.726664  0  0  -0.070796  0  3.978422  0  0  -0.069452  0  3.999305  0  0  0.000477  -0.071258  0  3.963767  0
C  C65  1  0.27022965  0.10247519  0.48899324  1  0  -0.034145  0  3.726576  0  0  -0.070792  0  3.978324  0  0  -0.069447  0  3.999204  0  0  0.000532  -0.071251  0  3.963672  0
C  C66  1  0.27022880  0.60247492  0.01100924  1  0  -0.034109  0  3.726742  0  0  -0.070743  0  3.978477  0  0  -0.069397  0  3.999352  0  0  0.000528  -0.071205  0  3.963833  0
C  C67  1  0.72976764  0.89752389  0.51100837  1  0  -0.034075  0  3.726682  0  0  -0.070706  0  3.978415  0  0  -0.069362  0  3.999294  0  0  0.000547  -0.071176  0  3.963772  0
C  C68  1  0.83281168  0.32417390  0.93340474  1  0  -0.026869  0  3.782477  0  0  -0.057183  0  4.04163  0  0  -0.057461  0  4.063281  0  0  -0.019075  -0.057047  0  4.027126  0
C  C69  1  0.16718707  0.17582959  0.43340788  1  0  -0.026888  0  3.782408  0  0  -0.057244  0  4.041576  0  0  -0.057497  0  4.063237  0  0  -0.019161  -0.057099  0  4.027054  0
C  C70  1  0.16718960  0.67582817  0.06659396  1  0  -0.026899  0  3.782555  0  0  -0.057226  0  4.041727  0  0  -0.057478  0  4.06339  0  0  -0.019094  -0.057089  0  4.027223  0
C  C71  1  0.83281145  0.82416949  0.56659446  1  0  -0.02694  0  3.782411  0  0  -0.057286  0  4.041581  0  0  -0.05754  0  4.063244  0  0  -0.01917  -0.057138  0  4.027075  0
C  C72  1  0.77742127  0.42619433  0.26846625  1  0  0.166498  0  3.695899  0  0  0.114191  0  3.952607  0  0  0.126474  0  3.965249  0  0  0.130999  0.106153  0  3.944361  0
C  C73  1  0.22258026  0.07380351  0.76846729  1  0  0.16656  0  3.695823  0  0  0.114236  0  3.952529  0  0  0.126516  0  3.965176  0  0  0.130995  0.106183  0  3.944264  0
C  C74  1  0.22258197  0.57380172  0.73153463  1  0  0.166611  0  3.69584  0  0  0.11428  0  3.952552  0  0  0.126564  0  3.965196  0  0  0.131022  0.106233  0  3.944292  0
C  C75  1  0.77741844  0.92619757  0.23153433  1  0  0.166584  0  3.695875  0  0  0.114253  0  3.952586  0  0  0.126531  0  3.965242  0  0  0.130994  0.106203  0  3.944329  0
C  C76  1  0.74000454  0.27712099  0.38246867  1  0  -0.031682  0  3.765993  0  0  -0.059547  0  4.027681  0  0  -0.060021  0  4.04871  0  0  -0.018889  -0.058862  0  4.013483  0
C  C77  1  0.25999652  0.22287759  0.88247094  1  0  -0.031567  0  3.76593  0  0  -0.059419  0  4.027607  0  0  -0.059893  0  4.048636  0  0  -0.018852  -0.058737  0  4.013425  0
C  C78  1  0.26000359  0.72287404  0.61753149  1  0  -0.031533  0  3.766004  0  0  -0.059416  0  4.027687  0  0  -0.05989  0  4.048716  0  0  -0.01887  -0.058728  0  4.0135  0
C  C79  1  0.74000120  0.77712650  0.11753140  1  0  -0.031543  0  3.766062  0  0  -0.059419  0  4.027743  0  0  -0.059888  0  4.048771  0  0  -0.018862  -0.058733  0  4.013558  0
C  C80  1  0.61653934  0.25171137  0.31425612  1  0  -0.033429  0  3.710042  0  0  -0.071793  0  3.964478  0  0  -0.070272  0  3.985282  0  0  -0.00246  -0.073007  0  3.950934  0
C  C81  1  0.38345859  0.24829039  0.81425670  1  0  -0.03345  0  3.710092  0  0  -0.07184  0  3.964548  0  0  -0.070319  0  3.985353  0  0  -0.002478  -0.073079  0  3.951005  0
C  C82  1  0.38345902  0.74828570  0.68574404  1  0  -0.033444  0  3.710164  0  0  -0.071828  0  3.964647  0  0  -0.070306  0  3.985453  0  0  -0.002449  -0.073068  0  3.951107  0
C  C83  1  0.61654171  0.75171469  0.18574418  1  0  -0.033446  0  3.710226  0  0  -0.071848  0  3.964672  0  0  -0.070326  0  3.985476  0  0  -0.002449  -0.073083  0  3.951125  0
N  N84  1  0.37921776  0.27834625  0.14695996  1  0  -0.269273  0  3.510941  0  0  -0.163137  0  3.735421  0  0  -0.180898  0  3.758471  0  0  -0.231646  -0.15109  0  3.719403  0
N  N85  1  0.62078339  0.22165488  0.64695873  1  0  -0.269233  0  3.510986  0  0  -0.163114  0  3.735502  0  0  -0.180882  0  3.758556  0  0  -0.231624  -0.151068  0  3.719497  0
N  N86  1  0.62078218  0.72165483  0.85303948  1  0  -0.269348  0  3.51104  0  0  -0.163182  0  3.735507  0  0  -0.180943  0  3.758557  0  0  -0.231669  -0.151139  0  3.719498  0
N  N87  1  0.37921638  0.77834419  0.35303925  1  0  -0.269456  0  3.51103  0  0  -0.163312  0  3.73558  0  0  -0.181078  0  3.758623  0  0  -0.231714  -0.151265  0  3.719566  0
N  N88  1  0.17222842  0.12061618  0.12814653  1  0  -0.3589  0  3.439733  0  0  -0.284107  0  3.763954  0  0  -0.297232  0  3.768014  0  0  -0.403249  -0.275867  0  3.761261  0
N  N89  1  0.82777407  0.37938498  0.62814625  1  0  -0.358797  0  3.439668  0  0  -0.283999  0  3.763874  0  0  -0.297119  0  3.767921  0  0  -0.403212  -0.275758  0  3.761172  0
N  N90  1  0.82777294  0.87938689  0.87185145  1  0  -0.358823  0  3.439679  0  0  -0.284016  0  3.763889  0  0  -0.297142  0  3.767936  0  0  -0.4032  -0.275774  0  3.76117  0
N  N91  1  0.17222437  0.62061309  0.37185173  1  0  -0.35884  0  3.439528  0  0  -0.284027  0  3.763728  0  0  -0.297157  0  3.767781  0  0  -0.403213  -0.275789  0  3.761017  0
N  N92  1  0.66201987  0.31331764  0.06031283  1  0  -0.273874  0  3.52325  0  0  -0.168124  0  3.747761  0  0  -0.186412  0  3.772073  0  0  -0.235643  -0.155755  0  3.730771  0
N  N93  1  0.33798064  0.18668570  0.56031428  1  0  -0.273891  0  3.523133  0  0  -0.168075  0  3.747598  0  0  -0.186366  0  3.771912  0  0  -0.235691  -0.155713  0  3.730634  0
N  N94  1  0.33798132  0.68668343  0.93968733  1  0  -0.273906  0  3.523288  0  0  -0.168117  0  3.747759  0  0  -0.186406  0  3.772071  0  0  -0.235676  -0.155745  0  3.730778  0
N  N95  1  0.66201922  0.81331437  0.43968733  1  0  -0.273921  0  3.523075  0  0  -0.168162  0  3.747629  0  0  -0.186452  0  3.771938  0  0  -0.235721  -0.155797  0  3.730659  0
N  N96  1  0.82960748  0.19488172  0.96957317  1  0  -0.34476  0  3.415646  0  0  -0.268798  0  3.731454  0  0  -0.281491  0  3.736663  0  0  -0.396084  -0.26103  0  3.728206  0
N  N97  1  0.17039118  0.30512269  0.46957616  1  0  -0.344819  0  3.415655  0  0  -0.268815  0  3.731416  0  0  -0.281508  0  3.736616  0  0  -0.396062  -0.261041  0  3.728148  0
N  N98  1  0.17039123  0.80511936  0.03042627  1  0  -0.344865  0  3.415673  0  0  -0.268908  0  3.731479  0  0  -0.28161  0  3.736699  0  0  -0.396134  -0.26113  0  3.728234  0
N  N99  1  0.82961001  0.69487838  0.53042327  1  0  -0.34478  0  3.415641  0  0  -0.268801  0  3.731409  0  0  -0.281497  0  3.736618  0  0  -0.396055  -0.261038  0  3.728172  0
N  N100  1  0.64182378  0.34661374  0.24196151  1  0  -0.271123  0  3.526437  0  0  -0.164192  0  3.749692  0  0  -0.182095  0  3.773247  0  0  -0.235488  -0.152393  0  3.733986  0
N  N101  1  0.35818046  0.15338515  0.74196369  1  0  -0.271187  0  3.526373  0  0  -0.164224  0  3.749651  0  0  -0.182131  0  3.773208  0  0  -0.235447  -0.152362  0  3.733885  0
N  N102  1  0.35818080  0.65338330  0.75803720  1  0  -0.271203  0  3.526515  0  0  -0.164235  0  3.749748  0  0  -0.182139  0  3.773305  0  0  -0.235485  -0.15238  0  3.733999  0
N  N103  1  0.64182073  0.84661592  0.25803792  1  0  -0.271229  0  3.526526  0  0  -0.164238  0  3.749784  0  0  -0.182146  0  3.773344  0  0  -0.235482  -0.152376  0  3.734022  0
N  N104  1  0.84096550  0.38717989  0.35314158  1  0  -0.356142  0  3.411353  0  0  -0.280595  0  3.726476  0  0  -0.293473  0  3.731708  0  0  -0.397987  -0.272262  0  3.722631  0
N  N105  1  0.15903454  0.11281977  0.85314268  1  0  -0.356172  0  3.411236  0  0  -0.280626  0  3.726373  0  0  -0.293504  0  3.731602  0  0  -0.397982  -0.272293  0  3.722532  0
N  N106  1  0.15903791  0.61281817  0.64685785  1  0  -0.356276  0  3.411329  0  0  -0.280711  0  3.726462  0  0  -0.293597  0  3.731707  0  0  -0.398009  -0.272379  0  3.722638  0
N  N107  1  0.84096309  0.88718332  0.14685821  1  0  -0.356158  0  3.411323  0  0  -0.280621  0  3.726483  0  0  -0.293511  0  3.731738  0  0  -0.397971  -0.272291  0  3.72267  0
