# generated using pymatgen
data_ZnH33C34Br3NO4
_symmetry_space_group_name_H-M   'P 1'
_cell_length_a   15.91776063
_cell_length_b   18.77119740
_cell_length_c   19.50252247
_cell_angle_alpha   89.52938054
_cell_angle_beta   92.18946715
_cell_angle_gamma   89.96244679
_symmetry_Int_Tables_number   1
_chemical_formula_structural   ZnH33C34Br3NO4
_chemical_formula_sum   'Zn2 H66 C68 Br6 N2 O8'
_cell_volume   5822.81120306
_cell_formula_units_Z   2
loop_
 _symmetry_equiv_pos_site_id
 _symmetry_equiv_pos_as_xyz
  1  'x, y, z'
loop_
 _atom_site_type_symbol
 _atom_site_label
 _atom_site_symmetry_multiplicity
 _atom_site_fract_x
 _atom_site_fract_y
 _atom_site_fract_z
 _atom_site_occupancy
 _atom_site_pbe_bader_charge
 _atom_site_pbe_bader_spin_density
 _atom_site_pbe_cm5_charge
 _atom_site_pbe_ddec_charge
 _atom_site_pbe_ddec_spin_density
 _atom_site_pbe_ddec_sum_bond_order
 _atom_site_pbe_magmom
Zn  Zn0  1  0.49978403  0.41942591  0.49694005  1  1.325792  0  0.671508  0.869079  0  2.285867  0
Zn  Zn1  1  0.49351248  0.57985486  0.49416971  1  1.312186  0  0.669857  0.872385  0  2.287156  0
H  H2  1  0.92723906  0.50564599  0.40213124  1  0.043296  0  0.094304  0.092046  0  0.982372  0
H  H3  1  0.93364596  0.61168386  0.48305556  1  0.040298  0  0.093072  0.09145  0  0.97718  0
H  H4  1  0.07373050  0.51269531  0.41138140  1  0.049117  0  0.095181  0.094453  0  0.987979  0
H  H5  1  0.08022950  0.61081412  0.50005403  1  0.044497  0  0.093984  0.093389  0  0.979042  0
H  H6  1  0.07108257  0.58886038  0.58760391  1  0.055812  0  0.091692  0.088956  0  0.978857  0
H  H7  1  0.07593024  0.42246491  0.43722384  1  0.032378  0  0.094296  0.092059  0  0.981397  0
H  H8  1  0.92473143  0.59840067  0.57216642  1  0.03043  0  0.091952  0.08908  0  0.981379  0
H  H9  1  0.92886235  0.41854248  0.43692516  1  0.042703  0  0.093841  0.09241  0  0.981399  0
H  H10  1  0.06575229  0.39151484  0.56445408  1  0.018284  0  0.093382  0.092373  0  0.978156  0
H  H11  1  0.07087234  0.45960485  0.62632073  1  0.039089  0  0.093007  0.09117  0  0.97908  0
H  H12  1  0.91881669  0.39855112  0.56470864  1  0.003296  0  0.091814  0.088595  0  0.988861  0
H  H13  1  0.92434091  0.47206305  0.62062106  1  0.05257  0  0.092014  0.08917  0  0.980612  0
H  H14  1  0.39596944  0.57782154  0.70559896  1  0.080189  0  0.107535  0.109719  0  0.993386  0
H  H15  1  0.59951124  0.42780562  0.71671030  1  0.046027  0  0.104072  0.108242  0  0.998446  0
H  H16  1  0.39312431  0.57894440  0.83378178  1  0.065191  0  0.102901  0.102948  0  0.991896  0
H  H17  1  0.60060254  0.43182374  0.84509616  1  0.062641  0  0.102934  0.103451  0  0.993333  0
H  H18  1  0.37268537  0.53931140  0.14774400  1  0.050792  0  0.095889  0.10434  0  1.00117  0
H  H19  1  0.62996046  0.47019792  0.15711110  1  0.014752  0  0.095058  0.098874  0  1.031211  0
H  H20  1  0.60877247  0.16468117  0.56834099  1  0.101121  0  0.113831  0.127348  0  0.994958  0
H  H21  1  0.59155222  0.83367972  0.57903095  1  0.058402  0  0.113431  0.126362  0  0.995941  0
H  H22  1  0.53608268  0.06870518  0.39411191  1  0.100595  0  0.106561  0.114686  0  0.980138  0
H  H23  1  0.53655646  0.93682419  0.39207843  1  0.082574  0  0.104549  0.113035  0  0.989086  0
H  H24  1  0.47348855  0.93124247  0.60493875  1  0.082933  0  0.106066  0.107155  0  0.994418  0
H  H25  1  0.47392593  0.06364761  0.60710568  1  0.090636  0  0.107457  0.111409  0  0.984756  0
H  H26  1  0.21610791  0.48036384  0.36765128  1  0.048299  0  0.081047  0.112076  0  1.029061  0
H  H27  1  0.16787494  0.52000843  0.29316918  1  0.007385  0  0.079784  0.102732  0  1.0088  0
H  H28  1  0.16328276  0.42626614  0.30528221  1  0.041536  0  0.080928  0.105676  0  1.00809  0
H  H29  1  0.27284795  0.45593295  0.21980261  1  0.036519  0  0.082004  0.069399  0  0.989656  0
H  H30  1  0.32078317  0.41833804  0.29444786  1  0.042223  0  0.07913  0.074745  0  1.002473  0
H  H31  1  0.35325532  0.54138904  0.33852048  1  0.040577  0  0.086767  0.099329  0  1.013403  0
H  H32  1  0.31040904  0.57791434  0.26071575  1  0.003095  0  0.085923  0.086259  0  0.977568  0
H  H33  1  0.81241837  0.43472937  0.34597957  1  0.025482  0  0.081803  0.105702  0  1.037208  0
H  H34  1  0.76471066  0.34983098  0.33942178  1  0.024276  0  0.082262  0.107242  0  1.006953  0
H  H35  1  0.84378905  0.37450564  0.28175442  1  0.011705  0  0.080556  0.103535  0  1.010178  0
H  H36  1  0.69810743  0.38314987  0.22511982  1  0.024739  0  0.085508  0.072661  0  0.979289  0
H  H37  1  0.74933291  0.46639819  0.22723684  1  0.011106  0  0.085419  0.071954  0  0.978877  0
H  H38  1  0.67192499  0.50159091  0.32992412  1  0.039506  0  0.095883  0.103181  0  0.961597  0
H  H39  1  0.62759672  0.41687406  0.33620346  1  0.04559  0  0.095019  0.104505  0  0.980711  0
H  H40  1  0.77023841  0.21038128  0.58232030  1  0.015166  0  0.0798  0.101473  0  1.009711  0
H  H41  1  0.72424739  0.19746823  0.49883400  1  0.002788  0  0.078782  0.101994  0  1.025553  0
H  H42  1  0.82164028  0.24206761  0.50894148  1  0.015948  0  0.086466  0.114036  0  1.001322  0
H  H43  1  0.70429972  0.33095153  0.48489363  1  0.079773  0  0.091431  0.091447  0  0.99587  0
H  H44  1  0.75644445  0.34492099  0.56411247  1  0.015348  0  0.090426  0.082562  0  0.979396  0
H  H45  1  0.61190559  0.36057758  0.58379116  1  0.109857  0  0.102876  0.12648  0  1.043067  0
H  H46  1  0.64158013  0.27908212  0.62348932  1  0.031111  0  0.096652  0.101708  0  0.967871  0
H  H47  1  0.62148046  0.78611662  0.71327171  1  0.014988  0  0.080561  0.102392  0  1.011819  0
H  H48  1  0.51714925  0.80287690  0.68128416  1  -0.00421  0  0.076416  0.097168  0  1.034208  0
H  H49  1  0.53441097  0.75663823  0.75998707  1  0.033413  0  0.087058  0.116751  0  1.0004  0
H  H50  1  0.49420425  0.67035864  0.66554803  1  0.031891  0  0.089286  0.086254  0  1.004994  0
H  H51  1  0.59413975  0.65291305  0.70244154  1  0.042482  0  0.091529  0.083885  0  0.976212  0
H  H52  1  0.60841652  0.63821641  0.58326925  1  0.140711  0  0.103037  0.128723  0  1.043843  0
H  H53  1  0.65900291  0.71914277  0.60377314  1  0.021586  0  0.098117  0.104769  0  0.965113  0
H  H54  1  0.28563804  0.35045500  0.82125833  1  0.02988  0  0.084655  0.110855  0  1.001081  0
H  H55  1  0.26461260  0.30895666  0.90097357  1  0.027959  0  0.082752  0.107775  0  1.004489  0
H  H56  1  0.19468477  0.37459383  0.86573656  1  0.021178  0  0.083802  0.108145  0  1.006063  0
H  H57  1  0.28607475  0.42668693  0.96104335  1  0.01913  0  0.079375  0.067798  0  1.002437  0
H  H58  1  0.30671984  0.46821357  0.88190681  1  0.02885  0  0.083372  0.070943  0  0.99334  0
H  H59  1  0.43147128  0.39004038  0.86886335  1  0.061663  0  0.090555  0.0927  0  1.006572  0
H  H60  1  0.41052219  0.34583748  0.94684146  1  0.065614  0  0.081605  0.082623  0  1.020672  0
H  H61  1  0.69336082  0.66626767  0.81753099  1  -0.01079  0  0.082116  0.107455  0  1.015136  0
H  H62  1  0.72177220  0.71058679  0.89510139  1  0.013737  0  0.08321  0.108254  0  1.003799  0
H  H63  1  0.79031655  0.64595388  0.86157340  1  0.005069  0  0.084192  0.108736  0  1.005143  0
H  H64  1  0.71253592  0.59339054  0.95995107  1  0.030473  0  0.080377  0.069453  0  0.997743  0
H  H65  1  0.68393175  0.54979873  0.88261590  1  0.038816  0  0.083024  0.070508  0  0.997201  0
H  H66  1  0.55556853  0.62661082  0.86944560  1  0.026699  0  0.089386  0.089524  0  1.009971  0
H  H67  1  0.58364966  0.66969341  0.94733457  1  0.040636  0  0.081696  0.082709  0  1.020064  0
C  C68  1  0.49725213  0.49930317  0.36478434  1  1.563106  0  0.220364  0.62421  0  4.160764  0
C  C69  1  0.33835205  0.49209186  0.50804490  1  1.644952  0  0.213312  0.677184  0  4.2325  0
C  C70  1  0.50106642  0.50312124  0.62721545  1  1.605215  0  0.217564  0.596871  0  4.16556  0
C  C71  1  0.65900798  0.50146057  0.49705228  1  1.690646  0  0.221968  0.675767  0  4.232092  0
C  C72  1  0.04933070  0.47480050  0.44890481  1  -0.002356  0  -0.152335  -0.183704  0  3.841302  0
C  C73  1  0.05020312  0.57366516  0.53536524  1  -0.068828  0  -0.153877  -0.184706  0  3.851147  0
C  C74  1  0.95323939  0.57676988  0.52629312  1  -0.046619  0  -0.154598  -0.185367  0  3.853347  0
C  C75  1  0.95236194  0.47295900  0.44519838  1  -0.091151  0  -0.152311  -0.184735  0  3.852318  0
C  C76  1  0.74989041  0.50246846  0.50178996  1  -0.492591  0  -0.061382  -0.22521  0  4.010442  0
C  C77  1  0.08187213  0.49724000  0.52158417  1  0.175038  0  -0.000446  0.170127  0  3.904005  0
C  C78  1  0.91733216  0.50128289  0.51279641  1  0.189384  0  -0.001308  0.168202  0  3.907057  0
C  C79  1  0.94765694  0.45121838  0.57238413  1  -0.055784  0  -0.153209  -0.183563  0  3.851058  0
C  C80  1  0.04481939  0.44597016  0.57511154  1  0.002667  0  -0.154474  -0.186614  0  3.853224  0
C  C81  1  0.82621777  0.50249710  0.50736540  1  0.10943  0  -0.028723  -0.051117  0  4.053801  0
C  C82  1  0.17300179  0.49454043  0.52281131  1  -0.419497  0  -0.029033  -0.051206  0  4.04694  0
C  C83  1  0.24892796  0.49252424  0.51832200  1  0.08996  0  -0.064603  -0.218547  0  4.008587  0
C  C84  1  0.44028026  0.54578588  0.73670901  1  0.050874  0  -0.081843  -0.090427  0  3.993437  0
C  C85  1  0.55528325  0.46134426  0.74303198  1  0.056762  0  -0.085172  -0.092721  0  3.996282  0
C  C86  1  0.43906034  0.54643006  0.80806525  1  -0.088326  0  -0.089924  -0.139893  0  3.98929  0
C  C87  1  0.55550961  0.46359334  0.81436196  1  -0.062312  0  -0.09104  -0.142239  0  4.000745  0
C  C88  1  0.49735294  0.50605072  0.84770513  1  0.016699  0  0.00024  0.09553  0  3.998169  0
C  C89  1  0.49843171  0.50318668  0.70376705  1  -0.164047  0  -0.017243  -0.033515  0  3.979157  0
C  C90  1  0.45540304  0.45271697  0.95891801  1  0.096294  0  -0.015662  0.032277  0  3.967858  0
C  C91  1  0.54195922  0.56199536  0.95926219  1  -0.033596  0  -0.016067  0.030263  0  3.962673  0
C  C92  1  0.45897630  0.45424665  0.03081438  1  -0.19886  0  -0.014348  0.018222  0  3.896732  0
C  C93  1  0.54273092  0.55999238  0.03122816  1  -0.043998  0  -0.015294  0.019402  0  3.899974  0
C  C94  1  0.50188590  0.50708885  0.06887171  1  0.048171  0  -0.019054  -0.016121  0  4.019062  0
C  C95  1  0.49791817  0.50725536  0.92413224  1  -0.024197  0  -0.008  -0.032182  0  3.940972  0
C  C96  1  0.42891555  0.52394835  0.17818064  1  -0.06256  0  -0.103863  -0.206982  0  3.997582  0
C  C97  1  0.57354328  0.48462930  0.18375688  1  0.059571  0  -0.104427  -0.208598  0  3.99238  0
C  C98  1  0.42572972  0.52003014  0.24965020  1  0.026393  0  -0.010344  0.10971  0  3.969086  0
C  C99  1  0.57300784  0.48082062  0.25530193  1  -0.058634  0  -0.006731  0.113167  0  3.944126  0
C  C100  1  0.49857491  0.49966307  0.28764751  1  -0.009283  0  -0.015538  -0.128251  0  3.888325  0
C  C101  1  0.50213538  0.50646129  0.14500582  1  -0.030993  0  -0.030222  0.074215  0  4.098831  0
C  C102  1  0.56156979  0.26716556  0.53539504  1  0.528377  0  0.134314  0.305603  0  3.88621  0
C  C103  1  0.54522023  0.73195694  0.54539383  1  0.486991  0  0.135313  0.310014  0  3.879329  0
C  C104  1  0.56048085  0.19277634  0.53767165  1  -0.10148  0  -0.085528  -0.231802  0  3.92597  0
C  C105  1  0.54848257  0.80628260  0.54344474  1  0.029218  0  -0.085333  -0.232925  0  3.924638  0
C  C106  1  0.50055562  0.15358834  0.50016485  1  0.005319  0  0.009427  0.088806  0  4.013267  0
C  C107  1  0.49920694  0.84652259  0.49674536  1  -0.01826  0  0.008851  0.087871  0  4.008678  0
C  C108  1  0.43865683  0.19195780  0.46235198  1  -0.096156  0  -0.022751  -0.036008  0  3.930534  0
C  C109  1  0.44597739  0.80872692  0.45093787  1  -0.00024  0  -0.022724  -0.03337  0  3.923893  0
C  C110  1  0.44092149  0.26684276  0.46328314  1  0.569588  0  0.111114  0.19688  0  3.968362  0
C  C111  1  0.44698740  0.73386723  0.45346034  1  0.44529  0  0.107924  0.189892  0  3.984792  0
C  C112  1  0.52243322  0.03846256  0.44032163  1  -0.009921  0  -0.089519  -0.121589  0  3.991969  0
C  C113  1  0.52237326  0.96451007  0.43913235  1  -0.038254  0  -0.089046  -0.117087  0  3.996153  0
C  C114  1  0.50342833  0.92520941  0.49808004  1  -0.036682  0  -0.012051  0.064879  0  4.011761  0
C  C115  1  0.50376682  0.07473064  0.50048731  1  -0.008757  0  -0.012066  0.064178  0  4.023241  0
C  C116  1  0.48808828  0.96144185  0.55887957  1  0.010599  0  -0.086128  -0.119559  0  3.979587  0
C  C117  1  0.48829001  0.03574426  0.56013903  1  -0.073437  0  -0.087363  -0.123419  0  3.985878  0
C  C118  1  0.34309300  0.53098597  0.28338331  1  0.007877  0  -0.165262  -0.198125  0  3.939374  0
C  C119  1  0.28577177  0.46539733  0.27490015  1  -0.043401  0  -0.166661  -0.081112  0  3.945384  0
C  C120  1  0.20380962  0.47327982  0.31225457  1  -0.10613  0  -0.250134  -0.357015  0  3.988684  0
C  C121  1  0.64869800  0.45648772  0.29853772  1  0.000397  0  -0.160822  -0.193653  0  3.938252  0
C  C122  1  0.72168563  0.42516175  0.26001291  1  -0.017937  0  -0.165789  -0.084767  0  3.980516  0
C  C123  1  0.78959783  0.39436570  0.30926586  1  -0.070994  0  -0.246934  -0.355612  0  3.989402  0
C  C124  1  0.63122677  0.30591439  0.57335737  1  -0.026375  0  -0.161871  -0.253572  0  3.920903  0
C  C125  1  0.71525816  0.30711859  0.53607604  1  -0.001883  0  -0.163454  -0.081606  0  3.931346  0
C  C126  1  0.75980646  0.23534972  0.53137855  1  -0.067689  0  -0.249855  -0.360376  0  3.99956  0
C  C127  1  0.59712402  0.69286562  0.59950046  1  -0.03112  0  -0.162954  -0.252998  0  3.917649  0
C  C128  1  0.55814327  0.69205177  0.67087112  1  0.001183  0  -0.164085  -0.082524  0  3.933963  0
C  C129  1  0.55783221  0.76332276  0.70802941  1  -0.068708  0  -0.249422  -0.360933  0  4.001336  0
C  C130  1  0.40540237  0.39730610  0.91967219  1  -0.073401  0  -0.170251  -0.1989  0  3.978557  0
C  C131  1  0.31191328  0.41735027  0.91031269  1  -0.005191  0  -0.167328  -0.08464  0  3.956694  0
C  C132  1  0.26130998  0.35977195  0.87247240  1  -0.079441  0  -0.245115  -0.349164  0  3.984525  0
C  C133  1  0.58727914  0.61882270  0.92001595  1  -0.015695  0  -0.169396  -0.19678  0  3.978063  0
C  C134  1  0.68019966  0.60100044  0.90949403  1  -0.020029  0  -0.167433  -0.084437  0  3.951999  0
C  C135  1  0.72392037  0.65906010  0.86872231  1  -0.01785  0  -0.244314  -0.347791  0  3.978769  0
Br  Br136  1  0.40461813  0.37962820  0.08034047  1  -0.087245  0  0.026728  -0.072173  0  1.448022  0
Br  Br137  1  0.60061034  0.63360348  0.08165281  1  -0.085183  0  0.019  -0.076131  0  1.422623  0
Br  Br138  1  0.35189589  0.14218079  0.41406864  1  -0.018651  0  0.03697  -0.047085  0  1.480518  0
Br  Br139  1  0.37114604  0.85798505  0.38930123  1  -0.016405  0  0.038959  -0.046133  0  1.48777  0
Br  Br140  1  0.35556709  0.31723208  0.41419010  1  0.052551  0  0.092806  0.019918  0  1.629879  0
Br  Br141  1  0.37843274  0.68324397  0.39020379  1  0.052454  0  0.094869  0.015716  0  1.657404  0
N  N142  1  0.50141042  0.30378249  0.49796246  1  -1.207151  0  -0.299473  -0.286921  0  3.368892  0
N  N143  1  0.49486312  0.69598792  0.49930108  1  -1.19772  0  -0.299239  -0.28813  0  3.365955  0
O  O144  1  0.47982430  0.44079996  0.39437752  1  -1.168988  0  -0.320442  -0.568607  0  2.376109  0
O  O145  1  0.51346555  0.55849868  0.39369915  1  -1.160354  0  -0.319201  -0.560143  0  2.354603  0
O  O146  1  0.37830202  0.43530859  0.52472295  1  -1.150101  0  -0.320377  -0.557387  0  2.321426  0
O  O147  1  0.36850324  0.54845323  0.48183949  1  -1.153522  0  -0.321092  -0.569603  0  2.339237  0
O  O148  1  0.52920717  0.44742477  0.59924025  1  -1.182958  0  -0.316335  -0.557875  0  2.349024  0
O  O149  1  0.47546240  0.55960576  0.59624792  1  -1.163376  0  -0.310608  -0.544816  0  2.351607  0
O  O150  1  0.62477472  0.44248348  0.48034624  1  -1.156354  0  -0.303055  -0.540408  0  2.313251  0
O  O151  1  0.62189832  0.55951751  0.51046513  1  -1.161739  0  -0.310013  -0.548328  0  2.309579  0
