# generated using pymatgen
data_ZrH26C20(NO2)4
_symmetry_space_group_name_H-M   'P 1'
_cell_length_a   8.39143851
_cell_length_b   10.24434282
_cell_length_c   14.87013908
_cell_angle_alpha   100.99489374
_cell_angle_beta   90.00217128
_cell_angle_gamma   114.17258841
_symmetry_Int_Tables_number   1
_chemical_formula_structural   ZrH26C20(NO2)4
_chemical_formula_sum   'Zr2 H52 C40 N8 O16'
_cell_volume   1140.44867171
_cell_formula_units_Z   2
loop_
 _symmetry_equiv_pos_site_id
 _symmetry_equiv_pos_as_xyz
  1  'x, y, z'
loop_
 _atom_site_type_symbol
 _atom_site_label
 _atom_site_symmetry_multiplicity
 _atom_site_fract_x
 _atom_site_fract_y
 _atom_site_fract_z
 _atom_site_occupancy
 _atom_site_hle17_bader_spin_density
 _atom_site_hle17_ddec_charge
 _atom_site_hle17_ddec_spin_density
 _atom_site_hle17_ddec_sum_bond_order
 _atom_site_hle17_magmom
 _atom_site_hse06_10hf_bader_spin_density
 _atom_site_hse06_10hf_ddec_charge
 _atom_site_hse06_10hf_ddec_spin_density
 _atom_site_hse06_10hf_ddec_sum_bond_order
 _atom_site_hse06_10hf_magmom
 _atom_site_hse06_bader_spin_density
 _atom_site_hse06_ddec_charge
 _atom_site_hse06_ddec_spin_density
 _atom_site_hse06_ddec_sum_bond_order
 _atom_site_hse06_magmom
 _atom_site_pbe_bader_spin_density
 _atom_site_pbe_cm5_charge
 _atom_site_pbe_ddec_charge
 _atom_site_pbe_ddec_spin_density
 _atom_site_pbe_ddec_sum_bond_order
 _atom_site_pbe_magmom
Zr  Zr0  1  0.28503262  0.99999380  0.74998459  1  0  2.369977  0  2.617671  0  0  2.267133  0  3.094083  0  0  2.371223  0  3.015514  0  0  1.64276  2.194711  0  3.146445  0
Zr  Zr1  1  0.71496705  0.00000515  0.25001584  1  0  2.369994  0  2.617629  0  0  2.267146  0  3.094047  0  0  2.371235  0  3.015476  0  0  1.642761  2.194723  0  3.146409  0
H  H2  1  0.08604862  0.79508743  0.99613736  1  0  0.112644  0  0.949745  0  0  0.123678  0  1.008874  0  0  0.127645  0  1.00613  0  0  0.105169  0.120837  0  1.011037  0
H  H3  1  0.29091160  0.20494297  0.50384189  1  0  0.112915  0  0.948565  0  0  0.123619  0  1.008324  0  0  0.127681  0  1.005434  0  0  0.104976  0.120717  0  1.010356  0
H  H4  1  0.91395150  0.20491480  0.00386350  1  0  0.11268  0  0.949693  0  0  0.123711  0  1.008826  0  0  0.127679  0  1.006079  0  0  0.105168  0.120868  0  1.010992  0
H  H5  1  0.70908797  0.79505817  0.49615816  1  0  0.112937  0  0.94854  0  0  0.12363  0  1.008313  0  0  0.127695  0  1.005423  0  0  0.104982  0.120728  0  1.010345  0
H  H6  1  0.70047759  0.64311472  0.75576736  1  0  0.075963  0  0.944383  0  0  0.08973  0  1.008632  0  0  0.090843  0  1.007791  0  0  0.104996  0.08864  0  1.009537  0
H  H7  1  0.05719186  0.35675315  0.74419579  1  0  0.07585  0  0.94454  0  0  0.089984  0  1.008303  0  0  0.091102  0  1.007459  0  0  0.104892  0.08905  0  1.009099  0
H  H8  1  0.29952208  0.35688423  0.24423307  1  0  0.075973  0  0.944356  0  0  0.089732  0  1.008626  0  0  0.090846  0  1.007779  0  0  0.104999  0.088636  0  1.009533  0
H  H9  1  0.94280836  0.64324690  0.25580344  1  0  0.075835  0  0.944553  0  0  0.089968  0  1.008314  0  0  0.091085  0  1.007468  0  0  0.104882  0.089032  0  1.009117  0
H  H10  1  0.58276710  0.59260147  0.85280291  1  0  0.069853  0  0.917968  0  0  0.091409  0  0.972322  0  0  0.091537  0  0.97294  0  0  0.111024  0.091151  0  0.971979  0
H  H11  1  0.99005259  0.40735533  0.64718145  1  0  0.07048  0  0.918213  0  0  0.091734  0  0.972813  0  0  0.091882  0  0.973449  0  0  0.110948  0.091583  0  0.972386  0
H  H12  1  0.41723311  0.40739857  0.14719700  1  0  0.069855  0  0.917963  0  0  0.091414  0  0.972317  0  0  0.091543  0  0.972935  0  0  0.111023  0.091156  0  0.971973  0
H  H13  1  0.00994643  0.59264471  0.35281846  1  0  0.070484  0  0.918216  0  0  0.091735  0  0.972814  0  0  0.091882  0  0.973449  0  0  0.110954  0.091585  0  0.972387  0
H  H14  1  0.31938310  0.42259327  0.75631631  1  0  0.086899  0  0.960105  0  0  0.098989  0  1.028444  0  0  0.101501  0  1.026316  0  0  0.095328  0.097049  0  1.030169  0
H  H15  1  0.89672138  0.57738172  0.74373926  1  0  0.087391  0  0.96081  0  0  0.09925  0  1.029027  0  0  0.101707  0  1.027023  0  0  0.095737  0.097377  0  1.030637  0
H  H16  1  0.68061830  0.57740678  0.24368293  1  0  0.086909  0  0.960093  0  0  0.099003  0  1.028423  0  0  0.101514  0  1.026297  0  0  0.095356  0.097063  0  1.030148  0
H  H17  1  0.10327883  0.42261832  0.25626132  1  0  0.08742  0  0.960745  0  0  0.099281  0  1.028981  0  0  0.101739  0  1.026975  0  0  0.095747  0.097402  0  1.030589  0
H  H18  1  0.49268551  0.38371612  0.71138484  1  0  0.092746  0  0.932268  0  0  0.109795  0  0.991998  0  0  0.110654  0  0.992295  0  0  0.104134  0.109065  0  0.991991  0
H  H19  1  0.10893993  0.61621046  0.78860862  1  0  0.093479  0  0.931347  0  0  0.110459  0  0.991014  0  0  0.111377  0  0.991228  0  0  0.104217  0.109646  0  0.991124  0
H  H20  1  0.50731644  0.61628501  0.28861521  1  0  0.092726  0  0.932311  0  0  0.109785  0  0.992023  0  0  0.110644  0  0.99232  0  0  0.104132  0.109055  0  0.992016  0
H  H21  1  0.89105909  0.38378958  0.21139128  1  0  0.093455  0  0.931334  0  0  0.110445  0  0.991007  0  0  0.111362  0  0.991222  0  0  0.104212  0.109627  0  0.991114  0
H  H22  1  0.51495177  0.51066110  0.58757251  1  0  0.078685  0  0.936967  0  0  0.094687  0  0.999387  0  0  0.095329  0  0.99907  0  0  0.106303  0.093903  0  0.999998  0
H  H23  1  0.00431502  0.48918502  0.91242353  1  0  0.079117  0  0.937103  0  0  0.095387  0  0.999089  0  0  0.096028  0  0.998768  0  0  0.106555  0.094796  0  0.999536  0
H  H24  1  0.48505018  0.48934004  0.41242754  1  0  0.078643  0  0.936931  0  0  0.094666  0  0.999335  0  0  0.09531  0  0.999016  0  0  0.106273  0.093882  0  0.999946  0
H  H25  1  0.99568464  0.51081393  0.08757623  1  0  0.079116  0  0.937113  0  0  0.095402  0  0.999095  0  0  0.096043  0  0.998772  0  0  0.106562  0.09481  0  0.999542  0
H  H26  1  0.28804536  0.39818212  0.58977053  1  0  0.070063  0  0.951074  0  0  0.083699  0  1.020153  0  0  0.084177  0  1.020047  0  0  0.107444  0.08343  0  1.020043  0
H  H27  1  0.88992570  0.60171320  0.91026466  1  0  0.070582  0  0.95077  0  0  0.084669  0  1.019226  0  0  0.085106  0  1.019127  0  0  0.107541  0.084236  0  1.019444  0
H  H28  1  0.71195604  0.60181793  0.41022870  1  0  0.070065  0  0.951069  0  0  0.083713  0  1.02013  0  0  0.084192  0  1.020025  0  0  0.107435  0.083444  0  1.020022  0
H  H29  1  0.11007515  0.39828575  0.08973578  1  0  0.070578  0  0.950756  0  0  0.084683  0  1.019203  0  0  0.085117  0  1.019108  0  0  0.107547  0.084248  0  1.019422  0
H  H30  1  0.23860444  0.54057358  0.50560378  1  0  0.117237  0  0.961392  0  0  0.135499  0  1.027154  0  0  0.137391  0  1.025662  0  0  0.109226  0.134065  0  1.028269  0
H  H31  1  0.69801495  0.45937471  0.99439750  1  0  0.117196  0  0.961524  0  0  0.135878  0  1.026833  0  0  0.137756  0  1.02537  0  0  0.109278  0.134415  0  1.027995  0
H  H32  1  0.76139577  0.45942646  0.49439613  1  0  0.117254  0  0.961378  0  0  0.135519  0  1.027137  0  0  0.137411  0  1.025645  0  0  0.109234  0.134084  0  1.028252  0
H  H33  1  0.30198536  0.54062314  0.00560278  1  0  0.11718  0  0.961557  0  0  0.135897  0  1.02683  0  0  0.137773  0  1.02537  0  0  0.109289  0.134433  0  1.027992  0
H  H34  1  0.35994744  0.73528111  0.53411075  1  0  0.099382  0  0.926867  0  0  0.121366  0  0.985535  0  0  0.122327  0  0.984913  0  0  0.10477  0.120567  0  0.986082  0
H  H35  1  0.62463044  0.26467210  0.96590785  1  0  0.099637  0  0.926674  0  0  0.121812  0  0.985229  0  0  0.122814  0  0.984545  0  0  0.104802  0.120917  0  0.985885  0
H  H36  1  0.64005158  0.26471893  0.46588916  1  0  0.099409  0  0.92689  0  0  0.121397  0  0.985542  0  0  0.122357  0  0.984921  0  0  0.104783  0.120597  0  0.986089  0
H  H37  1  0.37537042  0.73532684  0.03409259  1  0  0.099652  0  0.926665  0  0  0.121825  0  0.985223  0  0  0.122821  0  0.984544  0  0  0.104792  0.120929  0  0.985878  0
H  H38  1  0.15351088  0.65271413  0.57883513  1  0  0.100779  0  0.9454  0  0  0.11835  0  1.012342  0  0  0.11919  0  1.012202  0  0  0.104269  0.117585  0  1.012586  0
H  H39  1  0.50079437  0.34725996  0.92115847  1  0  0.101545  0  0.944834  0  0  0.119218  0  1.011615  0  0  0.120025  0  1.01153  0  0  0.104502  0.118471  0  1.011832  0
H  H40  1  0.84648879  0.34728481  0.42116530  1  0  0.100793  0  0.945385  0  0  0.118369  0  1.012321  0  0  0.119206  0  1.012185  0  0  0.104271  0.117603  0  1.012566  0
H  H41  1  0.49920713  0.65273789  0.07884249  1  0  0.101537  0  0.94485  0  0  0.119206  0  1.011638  0  0  0.120014  0  1.011551  0  0  0.104481  0.118459  0  1.011856  0
H  H42  1  0.64812991  0.82534361  0.91513709  1  0  0.097691  0  0.953047  0  0  0.118703  0  1.015279  0  0  0.118678  0  1.017094  0  0  0.106047  0.118566  0  1.014165  0
H  H43  1  0.82256656  0.17464401  0.58482403  1  0  0.098149  0  0.95384  0  0  0.119263  0  1.015838  0  0  0.119236  0  1.017691  0  0  0.106363  0.119178  0  1.014676  0
H  H44  1  0.35187030  0.17465643  0.08486282  1  0  0.097726  0  0.953053  0  0  0.118739  0  1.015282  0  0  0.118716  0  1.017092  0  0  0.106064  0.118601  0  1.014168  0
H  H45  1  0.17743365  0.82535604  0.41517588  1  0  0.098136  0  0.95383  0  0  0.119268  0  1.015821  0  0  0.119241  0  1.017674  0  0  0.106374  0.119183  0  1.014659  0
H  H46  1  0.48522207  0.88681635  0.89034845  1  0  0.104872  0  0.950114  0  0  0.119238  0  1.021733  0  0  0.121383  0  1.019431  0  0  0.105533  0.117629  0  1.02335  0
H  H47  1  0.59819550  0.11316004  0.60960904  1  0  0.105352  0  0.949734  0  0  0.119498  0  1.021516  0  0  0.121699  0  1.019129  0  0  0.105466  0.117849  0  1.023245  0
H  H48  1  0.51477814  0.11318369  0.10965078  1  0  0.104888  0  0.950087  0  0  0.119254  0  1.021706  0  0  0.121399  0  1.019403  0  0  0.105544  0.117645  0  1.023323  0
H  H49  1  0.40180353  0.88684001  0.39039019  1  0  0.105315  0  0.949773  0  0  0.119498  0  1.021518  0  0  0.1217  0  1.019132  0  0  0.105467  0.117847  0  1.023248  0
H  H50  1  0.68735627  0.94525132  0.83771757  1  0  0.099799  0  0.926379  0  0  0.120071  0  0.985985  0  0  0.120616  0  0.986146  0  0  0.10242  0.11959  0  0.985867  0
H  H51  1  0.74195628  0.05475522  0.66223418  1  0  0.099705  0  0.925839  0  0  0.119991  0  0.985445  0  0  0.12052  0  0.985633  0  0  0.102089  0.119468  0  0.985441  0
H  H52  1  0.31264513  0.05474872  0.16228301  1  0  0.099806  0  0.926369  0  0  0.120083  0  0.98597  0  0  0.120625  0  0.986135  0  0  0.10242  0.119601  0  0.985852  0
H  H53  1  0.25804339  0.94524373  0.33776558  1  0  0.099686  0  0.92586  0  0  0.11997  0  0.985477  0  0  0.120498  0  0.985667  0  0  0.102076  0.119447  0  0.985473  0
C  C54  1  0.11612719  0.97718924  0.93536372  1  0  0.339386  0  3.878616  0  0  0.325554  0  4.146034  0  0  0.339016  0  4.162447  0  0  0.071602  0.316544  0  4.13459  0
C  C55  1  0.13897463  0.02280368  0.56459044  1  0  0.33773  0  3.881839  0  0  0.324924  0  4.148086  0  0  0.338361  0  4.164577  0  0  0.071152  0.315472  0  4.137186  0
C  C56  1  0.88387009  0.02280971  0.06463470  1  0  0.339465  0  3.878482  0  0  0.325598  0  4.14595  0  0  0.339058  0  4.162362  0  0  0.071602  0.316586  0  4.134507  0
C  C57  1  0.86102613  0.97719746  0.43541029  1  0  0.3378  0  3.881818  0  0  0.324997  0  4.14805  0  0  0.338434  0  4.164543  0  0  0.071187  0.315544  0  4.137152  0
C  C58  1  0.06734257  0.09567318  0.93897228  1  0  -0.192707  0  3.784007  0  0  -0.180752  0  4.031323  0  0  -0.19014  0  4.052376  0  0  -0.036957  -0.174718  0  4.017267  0
C  C59  1  0.97173602  0.90432757  0.56101689  1  0  -0.193493  0  3.785652  0  0  -0.182383  0  4.03359  0  0  -0.191782  0  4.054678  0  0  -0.037363  -0.176237  0  4.019631  0
C  C60  1  0.93265526  0.90432687  0.06102629  1  0  -0.192746  0  3.783829  0  0  -0.18078  0  4.031195  0  0  -0.190162  0  4.05224  0  0  -0.036958  -0.174746  0  4.017141  0
C  C61  1  0.02826474  0.09567356  0.43898384  1  0  -0.19351  0  3.785643  0  0  -0.182395  0  4.033584  0  0  -0.191796  0  4.054674  0  0  -0.03735  -0.176248  0  4.019624  0
C  C62  1  0.13625053  0.20274667  0.87764787  1  0  0.683775  0  3.886003  0  0  0.638914  0  4.184581  0  0  0.67527  0  4.171775  0  0  0.211203  0.614169  0  4.192732  0
C  C63  1  0.93359670  0.79725960  0.62235110  1  0  0.68456  0  3.883175  0  0  0.639388  0  4.182608  0  0  0.675796  0  4.169753  0  0  0.211676  0.614573  0  4.190833  0
C  C64  1  0.86374849  0.79725337  0.12235204  1  0  0.683816  0  3.885944  0  0  0.638911  0  4.184587  0  0  0.675265  0  4.171781  0  0  0.211176  0.614167  0  4.192738  0
C  C65  1  0.06640351  0.20274044  0.37764881  1  0  0.684533  0  3.88308  0  0  0.639355  0  4.182524  0  0  0.675764  0  4.16967  0  0  0.211643  0.614539  0  4.19075  0
C  C66  1  0.04716451  0.88456546  0.99705408  1  0  -0.178097  0  3.736458  0  0  -0.208032  0  3.992932  0  0  -0.210621  0  4.010223  0  0  -0.103444  -0.206462  0  3.981544  0
C  C67  1  0.16257947  0.11545189  0.50292098  1  0  -0.177069  0  3.736379  0  0  -0.206787  0  3.992474  0  0  -0.209428  0  4.009814  0  0  -0.102859  -0.204843  0  3.980618  0
C  C68  1  0.95283690  0.11543459  0.00294448  1  0  -0.178186  0  3.736461  0  0  -0.208116  0  3.992944  0  0  -0.210704  0  4.010239  0  0  -0.103452  -0.206544  0  3.981553  0
C  C69  1  0.83742139  0.88454706  0.49707878  1  0  -0.177121  0  3.736342  0  0  -0.206823  0  3.992414  0  0  -0.209469  0  4.009758  0  0  -0.102872  -0.204879  0  3.980559  0
C  C70  1  0.41894571  0.72956749  0.71393863  1  0  0.635303  0  3.841556  0  0  0.56103  0  4.137089  0  0  0.597637  0  4.132474  0  0  0.35118  0.536463  0  4.139458  0
C  C71  1  0.68926390  0.27040910  0.78604202  1  0  0.634501  0  3.840044  0  0  0.561409  0  4.135177  0  0  0.59809  0  4.13049  0  0  0.350971  0.536788  0  4.137311  0
C  C72  1  0.58105276  0.27043145  0.28606181  1  0  0.635327  0  3.841587  0  0  0.561083  0  4.137099  0  0  0.59769  0  4.132483  0  0  0.351195  0.536517  0  4.139466  0
C  C73  1  0.31073751  0.72959094  0.21395788  1  0  0.63458  0  3.839993  0  0  0.561434  0  4.135201  0  0  0.598117  0  4.130514  0  0  0.351  0.536813  0  4.137335  0
C  C74  1  0.57019585  0.60752034  0.78234913  1  0  0.021328  0  3.635277  0  0  -0.043588  0  3.901664  0  0  -0.038735  0  3.912945  0  0  -0.056273  -0.046509  0  3.893764  0
C  C75  1  0.96255723  0.39243014  0.71762926  1  0  0.018787  0  3.637133  0  0  -0.0452  0  3.903922  0  0  -0.040373  0  3.915302  0  0  -0.056352  -0.048337  0  3.896077  0
C  C76  1  0.42980436  0.39247970  0.21765078  1  0  0.021312  0  3.635273  0  0  -0.043618  0  3.90167  0  0  -0.038764  0  3.912951  0  0  -0.056285  -0.046532  0  3.893771  0
C  C77  1  0.03744353  0.60757099  0.28237079  1  0  0.01877  0  3.637141  0  0  -0.045195  0  3.903906  0  0  -0.04036  0  3.915274  0  0  -0.056348  -0.048339  0  3.896057  0
C  C78  1  0.43968406  0.46658973  0.72165148  1  0  -0.152151  0  3.681892  0  0  -0.196133  0  3.951609  0  0  -0.197903  0  3.963107  0  0  -0.160325  -0.195012  0  3.944033  0
C  C79  1  0.97305919  0.53335477  0.77836585  1  0  -0.153263  0  3.683515  0  0  -0.196922  0  3.953217  0  0  -0.198726  0  3.96472  0  0  -0.160856  -0.195562  0  3.94537  0
C  C80  1  0.56031670  0.53341141  0.27834790  1  0  -0.152153  0  3.681923  0  0  -0.196145  0  3.951629  0  0  -0.197917  0  3.963128  0  0  -0.160351  -0.195023  0  3.944053  0
C  C81  1  0.02694048  0.46664418  0.22163459  1  0  -0.153229  0  3.683351  0  0  -0.196914  0  3.953106  0  0  -0.198721  0  3.964607  0  0  -0.160852  -0.195525  0  3.945221  0
C  C82  1  0.40125641  0.49252668  0.62843230  1  0  0.011759  0  3.637991  0  0  -0.053197  0  3.903246  0  0  -0.048279  0  3.914808  0  0  -0.058433  -0.056452  0  3.895518  0
C  C83  1  0.90874720  0.50734788  0.87158743  1  0  0.010256  0  3.638637  0  0  -0.055838  0  3.904476  0  0  -0.050767  0  3.915835  0  0  -0.059211  -0.059065  0  3.896622  0
C  C84  1  0.59874554  0.50747446  0.37156708  1  0  0.011772  0  3.637929  0  0  -0.053172  0  3.903144  0  0  -0.048258  0  3.914708  0  0  -0.058403  -0.056429  0  3.89542  0
C  C85  1  0.09125247  0.49265106  0.12841300  1  0  0.010279  0  3.638572  0  0  -0.055852  0  3.904472  0  0  -0.05078  0  3.915833  0  0  -0.059222  -0.059084  0  3.896614  0
C  C86  1  0.27311838  0.63886866  0.55999317  1  0  -0.161712  0  3.650156  0  0  -0.262576  0  3.900571  0  0  -0.258455  0  3.90842  0  0  -0.134419  -0.265088  0  3.895329  0
C  C87  1  0.63422304  0.36107621  0.94001138  1  0  -0.16252  0  3.648778  0  0  -0.264509  0  3.89944  0  0  -0.260362  0  3.907232  0  0  -0.134584  -0.267  0  3.894235  0
C  C88  1  0.72688010  0.36113029  0.44000659  1  0  -0.161773  0  3.65019  0  0  -0.262629  0  3.900611  0  0  -0.258507  0  3.908461  0  0  -0.13443  -0.265141  0  3.895369  0
C  C89  1  0.36577846  0.63892164  0.05998824  1  0  -0.162515  0  3.648802  0  0  -0.264518  0  3.89946  0  0  -0.260363  0  3.907257  0  0  -0.134548  -0.267007  0  3.894255  0
C  C90  1  0.58604314  0.85295503  0.86135847  1  0  -0.149446  0  3.66019  0  0  -0.25184  0  3.914873  0  0  -0.247644  0  3.923556  0  0  -0.13292  -0.254432  0  3.908931  0
C  C91  1  0.73287001  0.14704203  0.63859488  1  0  -0.151381  0  3.659176  0  0  -0.252791  0  3.91452  0  0  -0.248621  0  3.923161  0  0  -0.132962  -0.255393  0  3.908719  0
C  C92  1  0.41395707  0.14704502  0.13864144  1  0  -0.14949  0  3.660198  0  0  -0.251889  0  3.914883  0  0  -0.247693  0  3.923565  0  0  -0.132932  -0.254481  0  3.908942  0
C  C93  1  0.26712847  0.85295692  0.36140421  1  0  -0.151295  0  3.659194  0  0  -0.252755  0  3.914525  0  0  -0.248586  0  3.923167  0  0  -0.132947  -0.255352  0  3.908721  0
N  N94  1  0.36014697  0.62036527  0.63882543  1  0  -0.205209  0  3.395592  0  0  -0.112053  0  3.639941  0  0  -0.132784  0  3.659944  0  0  -0.280123  -0.098184  0  3.62603  0
N  N95  1  0.73976880  0.37955240  0.86118901  1  0  -0.20547  0  3.393686  0  0  -0.111323  0  3.637101  0  0  -0.13216  0  3.657143  0  0  -0.279904  -0.097454  0  3.622993  0
N  N96  1  0.63985379  0.37963587  0.36117462  1  0  -0.205207  0  3.395608  0  0  -0.112123  0  3.64002  0  0  -0.132848  0  3.66001  0  0  -0.280151  -0.098254  0  3.62611  0
N  N97  1  0.26023206  0.62044655  0.13881142  1  0  -0.20551  0  3.393684  0  0  -0.111363  0  3.637169  0  0  -0.1322  0  3.65721  0  0  -0.279946  -0.097495  0  3.623063  0
N  N98  1  0.50930006  0.72355179  0.78694015  1  0  -0.212599  0  3.389453  0  0  -0.117889  0  3.631126  0  0  -0.138075  0  3.649487  0  0  -0.282413  -0.104307  0  3.618164  0
N  N99  1  0.78558998  0.27645040  0.71302370  1  0  -0.208497  0  3.385449  0  0  -0.117282  0  3.630244  0  0  -0.137506  0  3.648629  0  0  -0.282128  -0.103612  0  3.617311  0
N  N100  1  0.49070135  0.27644825  0.21305975  1  0  -0.212619  0  3.389488  0  0  -0.117909  0  3.631149  0  0  -0.138096  0  3.649511  0  0  -0.282427  -0.104327  0  3.618183  0
N  N101  1  0.21441088  0.72354854  0.28697606  1  0  -0.208549  0  3.385436  0  0  -0.117308  0  3.630232  0  0  -0.137535  0  3.648615  0  0  -0.282134  -0.103639  0  3.617301  0
O  O102  1  0.38744537  0.84285084  0.71582556  1  0  -0.751652  0  2.144311  0  0  -0.706242  0  2.438015  0  0  -0.736909  0  2.42266  0  0  -0.400612  -0.684746  0  2.447075  0
O  O103  1  0.54443183  0.15719190  0.78412296  1  0  -0.751239  0  2.143629  0  0  -0.705851  0  2.436886  0  0  -0.736517  0  2.421419  0  0  -0.400338  -0.684077  0  2.445788  0
O  O104  1  0.61255484  0.15714920  0.28417435  1  0  -0.751648  0  2.144338  0  0  -0.706236  0  2.438034  0  0  -0.7369  0  2.422672  0  0  -0.400599  -0.684738  0  2.447092  0
O  O105  1  0.45556958  0.84280814  0.21587695  1  0  -0.751288  0  2.143642  0  0  -0.705882  0  2.436934  0  0  -0.736548  0  2.421465  0  0  -0.400376  -0.684111  0  2.44584  0
O  O106  1  0.19245449  0.15960395  0.80014681  1  0  -0.7553  0  2.060348  0  0  -0.710018  0  2.32403  0  0  -0.743547  0  2.31096  0  0  -0.41362  -0.686717  0  2.332033  0
O  O107  1  0.03290397  0.84049156  0.69987240  1  0  -0.755498  0  2.059117  0  0  -0.710031  0  2.322786  0  0  -0.743564  0  2.309701  0  0  -0.413992  -0.686555  0  2.330764  0
O  O108  1  0.80754856  0.84039937  0.19985286  1  0  -0.755342  0  2.060407  0  0  -0.710046  0  2.324127  0  0  -0.743575  0  2.311057  0  0  -0.413612  -0.686741  0  2.33212  0
O  O109  1  0.96709505  0.15950849  0.30012751  1  0  -0.755458  0  2.05902  0  0  -0.709988  0  2.322695  0  0  -0.743522  0  2.309611  0  0  -0.413964  -0.686512  0  2.330671  0
O  O110  1  0.22827635  0.95420851  0.87708418  1  0  -0.73398  0  2.080999  0  0  -0.690953  0  2.346711  0  0  -0.723838  0  2.339659  0  0  -0.450056  -0.667693  0  2.350438  0
O  O111  1  0.27411251  0.04578060  0.62286406  1  0  -0.73263  0  2.082369  0  0  -0.689715  0  2.347545  0  0  -0.722677  0  2.340648  0  0  -0.449541  -0.666781  0  2.351555  0
O  O112  1  0.77172212  0.04579044  0.12291491  1  0  -0.733992  0  2.080962  0  0  -0.69095  0  2.346688  0  0  -0.723835  0  2.339637  0  0  -0.450035  -0.667693  0  2.350419  0
O  O113  1  0.72588651  0.95421944  0.37713652  1  0  -0.732648  0  2.082327  0  0  -0.689743  0  2.347527  0  0  -0.722705  0  2.340629  0  0  -0.449552  -0.666809  0  2.351537  0
O  O114  1  0.13834720  0.32720005  0.89971520  1  0  -0.590548  0  1.897682  0  0  -0.551326  0  2.119258  0  0  -0.572175  0  2.109123  0  0  -0.312407  -0.536751  0  2.125852  0
O  O115  1  0.81127919  0.67280246  0.60031426  1  0  -0.590895  0  1.897486  0  0  -0.551077  0  2.118664  0  0  -0.57199  0  2.108515  0  0  -0.312486  -0.53649  0  2.125309  0
O  O116  1  0.86165292  0.67280218  0.10028500  1  0  -0.590533  0  1.89766  0  0  -0.551301  0  2.119273  0  0  -0.572152  0  2.109141  0  0  -0.312389  -0.536728  0  2.125868  0
O  O117  1  0.18872038  0.32719868  0.39968579  1  0  -0.590911  0  1.897469  0  0  -0.551085  0  2.118638  0  0  -0.571996  0  2.108488  0  0  -0.312492  -0.536496  0  2.12528  0
