# generated using pymatgen
data_Tb2MnH40C56(NO3)8
_symmetry_space_group_name_H-M   'P 1'
_cell_length_a   10.11032068
_cell_length_b   10.80367511
_cell_length_c   13.58921117
_cell_angle_alpha   79.18969992
_cell_angle_beta   78.79116792
_cell_angle_gamma   86.17111221
_symmetry_Int_Tables_number   1
_chemical_formula_structural   Tb2MnH40C56(NO3)8
_chemical_formula_sum   'Tb2 Mn1 H40 C56 N8 O24'
_cell_volume   1429.47011923
_cell_formula_units_Z   1
loop_
 _symmetry_equiv_pos_site_id
 _symmetry_equiv_pos_as_xyz
  1  'x, y, z'
loop_
 _atom_site_type_symbol
 _atom_site_label
 _atom_site_symmetry_multiplicity
 _atom_site_fract_x
 _atom_site_fract_y
 _atom_site_fract_z
 _atom_site_occupancy
 _atom_site_hle17_bader_charge
 _atom_site_hle17_bader_spin_density
 _atom_site_hle17_ddec_charge
 _atom_site_hle17_ddec_spin_density
 _atom_site_hle17_ddec_sum_bond_order
 _atom_site_hle17_magmom
 _atom_site_hse06_10hf_ddec_charge
 _atom_site_hse06_10hf_ddec_spin_density
 _atom_site_hse06_10hf_ddec_sum_bond_order
 _atom_site_hse06_10hf_magmom
 _atom_site_hse06_ddec_charge
 _atom_site_hse06_ddec_spin_density
 _atom_site_hse06_ddec_sum_bond_order
 _atom_site_hse06_magmom
 _atom_site_pbe_cm5_charge
 _atom_site_pbe_ddec_charge
 _atom_site_pbe_ddec_spin_density
 _atom_site_pbe_ddec_sum_bond_order
 _atom_site_pbe_magmom
Tb  Tb0  1  0.31774853  0.91445205  0.30171292  1  2.234631  -0.000467  2.192452  -0.000975  1.668851  -0.001  2.047045  -0.001141  2.143851  -0.001  2.098166  -0.000774  2.096504  -0.001  1.508119  2.00655  -0.001424  2.185631  -0.001
Tb  Tb1  1  0.68225438  0.08555291  0.69828730  1  2.234626  -0.000466  2.192449  -0.000974  1.668887  -0.001  2.047066  -0.001142  2.143856  -0.001  2.098186  -0.000771  2.096515  -0.001  1.508112  2.006522  -0.001433  2.185705  -0.001
Mn  Mn2  1  0.00000330  0.49999885  0.50000047  1  1.416892  1.174495  0.890807  1.232991  2.650145  1.185  0.812369  1.150065  3.190954  1.11  0.846907  1.079869  3.130685  1.035  0.65802  0.788376  1.176596  3.225984  1.138
H  H3  1  0.80558357  0.89606377  0.30092755  1  0.030322  4e-05  0.106986  1.5e-05  0.94617  0.0  0.114421  -1.7e-05  1.012079  0.0  0.119378  -3.7e-05  1.007371  0.0  0.103625  0.110622  -2.2e-05  1.015803  0.0
H  H4  1  0.19441125  0.10394121  0.69907674  1  0.030424  4e-05  0.106941  1.5e-05  0.946233  0.0  0.114413  -1.7e-05  1.012111  0.0  0.119368  -3.6e-05  1.0074  0.0  0.103643  0.110614  -2.1e-05  1.015835  0.0
H  H5  1  0.10226624  0.82961810  0.04104651  1  0.076285  3.2e-05  0.12309  3e-05  0.943139  0.0  0.13099  1.3e-05  1.003897  0.0  0.135415  8e-06  1.000071  0.0  0.111302  0.127779  1.4e-05  1.006719  0.0
H  H6  1  0.89773106  0.17037274  0.95896105  1  0.076201  3.2e-05  0.123068  3e-05  0.94312  0.0  0.130959  1.3e-05  1.003897  0.0  0.135465  8e-06  0.999951  0.0  0.111283  0.127751  1.3e-05  1.006712  0.0
H  H7  1  0.67965490  0.86210168  0.02279573  1  0.080505  3.2e-05  0.136743  2.4e-05  0.915934  0.0  0.146427  1e-06  0.973508  0.0  0.150985  2e-06  0.969108  0.0  0.122343  0.143146  -1e-06  0.97676  0.0
H  H8  1  0.32034521  0.13789668  0.97720588  1  0.080568  3.2e-05  0.136739  2.4e-05  0.915927  0.0  0.146413  1e-06  0.973525  0.0  0.15097  2e-06  0.969129  0.0  0.122333  0.14313  -1e-06  0.976778  0.0
H  H9  1  0.03732648  0.84347177  0.70169174  1  -0.01102  -0.000717  0.114094  -0.000542  0.931382  -0.001  0.124649  0.000103  0.989625  0.0  0.127945  4.5e-05  0.988611  0.0  0.113222  0.122628  0.00011  0.990309  0.0
H  H10  1  0.96267155  0.15652755  0.29831370  1  -0.011023  -0.000717  0.114187  -0.000542  0.931436  -0.001  0.124725  0.000103  0.989687  0.0  0.128021  4.5e-05  0.988671  0.0  0.113255  0.122705  0.00011  0.990372  0.0
H  H11  1  0.05108827  0.75000597  0.54753858  1  0.061606  0.000733  0.091441  0.000372  0.943909  0.001  0.098795  -0.00031  1.008567  0.0  0.102811  -0.000134  1.003113  0.0  0.125155  0.096053  -0.000343  1.012195  0.0
H  H12  1  0.94891783  0.24999334  0.45246426  1  0.061457  0.000732  0.091437  0.000372  0.943895  0.001  0.098811  -0.00031  1.008516  0.0  0.102837  -0.000134  1.003059  0.0  0.125179  0.096069  -0.000343  1.012146  0.0
H  H13  1  0.99591333  0.38943756  0.71912051  1  0.017226  0.000587  0.079938  0.000167  0.959697  0.001  0.088247  -0.000512  1.023522  0.0  0.090398  -0.00037  1.021107  0.0  0.118383  0.086992  -0.000548  1.024856  0.0
H  H14  1  0.00408868  0.61056364  0.28088262  1  0.017272  0.000588  0.079849  0.000167  0.959722  0.001  0.088179  -0.000512  1.023525  0.0  0.090329  -0.00037  1.021114  0.0  0.118395  0.086927  -0.000548  1.024852  0.0
H  H15  1  0.99821369  0.46640399  0.87936584  1  0.120317  -0.000674  0.131986  -0.000456  0.952571  -0.001  0.138104  3e-06  1.015493  0.0  0.142109  -3e-06  1.013309  0.0  0.112783  0.135383  -1.3e-05  1.017115  0.0
H  H16  1  0.00178840  0.53359531  0.12063535  1  0.12022  -0.000674  0.132023  -0.000456  0.952479  -0.001  0.138124  4e-06  1.015433  0.0  0.142148  -3e-06  1.013223  0.0  0.1128  0.135402  -1.3e-05  1.017056  0.0
H  H17  1  0.33027509  0.68077637  0.15902816  1  0.101952  0.00018  0.129299  9.8e-05  0.949239  0.0  0.137098  -2e-06  1.012789  0.0  0.141372  5e-06  1.0095  0.0  0.120319  0.133977  -1.1e-05  1.0154  0.0
H  H18  1  0.66972085  0.31922670  0.84097039  1  0.102015  0.00018  0.129319  9.8e-05  0.949189  0.0  0.137101  -2e-06  1.012762  0.0  0.141376  5e-06  1.009471  0.0  0.120326  0.133986  -1.1e-05  1.015362  0.0
H  H19  1  0.33631103  0.31458648  0.07464454  1  0.112655  0.000166  0.128861  7.5e-05  0.979949  0.0  0.133724  -4.2e-05  1.04592  0.0  0.138588  -1.9e-05  1.041522  0.0  0.111535  0.130186  -7e-05  1.049361  0.0
H  H20  1  0.66368689  0.68541753  0.92535506  1  0.112642  0.000166  0.128865  7.5e-05  0.979913  0.0  0.133736  -4.2e-05  1.045876  0.0  0.138593  -1.9e-05  1.041486  0.0  0.11153  0.130202  -6.9e-05  1.049313  0.0
H  H21  1  0.28476803  0.34634395  0.39045506  1  -0.019106  0.00017  0.091483  8.3e-05  0.96168  0.0  0.101578  -6.2e-05  1.026681  0.0  0.106219  -1.6e-05  1.022381  0.0  0.105807  0.09785  -0.000109  1.030359  0.0
H  H22  1  0.71523086  0.65366101  0.60954499  1  -0.019178  0.00017  0.091455  8.3e-05  0.961729  0.0  0.101557  -6.2e-05  1.026725  0.0  0.106198  -1.6e-05  1.022425  0.0  0.105799  0.097829  -0.00011  1.030403  0.0
H  H23  1  0.36042053  0.78299343  0.86663203  1  0.007849  -2e-06  0.103701  0.0  0.935671  0.0  0.118542  -4e-06  0.987117  0.0  0.121437  -2e-06  0.986524  0.0  0.115263  0.116376  -1.2e-05  0.988061  0.0
H  H24  1  0.63957854  0.21700679  0.13336430  1  0.007798  -2e-06  0.103708  0.0  0.935569  0.0  0.118515  -4e-06  0.987073  0.0  0.121406  -2e-06  0.986481  0.0  0.11527  0.116349  -1.2e-05  0.988017  0.0
H  H25  1  0.36822229  0.90406963  0.69280572  1  0.053764  -6e-06  0.08887  -3e-06  0.975703  0.0  0.0955  0.0  1.041672  0.0  0.098418  2e-06  1.039787  0.0  0.116417  0.093311  3e-06  1.043125  0.0
H  H26  1  0.63177786  0.09592870  0.30719075  1  0.05375  -6e-06  0.088867  -3e-06  0.975755  0.0  0.095496  0.0  1.041729  0.0  0.098417  2e-06  1.039842  0.0  0.116405  0.093305  4e-06  1.043184  0.0
H  H27  1  0.34908374  0.58231168  0.57225491  1  0.054733  -1.9e-05  0.091906  -8.8e-05  0.917304  0.0  0.102089  -2.1e-05  0.973336  0.0  0.105621  -5.2e-05  0.970863  0.0  0.123065  0.099466  8e-06  0.975288  0.0
H  H28  1  0.65091946  0.41768572  0.42774201  1  0.054497  -1.9e-05  0.091849  -8.8e-05  0.917392  0.0  0.102082  -2.1e-05  0.973374  0.0  0.105615  -5.2e-05  0.970897  0.0  0.123064  0.099458  8e-06  0.975329  0.0
H  H29  1  0.34831846  0.44279637  0.74436130  1  0.07956  -2.2e-05  0.126553  -2.3e-05  0.92906  0.0  0.136037  -5e-05  0.984387  0.0  0.140414  -2.7e-05  0.982037  0.0  0.119068  0.132951  -5e-05  0.986354  0.0
H  H30  1  0.65167865  0.55720198  0.25563705  1  0.0796  -2.2e-05  0.126563  -2.3e-05  0.929081  0.0  0.136057  -5e-05  0.984383  0.0  0.140429  -2.7e-05  0.982044  0.0  0.119094  0.132973  -5e-05  0.986342  0.0
H  H31  1  0.85266517  0.83196057  0.87730046  1  0.543749  -3e-06  0.311239  -7.4e-05  0.926226  0.0  0.290605  -7.9e-05  0.994918  0.0  0.298821  -3.7e-05  0.988937  0.0  0.305934  0.285018  -9.5e-05  0.998708  0.0
H  H32  1  0.14733807  0.16803403  0.12270349  1  0.543686  -3e-06  0.311316  -7.4e-05  0.925979  0.0  0.290655  -7.9e-05  0.994745  0.0  0.298869  -3.7e-05  0.988763  0.0  0.305943  0.285075  -9.6e-05  0.99853  0.0
H  H33  1  0.35134879  0.66039515  0.99223996  1  0.427831  0.0  0.296159  -3e-06  0.873922  0.0  0.28841  -2e-06  0.919849  0.0  0.294663  -1e-06  0.915656  0.0  0.329187  0.283981  -4e-06  0.922815  0.0
H  H34  1  0.64865331  0.33960507  0.00775668  1  0.427835  0.0  0.296169  -3e-06  0.873829  0.0  0.288434  -2e-06  0.91976  0.0  0.29469  -2e-06  0.915567  0.0  0.329204  0.284005  -4e-06  0.922728  0.0
H  H35  1  0.02866855  0.25621677  0.60002830  1  0.666746  5.2e-05  0.429696  -0.00047  0.862462  0.0  0.402087  -0.000351  0.928095  0.0  0.411257  -0.000502  0.915076  0.0  0.302859  0.39534  -5.4e-05  0.937642  0.0
H  H36  1  0.97133871  0.74377783  0.39997582  1  0.666758  5.2e-05  0.429715  -0.00047  0.862328  0.0  0.402097  -0.00035  0.928065  0.0  0.411268  -0.000502  0.915044  0.0  0.302859  0.395352  -5.4e-05  0.93761  0.0
H  H37  1  0.15647388  0.29482069  0.51309933  1  0.602269  0.001517  0.415495  0.000805  0.826078  0.001  0.401877  0.000457  0.876869  0.001  0.407958  0.001168  0.870874  0.001  0.329917  0.397413  -0.000244  0.881267  0.0
H  H38  1  0.84353034  0.70517484  0.48690361  1  0.602321  0.001517  0.415476  0.000805  0.82614  0.001  0.401867  0.000457  0.876931  0.001  0.407948  0.001168  0.870938  0.001  0.329934  0.397403  -0.000243  0.881327  0.0
H  H39  1  0.31877368  0.83716292  0.53309703  1  0.644185  -2e-06  0.397526  -2.4e-05  0.925283  0.0  0.354374  -2.2e-05  1.006794  0.0  0.366963  -8e-06  0.989174  0.0  0.28561  0.345624  -2.3e-05  1.019005  0.0
H  H40  1  0.68123023  0.16284297  0.46690071  1  0.644173  -2e-06  0.397621  -2.4e-05  0.925132  0.0  0.354379  -2.2e-05  1.006784  0.0  0.366969  -8e-06  0.989162  0.0  0.285619  0.345628  -2.4e-05  1.018997  0.0
H  H41  1  0.29396326  0.98659923  0.48889406  1  0.65026  1e-05  0.440001  1.3e-05  0.825125  0.0  0.42347  1.2e-05  0.868518  0.0  0.432704  1.1e-05  0.854873  0.0  0.320577  0.416749  3e-06  0.878518  0.0
H  H42  1  0.70603958  0.01340762  0.51110736  1  0.650368  1e-05  0.440077  1.3e-05  0.825055  0.0  0.423556  1.2e-05  0.868401  0.0  0.43279  1.1e-05  0.854755  0.0  0.320646  0.416834  3e-06  0.878401  0.0
C  C43  1  0.58503119  0.89949558  0.21298567  1  1.49714  -7e-06  0.63093  -7e-06  3.942284  0.0  0.589575  -1e-06  4.229048  0.0  0.623218  7e-06  4.222355  0.0  0.188973  0.56722  -3e-05  4.231398  0.0
C  C44  1  0.41497191  0.10050372  0.78701612  1  1.497362  -7e-06  0.630885  -7e-06  3.942276  0.0  0.589533  -1e-06  4.229077  0.0  0.623185  6e-06  4.222388  0.0  0.188948  0.567179  -2.9e-05  4.231418  0.0
C  C45  1  0.72960477  0.88377252  0.16529408  1  0.001351  0.000482  -0.053975  0.000399  3.766519  0.0  -0.02739  7.2e-05  3.999392  0.0  -0.037276  4.6e-05  4.023688  0.0  -0.016146  -0.021244  9.2e-05  3.983444  0.0
C  C46  1  0.27039417  0.11623056  0.83470772  1  0.001382  0.000482  -0.053812  0.000399  3.766386  0.0  -0.027299  7.3e-05  3.999352  0.0  -0.037216  4.7e-05  4.023688  0.0  -0.016127  -0.021156  8.8e-05  3.983403  0.0
C  C47  1  0.83159708  0.88237683  0.22203831  1  0.076809  -0.000881  -0.076335  -0.000973  3.697851  -0.001  -0.118037  -0.000525  3.952466  0.0  -0.114678  -0.000335  3.970724  0.0  -0.0815  -0.120103  -0.000863  3.940572  -0.001
C  C48  1  0.16839993  0.11762343  0.77796493  1  0.076735  -0.000882  -0.076376  -0.000974  3.697865  -0.001  -0.118084  -0.000526  3.952503  0.0  -0.114712  -0.000338  3.970762  0.0  -0.081512  -0.120152  -0.000854  3.94061  -0.001
C  C49  1  0.96598040  0.86358090  0.17620306  1  -0.085684  0.000416  -0.069475  0.000352  3.789799  0.0  -0.04597  6e-05  4.032709  0.0  -0.055637  2.1e-05  4.056765  0.0  -0.024763  -0.039944  9.8e-05  4.016592  0.0
C  C50  1  0.03401770  0.13641652  0.82380045  1  -0.085686  0.000416  -0.069347  0.000352  3.789657  0.0  -0.045846  6.1e-05  4.032548  0.0  -0.055516  2.2e-05  4.056622  0.0  -0.024778  -0.039819  9.4e-05  4.01643  0.0
C  C51  1  0.99735515  0.84283636  0.07540690  1  0.104157  -0.000653  -0.118873  -0.000682  3.65784  0.0  -0.154257  -0.000366  3.907688  0.0  -0.153017  -0.000205  3.924842  0.0  -0.072389  -0.154682  -0.000359  3.896277  0.0
C  C52  1  0.00264101  0.15715918  0.92459717  1  0.104237  -0.000654  -0.118913  -0.000682  3.657803  0.0  -0.154281  -0.000368  3.907634  0.0  -0.153091  -0.000204  3.924758  0.0  -0.072362  -0.154711  -0.00036  3.896227  0.0
C  C53  1  0.89487118  0.83869737  0.02048641  1  0.321291  0.000567  0.24714  0.000494  3.778584  0.0  0.245093  0.000103  4.031148  0.0  0.249015  8.4e-05  4.052892  0.0  0.100294  0.241999  0.000115  4.01655  0.0
C  C54  1  0.10512811  0.16129440  0.97951926  1  0.321314  0.000568  0.247205  0.000494  3.778647  0.0  0.24515  0.000105  4.03122  0.0  0.249068  8.4e-05  4.052981  0.0  0.100351  0.242063  0.000111  4.016627  0.0
C  C55  1  0.76109310  0.86320914  0.06450824  1  0.130208  -0.000956  -0.097045  -0.001017  3.605807  -0.001  -0.133893  -0.000441  3.855284  0.0  -0.131018  -0.000212  3.869373  0.0  -0.059793  -0.135429  -0.000864  3.845996  -0.001
C  C56  1  0.23890604  0.13678828  0.93549218  1  0.130118  -0.000957  -0.097114  -0.001017  3.605892  -0.001  -0.133935  -0.000443  3.855426  0.0  -0.131047  -0.000213  3.869517  0.0  -0.059794  -0.135472  -0.000849  3.846135  -0.001
C  C57  1  0.08042820  0.86511053  0.23050640  1  1.458229  9.2e-05  0.635243  9.3e-05  3.928528  0.0  0.587974  2.4e-05  4.223653  0.0  0.621476  -1.3e-05  4.216333  0.0  0.19655  0.565726  4.9e-05  4.226353  0.0
C  C58  1  0.91957061  0.13489632  0.76949484  1  1.458354  9.2e-05  0.635161  9.3e-05  3.928778  0.0  0.58792  2.5e-05  4.223867  0.0  0.62142  -1.2e-05  4.216552  0.0  0.196549  0.565672  4.4e-05  4.226558  0.0
C  C59  1  0.00976765  0.70511849  0.90350642  1  1.368885  -0.001692  0.540015  -0.001777  3.818754  0.001  0.496342  -0.002055  4.104747  0.0  0.525921  -0.000633  4.099977  0.0  0.243371  0.476195  -0.002924  4.107308  -0.001
C  C60  1  0.99023673  0.29487141  0.09650103  1  1.368841  -0.001692  0.540014  -0.001778  3.818673  0.001  0.496419  -0.002055  4.104556  0.0  0.526004  -0.000633  4.099783  0.0  0.243454  0.476278  -0.00293  4.107123  -0.001
C  C61  1  0.01261172  0.66248239  0.80475677  1  -0.031197  -0.035971  -0.006379  -0.038553  3.748146  -0.025  0.006221  -0.02181  3.988448  -0.013  0.01  -0.013294  4.004977  -0.008  -0.000552  0.004301  -0.022987  3.978731  -0.014
C  C62  1  0.98739047  0.33751315  0.19524718  1  -0.031328  -0.035977  -0.006591  -0.038558  3.748303  -0.025  0.006014  -0.021811  3.988602  -0.013  0.009781  -0.013297  4.005156  -0.008  -0.000579  0.004094  -0.022993  3.978886  -0.014
C  C63  1  0.02705907  0.74208348  0.70965885  1  0.110578  0.016785  -0.135594  0.013543  3.729645  0.013  -0.158664  0.002334  3.989156  0.004  -0.164505  0.003067  4.006159  0.003  -0.082992  -0.155903  0.000821  3.97874  0.003
C  C64  1  0.97294314  0.25791205  0.29034363  1  0.110724  0.016788  -0.135579  0.013545  3.729694  0.013  -0.158655  0.002333  3.989216  0.004  -0.16449  0.003068  4.006222  0.003  -0.083029  -0.155892  0.000821  3.978798  0.003
C  C65  1  0.03259976  0.69055753  0.62257106  1  0.495751  -0.028812  0.110443  -0.031258  3.66915  -0.02  0.074058  -0.014005  3.937235  -0.008  0.086343  -0.009595  3.946049  -0.005  0.04035  0.066311  -0.013378  3.9311  -0.007
C  C66  1  0.96740443  0.30943895  0.37743247  1  0.495863  -0.028816  0.110522  -0.031264  3.668999  -0.02  0.074197  -0.014009  3.937022  -0.008  0.086459  -0.009601  3.945867  -0.005  0.040412  0.066446  -0.013381  3.930888  -0.007
C  C67  1  0.00507764  0.48926361  0.71807387  1  0.479032  -0.025571  0.119558  -0.027893  3.680577  -0.017  0.090345  -0.012706  3.934616  -0.006  0.100723  -0.008499  3.947949  -0.004  0.042561  0.083707  -0.012539  3.925417  -0.006
C  C68  1  0.99492347  0.51073382  0.28193143  1  0.478895  -0.025573  0.119755  -0.027893  3.680147  -0.017  0.090591  -0.012704  3.934213  -0.006  0.100971  -0.0085  3.947543  -0.004  0.042591  0.08395  -0.012539  3.925018  -0.006
C  C69  1  0.00630751  0.53257794  0.80737066  1  0.077019  0.015925  -0.115686  0.012882  3.684763  0.012  -0.136305  0.001409  3.93338  0.003  -0.14168  0.002642  3.949551  0.003  -0.073491  -0.133312  -0.000288  3.923896  0.001
C  C70  1  0.99369353  0.46742231  0.19263201  1  0.077147  0.015927  -0.115689  0.012884  3.684602  0.012  -0.136331  0.001408  3.93326  0.003  -0.141715  0.002643  3.949415  0.003  -0.073552  -0.133337  -0.00029  3.923779  0.001
C  C71  1  0.26955958  0.60348321  0.36215281  1  1.569639  -0.003946  0.692993  -0.005449  3.841715  -0.002  0.644736  -0.010313  4.133853  -0.007  0.683616  -0.007401  4.12244  -0.005  0.234958  0.616467  -0.011919  4.141642  -0.008
C  C72  1  0.73044256  0.39651514  0.63784705  1  1.569567  -0.003945  0.692855  -0.005448  3.841974  -0.002  0.644694  -0.010311  4.133949  -0.007  0.683611  -0.007398  4.122473  -0.005  0.234958  0.616424  -0.011916  4.141733  -0.008
C  C73  1  0.30101177  0.52218266  0.28282055  1  -0.130425  0.003894  -0.060797  0.003138  3.796902  0.003  -0.035054  0.001659  4.033946  0.002  -0.041837  0.001692  4.054664  0.002  -0.012341  -0.030848  0.001323  4.021208  0.002
C  C74  1  0.69899013  0.47782323  0.71717599  1  -0.130652  0.003894  -0.060821  0.003138  3.797026  0.003  -0.035087  0.001659  4.034011  0.002  -0.041882  0.00169  4.054721  0.002  -0.012349  -0.030882  0.00133  4.021269  0.002
C  C75  1  0.32535437  0.57836499  0.17981031  1  0.087913  -0.005125  -0.140839  -0.005452  3.625418  -0.003  -0.177883  -0.003001  3.878965  -0.002  -0.178941  -0.002159  3.895946  -0.001  -0.070852  -0.177981  -0.003527  3.868521  -0.002
C  C76  1  0.67464055  0.42163901  0.82018677  1  0.087739  -0.005125  -0.140771  -0.005452  3.62537  -0.003  -0.177809  -0.003001  3.878899  -0.002  -0.17887  -0.002157  3.895886  -0.001  -0.070814  -0.177918  -0.003534  3.868468  -0.002
C  C77  1  0.33602201  0.50381573  0.10422363  1  0.349248  0.002775  0.259621  0.002446  3.77732  0.002  0.257573  0.000743  4.029602  0.001  0.263938  0.000768  4.05072  0.001  0.103651  0.253463  0.000619  4.016111  0.001
C  C78  1  0.66398300  0.49618733  0.89577438  1  0.349699  0.002775  0.25954  0.002446  3.777242  0.002  0.257537  0.000744  4.029483  0.001  0.263906  0.000767  4.050597  0.001  0.103638  0.253424  0.000618  4.015995  0.001
C  C79  1  0.32823823  0.37258315  0.13260158  1  0.070526  -0.005365  -0.15661  -0.00577  3.663828  -0.004  -0.19604  -0.003257  3.920404  -0.002  -0.197744  -0.002276  3.938908  -0.001  -0.087555  -0.196349  -0.003818  3.910665  -0.002
C  C80  1  0.67176483  0.62741803  0.86739698  1  0.070511  -0.005363  -0.156738  -0.005769  3.663721  -0.004  -0.196172  -0.003256  3.920296  -0.002  -0.197875  -0.002273  3.938806  -0.001  -0.08759  -0.196481  -0.003821  3.910555  -0.002
C  C81  1  0.31011352  0.31743463  0.23564835  1  0.025724  0.002521  -0.055805  0.002061  3.821533  0.002  -0.028629  0.000455  4.055336  0.001  -0.037475  0.000562  4.081385  0.001  -0.020323  -0.02332  0.000209  4.039604  0.0
C  C82  1  0.68988428  0.68257222  0.76435304  1  0.025907  0.002521  -0.055622  0.002061  3.821261  0.002  -0.028474  0.000455  4.055086  0.001  -0.037317  0.000563  4.081134  0.001  -0.020287  -0.023168  0.000211  4.039356  0.0
C  C83  1  0.29716280  0.39120470  0.31076753  1  0.099839  -0.004336  -0.078702  -0.004781  3.730338  -0.003  -0.123376  -0.002611  3.988497  -0.001  -0.122161  -0.002206  4.007921  -0.001  -0.08141  -0.123832  -0.002961  3.976878  -0.002
C  C84  1  0.70284103  0.60880308  0.68923140  1  0.099735  -0.004336  -0.078698  -0.00478  3.730321  -0.003  -0.123385  -0.00261  3.988484  -0.001  -0.122174  -0.002206  4.007914  -0.001  -0.081457  -0.123841  -0.002957  3.976868  -0.002
C  C85  1  0.29798781  0.17884768  0.26492265  1  1.484013  2e-06  0.633324  -3.4e-05  3.960417  0.0  0.586889  -4.4e-05  4.253141  0.0  0.619942  5e-06  4.246776  0.0  0.193327  0.565144  -0.000139  4.255673  0.0
C  C86  1  0.70201616  0.82115633  0.73507609  1  1.483699  2e-06  0.633329  -3.4e-05  3.960405  0.0  0.586882  -4.5e-05  4.253146  0.0  0.619934  6e-06  4.246781  0.0  0.193389  0.565137  -0.000135  4.255669  0.0
C  C87  1  0.34595753  0.51194259  0.91954812  1  1.399535  0.000238  0.54174  0.000243  3.817055  0.0  0.494153  9.4e-05  4.10703  0.0  0.523012  7.5e-05  4.105079  0.0  0.247704  0.474815  0.00011  4.10764  0.0
C  C88  1  0.65404062  0.48805388  0.08045405  1  1.39948  0.000238  0.541618  0.000243  3.817156  0.0  0.494092  9.4e-05  4.107089  0.0  0.522954  7.6e-05  4.105137  0.0  0.247677  0.474753  0.000111  4.107701  0.0
C  C89  1  0.35312800  0.60053595  0.81941449  1  -0.078719  -1.4e-05  -0.004424  -3.8e-05  3.746729  0.0  0.010241  -4.4e-05  3.984132  0.0  0.008689  -2.6e-05  4.005664  0.0  0.008859  0.011284  -3.8e-05  3.971451  0.0
C  C90  1  0.64687106  0.39946429  0.18058405  1  -0.078756  -1.4e-05  -0.004423  -3.8e-05  3.746773  0.0  0.010169  -4.3e-05  3.984232  0.0  0.008613  -2.6e-05  4.005767  0.0  0.008853  0.011211  -3.8e-05  3.971554  0.0
C  C91  1  0.35924544  0.73185994  0.80477413  1  0.103546  -0.000124  -0.129712  -0.000154  3.718809  0.0  -0.154904  -9.1e-05  3.977137  0.0  -0.16065  -6.9e-05  3.999483  0.0  -0.077584  -0.151794  -0.000229  3.963773  0.0
C  C92  1  0.64075257  0.26814217  0.19522206  1  0.103533  -0.000124  -0.12966  -0.000154  3.718521  0.0  -0.154814  -9.2e-05  3.976899  0.0  -0.160554  -7e-05  3.999242  0.0  -0.077611  -0.151701  -0.000227  3.963536  0.0
C  C93  1  0.36246367  0.80145435  0.70722218  1  0.547302  9.7e-05  0.116475  0.000123  3.699711  0.0  0.08403  1.9e-05  3.959207  0.0  0.088541  2.7e-05  3.978199  0.0  0.04632  0.081178  5.6e-05  3.946992  0.0
C  C94  1  0.63753546  0.19854399  0.29277516  1  0.547409  9.7e-05  0.116496  0.000123  3.699499  0.0  0.084044  1.9e-05  3.958984  0.0  0.088555  2.7e-05  3.977973  0.0  0.046368  0.081187  4.4e-05  3.946769  0.0
C  C95  1  0.35439753  0.62147076  0.63975808  1  0.548979  -6.2e-05  0.130268  -0.000138  3.689428  0.0  0.097858  -0.000133  3.949392  0.0  0.103768  -8e-05  3.965386  0.0  0.053772  0.093789  -9.6e-05  3.939501  0.0
C  C96  1  0.64560365  0.37852664  0.36023911  1  0.549323  -6.2e-05  0.130408  -0.000138  3.689497  0.0  0.097951  -0.000134  3.949446  0.0  0.103863  -8.1e-05  3.965438  0.0  0.053793  0.09388  -0.000102  3.939556  0.0
C  C97  1  0.35231156  0.54494172  0.73441126  1  0.063115  2e-05  -0.112731  2e-06  3.690121  0.0  -0.135805  -1.4e-05  3.941855  0.0  -0.141007  0.0  3.962356  0.0  -0.068881  -0.133257  -5.1e-05  3.930295  0.0
C  C98  1  0.64768353  0.45505663  0.26558812  1  0.063115  2e-05  -0.112736  2e-06  3.690081  0.0  -0.135788  -1.3e-05  3.941847  0.0  -0.140993  1e-06  3.962349  0.0  -0.068876  -0.133239  -4.7e-05  3.930292  0.0
N  N99  1  0.92395528  0.80486614  0.92303269  1  -1.301651  -0.00162  -0.454349  -0.001638  3.295905  -0.001  -0.401452  -0.001462  3.53548  -0.001  -0.423632  -0.000784  3.544154  -0.001  -0.395268  -0.386042  -0.001863  3.528918  -0.001
N  N100  1  0.07604491  0.19512939  0.07697008  1  -1.301655  -0.001621  -0.454399  -0.001639  3.295956  -0.001  -0.401528  -0.001463  3.53556  -0.001  -0.423706  -0.000785  3.544236  -0.001  -0.395336  -0.386142  -0.001856  3.529019  -0.001
N  N101  1  0.01613197  0.56594975  0.62566938  1  -1.21148  -0.015384  -0.291921  -0.017291  3.343114  -0.013  -0.234351  -0.014084  3.624534  -0.015  -0.250558  -0.006564  3.638138  -0.008  -0.35051  -0.222417  -0.017995  3.612389  -0.019
N  N102  1  0.98387031  0.43404296  0.37433573  1  -1.211745  -0.015388  -0.292088  -0.017291  3.343042  -0.013  -0.234646  -0.014085  3.624598  -0.015  -0.250851  -0.00656  3.638196  -0.008  -0.350579  -0.22271  -0.017995  3.612457  -0.019
N  N103  1  0.35211893  0.56489840  0.00258967  1  -1.217196  0.000106  -0.423273  1.2e-05  3.352399  0.0  -0.374067  4.8e-05  3.592559  0.0  -0.395585  3.8e-05  3.601812  0.0  -0.391123  -0.359129  -4e-06  3.585309  0.0
N  N104  1  0.64788208  0.43510373  0.99740905  1  -1.217214  0.000106  -0.423094  1.2e-05  3.352144  0.0  -0.373967  4.9e-05  3.592341  0.0  -0.395488  3.8e-05  3.601593  0.0  -0.391098  -0.359026  -4e-06  3.585091  0.0
N  N105  1  0.35925368  0.74746938  0.62645258  1  -1.249819  -0.00011  -0.293768  -0.000128  3.196557  0.0  -0.228554  -0.000174  3.439293  0.0  -0.241801  -7.5e-05  3.453914  0.0  -0.302981  -0.219616  -0.000194  3.429742  0.0
N  N106  1  0.64074850  0.25252802  0.37354595  1  -1.249887  -0.00011  -0.293941  -0.000128  3.196469  0.0  -0.228666  -0.000174  3.439222  0.0  -0.241914  -7.4e-05  3.453841  0.0  -0.303019  -0.219724  -0.000177  3.429669  0.0
O  O107  1  0.55319025  0.91474464  0.30669323  1  -1.205207  6.7e-05  -0.71684  7.6e-05  1.928769  0.0  -0.67028  3.8e-05  2.156075  0.0  -0.693936  3.8e-05  2.144833  0.0  -0.400369  -0.653192  1.9e-05  2.162922  0.0
O  O108  1  0.44680958  0.08526221  0.69330641  1  -1.205475  6.7e-05  -0.716811  7.6e-05  1.92876  0.0  -0.670247  3.8e-05  2.156065  0.0  -0.6939  3.9e-05  2.14482  0.0  -0.400355  -0.653154  2e-05  2.162913  0.0
O  O109  1  0.49322085  0.89690844  0.16088545  1  -1.179899  2.6e-05  -0.671988  2.3e-05  1.928095  0.0  -0.628942  1e-06  2.153745  0.0  -0.65213  -5e-06  2.143624  0.0  -0.388965  -0.61223  1e-05  2.160785  0.0
O  O110  1  0.50677922  0.10308994  0.83911985  1  -1.179831  2.6e-05  -0.672015  2.3e-05  1.928074  0.0  -0.628971  1e-06  2.153746  0.0  -0.652159  -7e-06  2.143624  0.0  -0.388971  -0.612255  8e-06  2.160786  0.0
O  O111  1  0.06051363  0.86359084  0.32788136  1  -1.207274  -0.000234  -0.723608  -0.0003  1.928502  0.0  -0.668591  -0.000247  2.153447  0.0  -0.691657  -0.00018  2.140928  0.0  -0.357142  -0.651776  -0.000185  2.1608  0.0
O  O112  1  0.93948339  0.13640848  0.67212349  1  -1.207451  -0.000234  -0.723578  -0.0003  1.928781  0.0  -0.668578  -0.000247  2.153712  0.0  -0.691642  -0.000181  2.141196  0.0  -0.357129  -0.651758  -0.000181  2.161062  0.0
O  O113  1  0.19972088  0.86920894  0.17854963  1  -1.183724  -4.2e-05  -0.675073  -4.5e-05  2.000383  0.0  -0.626307  -5.8e-05  2.238686  0.0  -0.651228  -5.8e-05  2.230358  0.0  -0.382062  -0.608809  -1.4e-05  2.24494  0.0
O  O114  1  0.80027666  0.13080639  0.82144830  1  -1.18369  -4.2e-05  -0.675088  -4.5e-05  2.000428  0.0  -0.626362  -5.8e-05  2.238755  0.0  -0.65129  -5.8e-05  2.23044  0.0  -0.382121  -0.608861  -1.4e-05  2.245012  0.0
O  O115  1  0.08021854  0.64770286  0.96384897  1  -1.148282  -0.004159  -0.535351  -0.004377  1.95402  -0.004  -0.495102  -0.003108  2.176642  -0.003  -0.515287  -0.001493  2.171749  -0.001  -0.283283  -0.480232  -0.003688  2.179182  -0.003
O  O116  1  0.91978141  0.35230021  0.03615121  1  -1.148058  -0.004162  -0.535405  -0.00438  1.953749  -0.004  -0.495169  -0.00311  2.176313  -0.003  -0.515362  -0.001495  2.171427  -0.001  -0.283349  -0.480292  -0.003695  2.17885  -0.003
O  O117  1  0.33507295  0.70383249  0.34858079  1  -1.219617  -0.003955  -0.737117  -0.004486  2.036644  -0.003  -0.686979  -0.004424  2.290878  -0.003  -0.715347  -0.002968  2.279667  -0.002  -0.427194  -0.666411  -0.005157  2.298551  -0.004
O  O118  1  0.66492095  0.29617152  0.65141716  1  -1.219597  -0.003954  -0.737072  -0.004485  2.036709  -0.003  -0.686976  -0.004423  2.290904  -0.003  -0.715357  -0.002966  2.279673  -0.002  -0.427216  -0.666397  -0.005159  2.298579  -0.004
O  O119  1  0.17779179  0.57242284  0.44050701  1  -1.185779  8.6e-05  -0.585784  -0.002906  2.162379  -0.006  -0.53897  0.014778  2.451407  0.012  -0.573048  0.012731  2.440861  0.01  -0.299994  -0.513622  0.016404  2.456515  0.014
O  O120  1  0.82221229  0.42757740  0.55949376  1  -1.185737  8e-05  -0.585698  -0.002908  2.162482  -0.006  -0.538925  0.014776  2.451476  0.012  -0.573017  0.012726  2.440914  0.01  -0.299935  -0.513574  0.016403  2.456577  0.014
O  O121  1  0.30798494  0.12283074  0.35459012  1  -1.212486  -3.1e-05  -0.702661  -5e-05  1.960938  0.0  -0.655273  -0.000192  2.192588  0.0  -0.679082  0.0  2.181878  0.0  -0.375631  -0.638183  -0.000392  2.199411  0.0
O  O122  1  0.69199580  0.87717423  0.64541248  1  -1.212548  -3.1e-05  -0.70267  -5e-05  1.96089  0.0  -0.655277  -0.000191  2.192526  0.0  -0.679087  0.0  2.18182  0.0  -0.375665  -0.638181  -0.000393  2.199347  0.0
O  O123  1  0.27737833  0.11508483  0.19846886  1  -1.214242  0.000211  -0.709859  0.000196  2.018772  0.0  -0.655173  0.000114  2.255121  0.0  -0.680704  9.4e-05  2.247844  0.0  -0.37982  -0.636791  0.000117  2.259087  0.0
O  O124  1  0.72262372  0.88491635  0.80153059  1  -1.214016  0.000211  -0.709875  0.000196  2.018842  0.0  -0.655173  0.000114  2.255174  0.0  -0.680704  9.4e-05  2.247901  0.0  -0.379832  -0.636784  0.000117  2.259141  0.0
O  O125  1  0.33773459  0.39748623  0.92312988  1  -1.122906  0.000271  -0.506752  0.000236  1.936801  0.0  -0.462331  8.8e-05  2.150512  0.0  -0.482603  8.7e-05  2.146372  0.0  -0.271371  -0.448245  -1e-06  2.152853  0.0
O  O126  1  0.66226343  0.60251495  0.07686866  1  -1.122867  0.000271  -0.506795  0.000236  1.936772  0.0  -0.462369  8.7e-05  2.150437  0.0  -0.482639  8.5e-05  2.146295  0.0  -0.271386  -0.448284  0.0  2.152781  0.0
O  O127  1  0.08579606  0.32965428  0.56080942  1  -1.22912  0.005679  -0.76371  0.003412  2.008791  -0.002  -0.716967  0.000176  2.222187  -0.003  -0.744679  -0.002025  2.200276  -0.004  -0.535698  -0.696209  0.00112  2.235867  -0.002
O  O128  1  0.91420916  0.67034125  0.43919411  1  -1.229171  0.005676  -0.76369  0.003411  2.008763  -0.002  -0.716957  0.000176  2.222209  -0.003  -0.74467  -0.002026  2.200299  -0.004  -0.535724  -0.696199  0.00112  2.235885  -0.002
O  O129  1  0.27901168  0.90231929  0.47835906  1  -1.299814  -5.2e-05  -0.925636  -4.7e-05  1.882165  0.0  -0.875762  -5.5e-05  2.080427  0.0  -0.894357  -1.7e-05  2.046137  0.0  -0.658186  -0.862239  -7.2e-05  2.104887  0.0
O  O130  1  0.72099215  0.09768850  0.52164134  1  -1.299857  -5.2e-05  -0.925769  -4.7e-05  1.881965  0.0  -0.875867  -5.6e-05  2.080297  0.0  -0.89446  -1.7e-05  2.046003  0.0  -0.658272  -0.862335  -7e-05  2.104765  0.0
