# generated using pymatgen
data_Ho2CuH4C10N4O9
_symmetry_space_group_name_H-M   'P 1'
_cell_length_a   6.73782650
_cell_length_b   16.14282788
_cell_length_c   16.17504181
_cell_angle_alpha   118.13529752
_cell_angle_beta   97.95831030
_cell_angle_gamma   98.14939317
_symmetry_Int_Tables_number   1
_chemical_formula_structural   Ho2CuH4C10N4O9
_chemical_formula_sum   'Ho6 Cu3 H12 C30 N12 O27'
_cell_volume   1492.68993007
_cell_formula_units_Z   3
loop_
 _symmetry_equiv_pos_site_id
 _symmetry_equiv_pos_as_xyz
  1  'x, y, z'
loop_
 _atom_site_type_symbol
 _atom_site_label
 _atom_site_symmetry_multiplicity
 _atom_site_fract_x
 _atom_site_fract_y
 _atom_site_fract_z
 _atom_site_occupancy
 _atom_site_pbe_bader_charge
 _atom_site_pbe_bader_spin_density
 _atom_site_pbe_cm5_charge
 _atom_site_pbe_ddec_charge
 _atom_site_pbe_ddec_spin_density
 _atom_site_pbe_ddec_sum_bond_order
 _atom_site_pbe_magmom
Ho  Ho0  1  0.11986961  0.91110587  0.84655212  1  2.089534  -0.011512  1.468938  2.037916  -0.016921  2.357184  -0.018
Ho  Ho1  1  0.21172855  0.93717831  0.09011418  1  2.084703  -0.012819  1.468676  2.036252  -0.019151  2.360352  -0.021
Ho  Ho2  1  0.27009607  0.15315599  0.06314630  1  2.083463  -0.008917  1.469198  2.037238  -0.012612  2.361321  -0.013
Ho  Ho3  1  0.88015406  0.08891504  0.15345668  1  2.089193  -0.01151  1.469036  2.037928  -0.016919  2.357267  -0.018
Ho  Ho4  1  0.78827558  0.06283970  0.90989763  1  2.084685  -0.012819  1.468735  2.036217  -0.019152  2.360465  -0.021
Ho  Ho5  1  0.72992355  0.84685696  0.93686161  1  2.083643  -0.00892  1.469066  2.037175  -0.012621  2.361254  -0.013
Cu  Cu6  1  0.99998801  0.49999321  0.50000235  1  0.998389  0.530184  0.7365  0.663759  0.882043  2.351208  0.532
Cu  Cu7  1  0.50000278  0.00000420  0.50000167  1  0.999158  0.530405  0.737532  0.664279  0.882501  2.355998  0.533
Cu  Cu8  1  0.49999543  0.49999139  0.99999638  1  0.997929  0.530594  0.737037  0.663757  0.88276  2.354284  0.533
H  H9  1  0.42039231  0.47573450  0.57418343  1  0.119093  0.001964  0.122505  0.112989  0.001125  0.998634  0.002
H  H10  1  0.70088905  0.58942198  0.72948642  1  0.113544  0.002197  0.13128  0.100607  0.001428  0.951826  0.001
H  H11  1  0.94680340  0.09681777  0.52448617  1  0.107275  0.001981  0.122362  0.113074  0.001135  0.999272  0.002
H  H12  1  0.11600827  0.13850212  0.41146413  1  0.131598  0.002171  0.132007  0.101557  0.001425  0.951073  0.001
H  H13  1  0.84729191  0.42616659  0.90215081  1  0.120343  0.001979  0.122179  0.112576  0.001142  0.998364  0.002
H  H14  1  0.97144239  0.27052790  0.86030957  1  0.111977  0.002231  0.13254  0.102414  0.001449  0.952325  0.001
H  H15  1  0.57956408  0.52424298  0.42582934  1  0.119372  0.001964  0.122384  0.112837  0.001126  0.998927  0.002
H  H16  1  0.29907644  0.41056130  0.27051850  1  0.113602  0.002197  0.131337  0.100633  0.001429  0.951842  0.001
H  H17  1  0.05322140  0.90318435  0.47550892  1  0.106831  0.001983  0.122339  0.113031  0.001136  0.999195  0.002
H  H18  1  0.88401058  0.86149710  0.58852925  1  0.131764  0.002171  0.131996  0.101564  0.001426  0.951005  0.001
H  H19  1  0.15270226  0.57382249  0.09784188  1  0.120205  0.001981  0.122198  0.112671  0.001143  0.998417  0.002
H  H20  1  0.02854649  0.72945684  0.13968756  1  0.111457  0.002234  0.132523  0.10233  0.00145  0.952182  0.001
C  C21  1  0.37141206  0.72914256  0.75616880  1  1.330561  0.002016  0.23459  0.478801  0.002274  4.12642  0.001
C  C22  1  0.21148488  0.66282906  0.67178512  1  0.450785  9.8e-05  0.096836  -0.068597  1e-06  3.894046  0.0
C  C23  1  0.40933568  0.54734444  0.62708005  1  0.482397  -0.000766  0.025684  -0.018379  0.000233  3.944558  0.0
C  C24  1  0.56168680  0.61071941  0.71150519  1  0.571432  0.005468  0.078257  0.128664  0.00476  3.960599  0.005
C  C25  1  0.00884268  0.68173519  0.64562125  1  1.584682  -0.000389  0.211671  0.573175  0.000977  4.219012  -0.001
C  C26  1  0.64522648  0.02690630  0.27197064  1  1.252525  0.002123  0.233245  0.475437  0.002275  4.129347  0.001
C  C27  1  0.55037573  0.00885604  0.33777726  1  0.503349  7.8e-05  0.097751  -0.066924  8.7e-05  3.890733  0.0
C  C28  1  0.86449888  0.07865832  0.45312630  1  0.5232  -0.000885  0.028441  -0.015039  0.000183  3.941538  0.0
C  C29  1  0.95467720  0.09958304  0.39005564  1  0.518477  0.005541  0.078147  0.127943  0.004748  3.957694  0.005
C  C30  1  0.32789675  0.96415685  0.31871750  1  1.571601  -0.000371  0.211149  0.570444  0.00099  4.220247  -0.001
C  C31  1  0.61381857  0.24378656  0.97274012  1  1.309639  0.002076  0.234249  0.476478  0.002274  4.130302  0.001
C  C32  1  0.53850764  0.32812047  0.99080221  1  0.450344  8.1e-05  0.097098  -0.066065  1.8e-05  3.890773  0.0
C  C33  1  0.78253655  0.37306540  0.92052588  1  0.47122  -0.00078  0.028981  -0.012879  0.000179  3.939826  0.0
C  C34  1  0.85000719  0.28861350  0.89945206  1  0.582321  0.00543  0.077627  0.127407  0.004748  3.95786  0.005
C  C35  1  0.36160795  0.35421630  0.03565497  1  1.585388  -0.000357  0.211653  0.569825  0.001035  4.220534  -0.001
C  C36  1  0.62857423  0.27084868  0.24382319  1  1.330924  0.002017  0.234785  0.479314  0.002274  4.126327  0.001
C  C37  1  0.78849559  0.33716290  0.32821798  1  0.45059  9.7e-05  0.096644  -0.069011  1e-06  3.894095  0.0
C  C38  1  0.59063803  0.45264029  0.37292604  1  0.481728  -0.000765  0.025796  -0.018078  0.000234  3.945054  0.0
C  C39  1  0.43829058  0.38926966  0.28850379  1  0.570964  0.005469  0.078236  0.12861  0.00476  3.96084  0.005
C  C40  1  0.99115300  0.31825679  0.35437042  1  1.584538  -0.000388  0.211753  0.573434  0.000978  4.218865  -0.001
C  C41  1  0.35478384  0.97310304  0.72803439  1  1.252666  0.002124  0.23326  0.475456  0.002276  4.129405  0.001
C  C42  1  0.44963506  0.99115113  0.66222307  1  0.503365  7.6e-05  0.097631  -0.067035  8.5e-05  3.890701  0.0
C  C43  1  0.13552770  0.92134741  0.54687308  1  0.523664  -0.000884  0.028317  -0.015183  0.000184  3.941766  0.0
C  C44  1  0.04533220  0.90042124  0.60993954  1  0.518924  0.005543  0.07824  0.128108  0.004749  3.957452  0.005
C  C45  1  0.67212758  0.03585683  0.68129969  1  1.57203  -0.00037  0.211188  0.570541  0.00099  4.220458  -0.001
C  C46  1  0.38617268  0.75619964  0.02724980  1  1.309204  0.002078  0.234309  0.476607  0.002275  4.129981  0.001
C  C47  1  0.46146792  0.67186427  0.00918422  1  0.449873  8.1e-05  0.096979  -0.066354  2e-05  3.891095  0.0
C  C48  1  0.21745514  0.62691574  0.07946169  1  0.50413  -0.000849  0.028981  -0.012969  0.000179  3.940266  0.0
C  C49  1  0.14999342  0.71137342  0.10053814  1  0.550123  0.0055  0.077628  0.127453  0.00475  3.957701  0.005
C  C50  1  0.63838837  0.64578002  0.96434062  1  1.585704  -0.000358  0.211615  0.569618  0.001036  4.220731  -0.001
N  N51  1  0.54354267  0.69788045  0.77359050  1  -1.227727  -0.000206  -0.361161  -0.387529  -0.000683  3.376864  0.0
N  N52  1  0.23754561  0.57541893  0.61046095  1  -1.244295  0.082382  -0.347475  -0.195918  0.070163  3.759953  0.072
N  N53  1  0.84947715  0.07478134  0.30311756  1  -1.203445  -0.000434  -0.359315  -0.383111  -0.000812  3.373775  0.0
N  N54  1  0.66378754  0.03447182  0.42493191  1  -1.227703  0.082363  -0.349134  -0.198  0.070113  3.7585  0.072
N  N55  1  0.76899319  0.22650370  0.92439911  1  -1.234367  -0.000454  -0.361997  -0.387624  -0.000831  3.378314  0.0
N  N56  1  0.62692758  0.38959463  0.96502767  1  -1.227025  0.082547  -0.348496  -0.199548  0.070209  3.75747  0.072
N  N57  1  0.45644505  0.30210790  0.22640702  1  -1.22773  -0.000204  -0.361301  -0.387707  -0.000682  3.376971  0.0
N  N58  1  0.76241495  0.42456073  0.38954877  1  -1.243707  0.082381  -0.347364  -0.19587  0.070164  3.759892  0.072
N  N59  1  0.15053514  0.92522872  0.69688175  1  -1.203522  -0.000431  -0.359301  -0.383196  -0.00081  3.373751  0.0
N  N60  1  0.33623188  0.96553463  0.57506861  1  -1.228214  0.082372  -0.349032  -0.197836  0.07012  3.758721  0.072
N  N61  1  0.23099456  0.77349044  0.07559433  1  -1.233298  -0.000453  -0.361985  -0.387687  -0.00083  3.377974  0.0
N  N62  1  0.37304789  0.61039299  0.03496258  1  -1.227495  0.082564  -0.348507  -0.199432  0.070224  3.757802  0.072
O  O63  1  0.36640318  0.81436350  0.81743302  1  -1.177283  0.012261  -0.362264  -0.620634  0.010342  2.398551  0.011
O  O64  1  0.96085984  0.75845565  0.69830563  1  -1.156344  0.023907  -0.325187  -0.560063  0.019722  2.290103  0.021
O  O65  1  0.88553590  0.61261562  0.56502711  1  -1.103214  0.113129  -0.343506  -0.550459  0.092456  2.306328  0.103
O  O66  1  0.11647468  0.06763216  0.90699090  1  -1.04664  0.398141  -0.810871  -1.085232  0.319923  1.746981  0.327
O  O67  1  0.55511496  0.00369435  0.18700634  1  -1.17585  0.011825  -0.366598  -0.62608  0.009745  2.403307  0.011
O  O68  1  0.20318997  0.94049391  0.24221052  1  -1.153495  0.023578  -0.321551  -0.555145  0.019495  2.289416  0.02
O  O69  1  0.27302564  0.95255551  0.38753101  1  -1.10388  0.113059  -0.344846  -0.55211  0.092363  2.309364  0.103
O  O70  1  0.05455321  0.84075571  0.93305275  1  -1.037948  0.414509  -0.801247  -1.070435  0.333256  1.728646  0.341
O  O71  1  0.54675466  0.18234731  0.99641911  1  -1.170646  0.011735  -0.364492  -0.621933  0.009868  2.402944  0.011
O  O72  1  0.25979790  0.30139519  0.05934845  1  -1.153482  0.023643  -0.324591  -0.558145  0.019466  2.292081  0.02
O  O73  1  0.31971511  0.43492638  0.04729672  1  -1.098961  0.112639  -0.344162  -0.549277  0.091852  2.308548  0.102
O  O74  1  0.21174571  0.09347494  0.16008344  1  -1.044412  0.402926  -0.807512  -1.08053  0.323547  1.741252  0.331
O  O75  1  0.63360262  0.18563933  0.18255384  1  -1.177464  0.012259  -0.362359  -0.6208  0.010339  2.398696  0.011
O  O76  1  0.03915077  0.24155370  0.30168272  1  -1.156212  0.023901  -0.325278  -0.560171  0.019717  2.290381  0.021
O  O77  1  0.11445934  0.38737853  0.43496678  1  -1.103018  0.113132  -0.343491  -0.550507  0.092458  2.306194  0.103
O  O78  1  0.88353409  0.93238874  0.09301205  1  -1.046654  0.39798  -0.811039  -1.085345  0.319789  1.747091  0.327
O  O79  1  0.44488071  0.99631859  0.81299764  1  -1.17615  0.011823  -0.366525  -0.62601  0.009744  2.403443  0.011
O  O80  1  0.79680428  0.05951903  0.75778966  1  -1.153858  0.02357  -0.321477  -0.555009  0.019489  2.290304  0.02
O  O81  1  0.72698016  0.04745960  0.61247275  1  -1.103614  0.11313  -0.344908  -0.552259  0.09242  2.308729  0.103
O  O82  1  0.94547099  0.15927821  0.06696342  1  -1.037996  0.414645  -0.801193  -1.07037  0.333367  1.728359  0.341
O  O83  1  0.45324128  0.81763960  0.00358070  1  -1.170739  0.01174  -0.3643  -0.621707  0.009871  2.40252  0.011
O  O84  1  0.74020181  0.69859607  0.94064868  1  -1.153558  0.023648  -0.324574  -0.558017  0.019471  2.292224  0.02
O  O85  1  0.68029350  0.56506488  0.95270652  1  -1.099065  0.11269  -0.344098  -0.549159  0.09189  2.30823  0.102
O  O86  1  0.78828120  0.90654669  0.83993269  1  -1.044837  0.402958  -0.807523  -1.080576  0.323565  1.741383  0.331
O  O87  1  0.39762209  0.99864388  0.99982706  1  -0.492352  0.333439  -0.302078  -0.45073  0.267857  2.298583  0.282
O  O88  1  0.60241272  0.00138426  0.00018519  1  -0.479559  0.333507  -0.302113  -0.450553  0.267867  2.298598  0.282
O  O89  1  0.00001223  0.00001519  0.00000231  1  -0.748353  0.929326  -0.548258  -0.796893  0.74886  1.886984  0.834
