# generated using pymatgen
data_ZnH30C26(N2O3)2
_symmetry_space_group_name_H-M   'P 1'
_cell_length_a   6.78227846
_cell_length_b   8.06390104
_cell_length_c   12.64465393
_cell_angle_alpha   108.22248864
_cell_angle_beta   105.56086196
_cell_angle_gamma   90.01518038
_symmetry_Int_Tables_number   1
_chemical_formula_structural   ZnH30C26(N2O3)2
_chemical_formula_sum   'Zn1 H30 C26 N4 O6'
_cell_volume   630.11585338
_cell_formula_units_Z   1
loop_
 _symmetry_equiv_pos_site_id
 _symmetry_equiv_pos_as_xyz
  1  'x, y, z'
loop_
 _atom_site_type_symbol
 _atom_site_label
 _atom_site_symmetry_multiplicity
 _atom_site_fract_x
 _atom_site_fract_y
 _atom_site_fract_z
 _atom_site_occupancy
 _atom_site_hle17_bader_spin_density
 _atom_site_hle17_ddec_charge
 _atom_site_hle17_ddec_spin_density
 _atom_site_hle17_ddec_sum_bond_order
 _atom_site_hle17_magmom
 _atom_site_hse06_10hf_bader_spin_density
 _atom_site_hse06_10hf_ddec_charge
 _atom_site_hse06_10hf_ddec_spin_density
 _atom_site_hse06_10hf_ddec_sum_bond_order
 _atom_site_hse06_10hf_magmom
 _atom_site_hse06_bader_spin_density
 _atom_site_hse06_ddec_charge
 _atom_site_hse06_ddec_spin_density
 _atom_site_hse06_ddec_sum_bond_order
 _atom_site_hse06_magmom
 _atom_site_pbe_bader_spin_density
 _atom_site_pbe_cm5_charge
 _atom_site_pbe_ddec_charge
 _atom_site_pbe_ddec_spin_density
 _atom_site_pbe_ddec_sum_bond_order
 _atom_site_pbe_magmom
Zn  Zn0  1  0.27809452  0.49991794  0.99998553  1  0  0.965764  0  1.892333  0  0  0.772165  0  2.367127  0  0  0.820358  0  2.313016  0  0  0.689522  0.738707  0  2.404069  0
H  H1  1  0.30370915  0.87682638  0.38263678  1  0  0.075546  0  0.94576  0  0  0.086342  0  1.008813  0  0  0.087945  0  1.008577  0  0  0.101393  0.085181  0  1.009069  0
H  H2  1  0.92138381  0.12299160  0.61729549  1  0  0.076037  0  0.946869  0  0  0.087267  0  1.010024  0  0  0.088879  0  1.009796  0  0  0.102215  0.086115  0  1.010273  0
H  H3  1  0.87806998  0.68036276  0.25127452  1  0  0.088214  0  0.91313  0  0  0.099939  0  0.972397  0  0  0.102067  0  0.971613  0  0  0.106338  0.098441  0  0.97306  0
H  H4  1  0.62722158  0.31945059  0.74864235  1  0  0.08826  0  0.911714  0  0  0.099855  0  0.971076  0  0  0.101863  0  0.970304  0  0  0.106504  0.098423  0  0.971717  0
H  H5  1  0.40813681  0.59108915  0.40287506  1  0  0.07059  0  0.936502  0  0  0.089757  0  0.99415  0  0  0.090917  0  0.99432  0  0  0.091222  0.088881  0  0.994097  0
H  H6  1  0.00570724  0.40852676  0.59682351  1  0  0.07047  0  0.936651  0  0  0.089202  0  0.994918  0  0  0.090338  0  0.995131  0  0  0.090957  0.088344  0  0.994833  0
H  H7  1  0.15269586  0.49459712  0.33344230  1  0  0.06776  0  0.924116  0  0  0.086736  0  0.983957  0  0  0.087686  0  0.984445  0  0  0.089115  0.086027  0  0.983661  0
H  H8  1  0.81979258  0.50521395  0.66622379  1  0  0.067397  0  0.923847  0  0  0.086587  0  0.983578  0  0  0.087554  0  0.984036  0  0  0.088991  0.085816  0  0.983369  0
H  H9  1  0.86657304  0.61082422  0.43801161  1  0  0.058824  0  0.944861  0  0  0.07967  0  1.002795  0  0  0.080367  0  1.003206  0  0  0.086927  0.079099  0  1.002617  0
H  H10  1  0.42921679  0.38940871  0.56186037  1  0  0.058526  0  0.945608  0  0  0.07958  0  1.002703  0  0  0.080419  0  1.002955  0  0  0.086502  0.078915  0  1.002627  0
H  H11  1  0.93904843  0.78152719  0.57320479  1  0  0.074707  0  0.939297  0  0  0.091929  0  1.000166  0  0  0.093327  0  1.000154  0  0  0.089023  0.090909  0  1.000217  0
H  H12  1  0.36591561  0.21868826  0.42669734  1  0  0.075881  0  0.939685  0  0  0.092354  0  1.000651  0  0  0.093689  0  1.000745  0  0  0.089144  0.091376  0  1.000632  0
H  H13  1  0.02249434  0.98818692  0.47759773  1  0  0.063362  0  0.944213  0  0  0.084962  0  1.00309  0  0  0.085542  0  1.00353  0  0  0.089822  0.08446  0  1.002912  0
H  H14  1  0.54459500  0.01183805  0.52217257  1  0  0.062991  0  0.943685  0  0  0.084147  0  1.00303  0  0  0.084715  0  1.003476  0  0  0.08914  0.083658  0  1.002842  0
H  H15  1  0.76674484  0.88985803  0.40967178  1  0  0.069853  0  0.957542  0  0  0.083492  0  1.028973  0  0  0.08556  0  1.02749  0  0  0.089313  0.081949  0  1.030108  0
H  H16  1  0.35709441  0.11040758  0.59021662  1  0  0.069609  0  0.957663  0  0  0.083317  0  1.029004  0  0  0.085291  0  1.027619  0  0  0.089706  0.081858  0  1.030073  0
H  H17  1  0.21845622  0.57923537  0.54736329  1  0  0.056897  0  0.961614  0  0  0.073327  0  1.026626  0  0  0.074582  0  1.026129  0  0  0.085743  0.072394  0  1.027012  0
H  H18  1  0.67158861  0.42054484  0.45235582  1  0  0.056496  0  0.961648  0  0  0.072594  0  1.026842  0  0  0.07385  0  1.026317  0  0  0.085501  0.07169  0  1.027209  0
H  H19  1  0.30001628  0.79613781  0.56468927  1  0  0.058804  0  0.94825  0  0  0.07811  0  1.009925  0  0  0.078457  0  1.011318  0  0  0.084087  0.077803  0  1.009  0
H  H20  1  0.73537131  0.20356964  0.43501770  1  0  0.059406  0  0.948246  0  0  0.078334  0  1.010078  0  0  0.078627  0  1.011537  0  0  0.084253  0.078054  0  1.009127  0
H  H21  1  0.63124858  0.87832559  0.22167466  1  0  0.317313  0  0.933989  0  0  0.296338  0  1.003088  0  0  0.304793  0  0.996494  0  0  0.305623  0.290369  0  1.007771  0
H  H22  1  0.40997665  0.12137459  0.77821783  1  0  0.318413  0  0.930865  0  0  0.296533  0  1.001251  0  0  0.305046  0  0.99456  0  0  0.3057  0.290529  0  1.005988  0
H  H23  1  0.92103737  0.19540859  0.13960037  1  0  0.12447  0  0.986789  0  0  0.129962  0  1.051431  0  0  0.13447  0  1.048455  0  0  0.109053  0.126756  0  1.053678  0
H  H24  1  0.78204750  0.80464601  0.86051253  1  0  0.123859  0  0.987778  0  0  0.129952  0  1.051646  0  0  0.134369  0  1.048757  0  0  0.108812  0.126807  0  1.053831  0
H  H25  1  0.34828579  0.02571671  0.18004127  1  0  0.140497  0  0.971017  0  0  0.146619  0  1.033159  0  0  0.150802  0  1.031266  0  0  0.115509  0.143604  0  1.034721  0
H  H26  1  0.16914266  0.97467411  0.82065049  1  0  0.139917  0  0.972328  0  0  0.146203  0  1.034334  0  0  0.150391  0  1.03241  0  0  0.11514  0.143204  0  1.035865  0
H  H27  1  0.18170542  0.23828413  0.08826763  1  0  0.079299  0  0.940707  0  0  0.091434  0  0.999574  0  0  0.093752  0  0.997152  0  0  0.120788  0.089674  0  1.001422  0
H  H28  1  0.09448204  0.76210494  0.91248693  1  0  0.07899  0  0.940168  0  0  0.091452  0  0.998796  0  0  0.093802  0  0.996294  0  0  0.120704  0.089687  0  1.000657  0
H  H29  1  0.73164481  0.40328754  0.05028102  1  0  0.08482  0  0.931934  0  0  0.095409  0  0.993945  0  0  0.097981  0  0.990674  0  0  0.120379  0.093421  0  0.996475  0
H  H30  1  0.68218290  0.59689057  0.95000150  1  0  0.084271  0  0.930427  0  0  0.094656  0  0.992908  0  0  0.097217  0  0.989653  0  0  0.119887  0.092648  0  0.995455  0
C  C31  1  0.27157649  0.69365948  0.21679782  1  0  0.667615  0  3.854756  0  0  0.615914  0  4.160206  0  0  0.649364  0  4.152639  0  0  0.203448  0.593195  0  4.164548  0
C  C32  1  0.05501746  0.30633934  0.78309444  1  0  0.668816  0  3.852575  0  0  0.61673  0  4.159373  0  0  0.650216  0  4.151782  0  0  0.203515  0.593997  0  4.163734  0
C  C33  1  0.20476276  0.75651971  0.32706910  1  0  -0.133981  0  3.65668  0  0  -0.138195  0  3.890734  0  0  -0.143605  0  3.904516  0  0  -0.091925  -0.134476  0  3.881234  0
C  C34  1  0.87799662  0.24333979  0.67276446  1  0  -0.13514  0  3.655964  0  0  -0.141263  0  3.89297  0  0  -0.14687  0  3.906812  0  0  -0.093166  -0.137423  0  3.883416  0
C  C35  1  0.98075301  0.79910392  0.30746860  1  0  -0.120857  0  3.643123  0  0  -0.129072  0  3.880213  0  0  -0.133468  0  3.894444  0  0  -0.085454  -0.126216  0  3.870661  0
C  C36  1  0.67352155  0.20076866  0.69233103  1  0  -0.120006  0  3.639253  0  0  -0.127271  0  3.875548  0  0  -0.131179  0  3.889053  0  0  -0.085697  -0.124643  0  3.866283  0
C  C37  1  0.24603204  0.61840507  0.38969883  1  0  -0.10861  0  3.64914  0  0  -0.151892  0  3.90762  0  0  -0.152842  0  3.921641  0  0  -0.159822  -0.151083  0  3.897838  0
C  C38  1  0.85671978  0.38133487  0.60999678  1  0  -0.107705  0  3.646498  0  0  -0.150803  0  3.905993  0  0  -0.151713  0  3.919974  0  0  -0.159635  -0.149987  0  3.896212  0
C  C39  1  0.97247759  0.72971564  0.48898177  1  0  -0.102977  0  3.676069  0  0  -0.140522  0  3.937358  0  0  -0.141844  0  3.951794  0  0  -0.167209  -0.139475  0  3.927253  0
C  C40  1  0.48374988  0.27035124  0.51087023  1  0  -0.104734  0  3.68054  0  0  -0.14079  0  3.938878  0  0  -0.142184  0  3.953415  0  0  -0.16704  -0.139695  0  3.928729  0
C  C41  1  0.92894982  0.86327103  0.42446151  1  0  -0.119878  0  3.658942  0  0  -0.168766  0  3.925488  0  0  -0.169277  0  3.938102  0  0  -0.163552  -0.168181  0  3.916779  0
C  C42  1  0.50455070  0.13680969  0.57539201  1  0  -0.118957  0  3.659782  0  0  -0.167878  0  3.925187  0  0  -0.168391  0  3.937731  0  0  -0.162972  -0.167308  0  3.916469  0
C  C43  1  0.19387114  0.68118139  0.50548636  1  0  -0.102518  0  3.692525  0  0  -0.142059  0  3.955322  0  0  -0.143289  0  3.970345  0  0  -0.168793  -0.141004  0  3.944786  0
C  C44  1  0.68864003  0.31858586  0.49422613  1  0  -0.102623  0  3.692306  0  0  -0.141664  0  3.954251  0  0  -0.142835  0  3.96925  0  0  -0.168458  -0.140649  0  3.943708  0
C  C45  1  0.94060148  0.93916138  0.24884087  1  0  0.578875  0  3.730291  0  0  0.532694  0  4.022976  0  0  0.561237  0  4.022183  0  0  0.252752  0.513414  0  4.022957  0
C  C46  1  0.69202719  0.06062190  0.75094920  1  0  0.57875  0  3.729688  0  0  0.532503  0  4.021735  0  0  0.560971  0  4.020927  0  0  0.252421  0.513302  0  4.021704  0
C  C47  1  0.64988092  0.08806510  0.16428344  1  0  0.32441  0  3.771936  0  0  0.311946  0  4.019435  0  0  0.32699  0  4.037549  0  0  0.125814  0.301986  0  4.006976  0
C  C48  1  0.48623260  0.91201834  0.83594525  1  0  0.323503  0  3.770269  0  0  0.310834  0  4.018251  0  0  0.325856  0  4.036394  0  0  0.125968  0.300915  0  4.005776  0
C  C49  1  0.75729894  0.20016343  0.12840209  1  0  -0.218844  0  3.684988  0  0  -0.237561  0  3.937496  0  0  -0.248136  0  3.95644  0  0  -0.091635  -0.230835  0  3.924944  0
C  C50  1  0.62953545  0.79994873  0.87179667  1  0  -0.218596  0  3.683988  0  0  -0.237794  0  3.936887  0  0  -0.248288  0  3.955851  0  0  -0.091511  -0.231111  0  3.92428  0
C  C51  1  0.43872059  0.10440444  0.15071874  1  0  -0.217648  0  3.68279  0  0  -0.2341  0  3.93243  0  0  -0.245114  0  3.952579  0  0  -0.087452  -0.22705  0  3.919052  0
C  C52  1  0.28881839  0.89584641  0.84979346  1  0  -0.216601  0  3.68278  0  0  -0.233494  0  3.932744  0  0  -0.24449  0  3.952923  0  0  -0.086973  -0.226445  0  3.919333  0
C  C53  1  0.34520628  0.22382492  0.10037632  1  0  0.143506  0  3.722997  0  0  0.110653  0  3.972845  0  0  0.11948  0  3.990942  0  0  0.045164  0.104998  0  3.960503  0
C  C54  1  0.24576680  0.77650960  0.90021819  1  0  0.143875  0  3.723296  0  0  0.110746  0  3.973024  0  0  0.119567  0  3.991136  0  0  0.044839  0.10509  0  3.960694  0
C  C55  1  0.65033170  0.31634465  0.07873613  1  0  0.147974  0  3.712529  0  0  0.112923  0  3.969741  0  0  0.122533  0  3.986486  0  0  0.047243  0.106714  0  3.958361  0
C  C56  1  0.57238357  0.68380362  0.92156641  1  0  0.149842  0  3.708309  0  0  0.114725  0  3.965758  0  0  0.124355  0  3.982455  0  0  0.048013  0.108533  0  3.954384  0
N  N57  1  0.73550774  0.96247167  0.21148067  1  0  -0.466608  0  3.330614  0  0  -0.408838  0  3.567206  0  0  -0.433699  0  3.575706  0  0  -0.392967  -0.391733  0  3.560771  0
N  N58  1  0.52442231  0.03729569  0.78842612  1  0  -0.467962  0  3.328401  0  0  -0.409227  0  3.565187  0  0  -0.434102  0  3.573549  0  0  -0.39355  -0.392184  0  3.558964  0
N  N59  1  0.44673444  0.32842740  0.06318835  1  0  -0.351169  0  3.338873  0  0  -0.266954  0  3.623069  0  0  -0.2877  0  3.636539  0  0  -0.345195  -0.253151  0  3.6138  0
N  N60  1  0.38437299  0.67175312  0.93722887  1  0  -0.351919  0  3.338429  0  0  -0.267176  0  3.621928  0  0  -0.287921  0  3.635434  0  0  -0.344903  -0.253361  0  3.612608  0
O  O61  1  0.45746833  0.72128962  0.22152467  1  0  -0.652911  0  1.964501  0  0  -0.60556  0  2.205965  0  0  -0.62913  0  2.196502  0  0  -0.333265  -0.589013  0  2.211843  0
O  O62  1  0.23623690  0.27873788  0.77851318  1  0  -0.653639  0  1.964801  0  0  -0.605438  0  2.205979  0  0  -0.629075  0  2.19655  0  0  -0.333008  -0.588886  0  2.211901  0
O  O63  1  0.13467320  0.60453377  0.12265706  1  0  -0.643696  0  1.993723  0  0  -0.572739  0  2.258821  0  0  -0.601431  0  2.245433  0  0  -0.336983  -0.552708  0  2.267203  0
O  O64  1  0.01208141  0.39559431  0.87714979  1  0  -0.644275  0  1.991234  0  0  -0.573144  0  2.256816  0  0  -0.601891  0  2.243478  0  0  -0.337211  -0.553002  0  2.265007  0
O  O65  1  0.07947571  0.02940687  0.24028018  1  0  -0.536515  0  1.945438  0  0  -0.488065  0  2.160394  0  0  -0.508588  0  2.154923  0  0  -0.279231  -0.473878  0  2.163818  0
O  O66  1  0.83950700  0.97047144  0.75949601  1  0  -0.536043  0  1.945413  0  0  -0.487632  0  2.160048  0  0  -0.508159  0  2.154598  0  0  -0.278581  -0.473451  0  2.163425  0
