# generated using pymatgen
data_NiH24C36(NO2)2
_symmetry_space_group_name_H-M   'P 1'
_cell_length_a   16.91416823
_cell_length_b   16.91402329
_cell_length_c   16.91308404
_cell_angle_alpha   107.70575062
_cell_angle_beta   107.72595906
_cell_angle_gamma   113.04415510
_symmetry_Int_Tables_number   1
_chemical_formula_structural   NiH24C36(NO2)2
_chemical_formula_sum   'Ni4 H96 C144 N8 O16'
_cell_volume   3713.73581422
_cell_formula_units_Z   4
loop_
 _symmetry_equiv_pos_site_id
 _symmetry_equiv_pos_as_xyz
  1  'x, y, z'
loop_
 _atom_site_type_symbol
 _atom_site_label
 _atom_site_symmetry_multiplicity
 _atom_site_fract_x
 _atom_site_fract_y
 _atom_site_fract_z
 _atom_site_occupancy
 _atom_site_pbe_bader_charge
 _atom_site_pbe_bader_spin_density
 _atom_site_pbe_cm5_charge
 _atom_site_pbe_ddec_charge
 _atom_site_pbe_ddec_spin_density
 _atom_site_pbe_ddec_sum_bond_order
 _atom_site_pbe_magmom
Ni  Ni0  1  0.64918898  0.64919081  0.99999747  1  1.006909  3.3e-05  0.631056  0.585793  0.000115  2.713694  0.0
Ni  Ni1  1  0.89935972  0.39936215  0.50000359  1  1.010727  -7.5e-05  0.631513  0.585088  -0.00013  2.71628  0.0
Ni  Ni2  1  0.14262465  0.14262490  0.99999499  1  1.123423  1.521727  0.643038  0.686079  1.904135  2.515469  1.504
Ni  Ni3  1  0.39264842  0.89264631  0.50000387  1  1.12214  -1.521572  0.643581  0.685922  -1.903989  2.517193  -1.504
H  H4  1  0.10283842  0.81261982  0.50113766  1  0.111718  -0.000543  0.10437  0.110991  -0.00043  1.016418  0.0
H  H5  1  0.31148623  0.60169647  0.49886154  1  0.092465  -0.000547  0.104337  0.11098  -0.000427  1.016442  0.0
H  H6  1  0.06257834  0.06139372  0.20977415  1  0.109938  0.00054  0.104453  0.111105  0.00043  1.016489  0.0
H  H7  1  0.85161704  0.85280230  0.79022422  1  0.109087  0.000542  0.104452  0.111052  0.000427  1.016577  0.0
H  H8  1  0.61034348  0.10900319  0.29653034  1  0.101008  0.000107  0.103169  0.109183  9.4e-05  1.017774  0.0
H  H9  1  0.81247868  0.31381792  0.70347991  1  0.095093  -0.000101  0.103141  0.109178  -8.9e-05  1.017786  0.0
H  H10  1  0.56381094  0.36032073  0.00137330  1  0.068047  0.000104  0.103174  0.109586  9e-05  1.017447  0.0
H  H11  1  0.35894953  0.56243380  0.99862454  1  0.120134  -0.000107  0.103186  0.109589  -9.6e-05  1.017493  0.0
H  H12  1  0.99541341  0.77024376  0.57357733  1  0.075106  -6.7e-05  0.098483  0.094724  -3.5e-05  1.022442  0.0
H  H13  1  0.19666801  0.42183206  0.42642048  1  0.04352  -3.7e-05  0.098489  0.094741  -1.3e-05  1.022538  0.0
H  H14  1  0.02019753  0.94652913  0.27476690  1  0.058737  6.8e-05  0.098362  0.094491  3.5e-05  1.022943  0.0
H  H15  1  0.67176170  0.74542946  0.72523654  1  0.034239  3.8e-05  0.098345  0.094453  1.3e-05  1.022943  0.0
H  H16  1  0.49835574  0.92970803  0.22982403  1  0.043983  -7.2e-05  0.095997  0.092871  -3.9e-05  1.028013  0.0
H  H17  1  0.69988144  0.26853333  0.77017903  1  0.052641  1.2e-05  0.09602  0.092966  3e-06  1.027992  0.0
H  H18  1  0.51858909  0.24826539  0.06867539  1  0.040128  -1.1e-05  0.095981  0.092849  -3e-06  1.028169  0.0
H  H19  1  0.17959274  0.44991560  0.93132386  1  0.050406  7.1e-05  0.095966  0.092858  3.9e-05  1.028228  0.0
H  H20  1  0.25115237  0.91145507  0.84395693  1  0.075401  -5.4e-05  0.101703  0.101009  -2.1e-05  1.002622  0.0
H  H21  1  0.06749668  0.40719863  0.15604533  1  0.073893  -5.7e-05  0.101706  0.101013  -2.2e-05  1.002588  0.0
H  H22  1  0.16145505  0.81749583  0.16027576  1  0.073073  5.3e-05  0.101706  0.100944  2.1e-05  1.002483  0.0
H  H23  1  0.65722502  0.00118351  0.83972735  1  0.053214  5.7e-05  0.101741  0.10098  2.2e-05  1.00245  0.0
H  H24  1  0.74751810  0.90341984  0.33679052  1  0.056502  2e-06  0.102087  0.102853  -0.0  1.001839  0.0
H  H25  1  0.56663070  0.41072823  0.66320521  1  0.054144  -1e-05  0.10208  0.102814  -3e-06  1.00193  0.0
H  H26  1  0.66076034  0.49739334  0.34416832  1  0.030096  -2.2e-05  0.102105  0.103125  -9e-06  1.001693  0.0
H  H27  1  0.15322369  0.31659057  0.65583093  1  0.069042  3e-05  0.1021  0.103143  1.2e-05  1.001644  0.0
H  H28  1  0.35752787  0.95724549  0.77157692  1  0.048824  -0.000447  0.103405  0.102698  -0.000324  1.006612  0.0
H  H29  1  0.18567112  0.58595477  0.22842461  1  0.082484  -0.000444  0.103428  0.102783  -0.000324  1.006507  0.0
H  H30  1  0.20741277  0.93582996  0.09990182  1  0.058921  0.000442  0.103553  0.102768  0.000322  1.006624  0.0
H  H31  1  0.83593224  0.10751368  0.90009882  1  0.086599  0.000433  0.10355  0.102742  0.000323  1.006562  0.0
H  H32  1  0.85855501  0.08224867  0.40006574  1  0.08521  7.9e-05  0.102928  0.102873  6e-05  1.011824  0.0
H  H33  1  0.68218810  0.45848967  0.59993237  1  0.080074  -7.9e-05  0.102965  0.102905  -5.7e-05  1.011767  0.0
H  H34  1  0.70852493  0.60840732  0.27632841  1  0.052188  6.7e-05  0.102838  0.10282  4.8e-05  1.01155  0.0
H  H35  1  0.33207708  0.43219098  0.72366744  1  0.084174  -6.4e-05  0.102848  0.102844  -5.1e-05  1.011584  0.0
H  H36  1  0.93443536  0.66823029  0.62421022  1  0.076802  4.5e-05  0.098251  0.094743  4.5e-05  1.03885  0.0
H  H37  1  0.04401813  0.31022422  0.37578832  1  0.049946  -4.8e-05  0.098262  0.094775  -4.8e-05  1.038826  0.0
H  H38  1  0.91846494  0.79419010  0.23401481  1  0.03657  -5.6e-05  0.098453  0.094814  -4.9e-05  1.038616  0.0
H  H39  1  0.56017722  0.68445305  0.76598723  1  0.070036  5.5e-05  0.098439  0.094796  5.2e-05  1.038599  0.0
H  H40  1  0.43444673  0.81316803  0.26814830  1  0.046458  -2.5e-05  0.096696  0.091346  2e-06  1.043458  0.0
H  H41  1  0.54501762  0.16629866  0.73184998  1  0.042881  -2.1e-05  0.096714  0.091388  3e-06  1.043422  0.0
H  H42  1  0.41635657  0.18431931  0.12129380  1  0.056214  2.2e-05  0.096545  0.091185  -3e-06  1.043403  0.0
H  H43  1  0.06302800  0.29506529  0.87870926  1  0.041916  2.4e-05  0.09653  0.091197  -2e-06  1.04334  0.0
H  H44  1  0.83023625  0.60929563  0.69056849  1  0.127999  -0.000122  0.09788  0.100012  -8.7e-05  1.049251  0.0
H  H45  1  0.91872175  0.13966648  0.30942763  1  0.105816  0.000126  0.097854  0.099981  8.6e-05  1.049226  0.0
H  H46  1  0.85957215  0.66891666  0.27936075  1  0.103236  9.9e-05  0.098024  0.10014  7.1e-05  1.049125  0.0
H  H47  1  0.38956017  0.58021659  0.72064451  1  0.104304  -0.000101  0.098037  0.100184  -7e-05  1.04916  0.0
H  H48  1  0.32966908  0.64160008  0.22224718  1  0.052414  -0.000306  0.096235  0.095822  -0.000257  1.049911  0.0
H  H49  1  0.41935069  0.10742148  0.77774848  1  0.060656  -0.000303  0.096235  0.095865  -0.000257  1.049944  0.0
H  H50  1  0.35742739  0.07967133  0.18818969  1  0.063042  0.000303  0.096475  0.095936  0.000258  1.049835  0.0
H  H51  1  0.89148442  0.16923958  0.81181323  1  0.071993  0.000304  0.096482  0.095993  0.000258  1.049788  0.0
H  H52  1  0.04266464  0.86998018  0.96186773  1  0.098143  -2.8e-05  0.100613  0.098982  -6e-05  1.044735  0.0
H  H53  1  0.90811293  0.08079809  0.03813070  1  0.094734  -5e-06  0.100586  0.09894  -4.9e-05  1.044775  0.0
H  H54  1  0.12002679  0.65800713  0.32720616  1  0.09272  8e-06  0.100516  0.098954  5e-05  1.045261  0.0
H  H55  1  0.33081028  0.79283073  0.67279601  1  0.094473  2.3e-05  0.100565  0.099021  5.8e-05  1.045257  0.0
H  H56  1  0.53980863  0.58193451  0.16954746  1  0.099123  4e-05  0.101559  0.101259  7e-06  1.041006  0.0
H  H57  1  0.41239350  0.37026859  0.83045172  1  0.072798  3.7e-05  0.101577  0.101271  4e-05  1.040991  0.0
H  H58  1  0.62033383  0.28985645  0.45803158  1  0.102267  -4e-05  0.101425  0.101325  -7e-06  1.041768  0.0
H  H59  1  0.83182782  0.16230170  0.54196818  1  0.07242  -3.7e-05  0.101422  0.10132  -4e-05  1.04182  0.0
H  H60  1  0.14874478  0.92786715  0.89629898  1  0.068934  -7.1e-05  0.100475  0.098458  -6.2e-05  1.036732  0.0
H  H61  1  0.03157062  0.25244697  0.10370091  1  0.072329  -7.1e-05  0.100476  0.098395  -6.1e-05  1.036728  0.0
H  H62  1  0.17792209  0.78145818  0.27895368  1  0.075621  6.9e-05  0.100231  0.098269  6.1e-05  1.036863  0.0
H  H63  1  0.50251398  0.89897797  0.72105218  1  0.07395  7e-05  0.100236  0.09824  6.1e-05  1.036793  0.0
H  H64  1  0.64555009  0.75327806  0.21719474  1  0.07761  1.3e-05  0.101124  0.101849  4e-06  1.038111  0.0
H  H65  1  0.53608720  0.42835734  0.78280143  1  0.079206  -2.1e-05  0.101123  0.10184  1e-06  1.038096  0.0
H  H66  1  0.67844272  0.39545537  0.39227062  1  0.059241  -1.5e-05  0.101102  0.102021  -4e-06  1.038065  0.0
H  H67  1  0.00318683  0.28617120  0.60772896  1  0.074072  2.2e-05  0.101096  0.102  -1e-06  1.038051  0.0
H  H68  1  0.98049779  0.76824883  0.01614039  1  0.134432  -0.000184  0.103933  0.109758  -0.000107  1.047608  0.0
H  H69  1  0.75210535  0.96436166  0.98385881  1  0.115627  0.00018  0.103959  0.109769  8.4e-05  1.047551  0.0
H  H70  1  0.01826484  0.50215095  0.28761796  1  0.111288  -0.000177  0.103927  0.109597  -8.3e-05  1.047838  0.0
H  H71  1  0.21453992  0.73065417  0.71238419  1  0.127583  0.000192  0.103948  0.109639  0.000107  1.047802  0.0
H  H72  1  0.47613873  0.46357014  0.20946608  1  0.117908  0.000849  0.103771  0.111044  0.000433  1.041814  0.0
H  H73  1  0.25411000  0.26667593  0.79052948  1  0.079114  0.000864  0.103789  0.111077  0.000435  1.041777  0.0
H  H74  1  0.51671012  0.22612454  0.51267249  1  0.077205  -0.000851  0.103781  0.11087  -0.000434  1.042503  0.0
H  H75  1  0.71345070  0.00403902  0.48732908  1  0.11115  -0.000853  0.103794  0.110907  -0.000436  1.042473  0.0
H  H76  1  0.86665952  0.72351735  0.08138884  1  0.115547  -0.001218  0.117112  0.083983  -0.000551  1.037939  -0.001
H  H77  1  0.64212304  0.78527246  0.91860467  1  0.130877  0.0012  0.117133  0.084016  0.000545  1.037875  0.001
H  H78  1  0.97364917  0.39218673  0.35678624  1  0.115391  -0.001201  0.117163  0.084057  -0.00054  1.037965  -0.001
H  H79  1  0.03540948  0.61687197  0.64322062  1  0.107477  0.001211  0.117175  0.084092  0.000546  1.037836  0.001
H  H80  1  0.35944091  0.28554173  0.14268184  1  0.109009  0.00184  0.114538  0.081056  0.000714  1.030028  0.001
H  H81  1  0.14286035  0.21675957  0.85730645  1  0.12037  0.001837  0.114523  0.081061  0.000715  1.029913  0.001
H  H82  1  0.46672224  0.10939861  0.57398193  1  0.10848  -0.001836  0.114697  0.081422  -0.000714  1.029765  -0.001
H  H83  1  0.53541833  0.89274294  0.42602469  1  0.124398  -0.001837  0.114685  0.081393  -0.000714  1.029824  -0.001
H  H84  1  0.62309534  0.59147561  0.82139706  1  0.134996  -0.001925  0.12119  0.100815  -0.001034  1.041262  -0.001
H  H85  1  0.77006723  0.80169315  0.17859873  1  0.146242  0.001893  0.121174  0.10083  0.001034  1.041192  0.001
H  H86  1  0.84156332  0.52002809  0.46828926  1  0.14863  -0.001894  0.121477  0.101369  -0.001035  1.04034  -0.001
H  H87  1  0.05174312  0.37327835  0.53171689  1  0.141266  0.001891  0.121499  0.101395  0.001035  1.040341  0.001
H  H88  1  0.11929521  0.30744463  0.03327708  1  0.146744  0.001794  0.11828  0.092243  0.000748  1.02424  0.002
H  H89  1  0.27416230  0.08601705  0.96671801  1  0.095977  0.001844  0.118306  0.092251  0.000748  1.024247  0.002
H  H90  1  0.33601201  0.86933448  0.31190087  1  0.077536  -0.001874  0.118183  0.092251  -0.00075  1.024507  -0.002
H  H91  1  0.55744024  0.02412247  0.68810570  1  0.120011  -0.001838  0.118206  0.092218  -0.00075  1.024531  -0.002
H  H92  1  0.72648634  0.62761805  0.74292096  1  0.059635  -0.000494  0.109624  0.115096  -0.000233  0.998221  0.0
H  H93  1  0.88469252  0.98356255  0.25707722  1  0.07967  0.000505  0.109615  0.11513  0.000231  0.99823  0.0
H  H94  1  0.87783171  0.63476283  0.40118480  1  0.068  -0.000497  0.109719  0.11494  -0.000236  0.998343  0.0
H  H95  1  0.23357927  0.47664750  0.59881285  1  0.05468  0.000503  0.109742  0.11493  0.000238  0.998298  0.0
H  H96  1  0.22544256  0.48800567  0.09793563  1  0.069325  0.001002  0.107575  0.11173  0.000513  1.00444  0.0
H  H97  1  0.39006800  0.12750615  0.90206433  1  0.068777  0.000999  0.107584  0.111755  0.000511  1.00442  0.0
H  H98  1  0.37744446  0.97551991  0.23750526  1  0.065006  -0.001001  0.107552  0.112019  -0.000513  1.004598  0.0
H  H99  1  0.73802024  0.13994892  0.76249864  1  0.083278  -0.001002  0.107536  0.111984  -0.000511  1.004493  0.0
C  C100  1  0.29858924  0.90413803  0.58436947  1  1.476184  0.004929  0.193741  0.543298  0.002217  4.188203  0.007
C  C101  1  0.31977613  0.71422465  0.41563614  1  1.487135  0.004876  0.193719  0.543255  0.002216  4.188227  0.007
C  C102  1  0.15418225  0.06987127  0.10569497  1  1.489266  -0.004816  0.19424  0.544404  -0.002217  4.186343  -0.007
C  C103  1  0.96417510  0.04848595  0.89430044  1  1.473853  -0.004834  0.194297  0.544385  -0.002217  4.186614  -0.007
C  C104  1  0.81365317  0.21519359  0.39959098  1  1.533358  0.001107  0.197936  0.546106  0.001367  4.193301  0.0
C  C105  1  0.81560626  0.41406838  0.60041595  1  1.531353  -0.001144  0.198088  0.546268  -0.001378  4.193263  0.0
C  C106  1  0.66402427  0.56344286  0.09840925  1  1.524175  0.001111  0.198201  0.546155  0.001381  4.192417  0.0
C  C107  1  0.46503095  0.56560738  0.90158666  1  1.5275  -0.001102  0.198275  0.546365  -0.001369  4.192274  0.0
C  C108  1  0.23686455  0.88818984  0.63172614  1  0.0878  -0.004044  -0.018118  -0.031912  -0.002824  3.976859  -0.003
C  C109  1  0.25646591  0.60513763  0.36827543  1  -0.033752  -0.00416  -0.018098  -0.031811  -0.002845  3.976587  -0.003
C  C110  1  0.13832760  0.00657023  0.15149883  1  -0.01969  0.004137  -0.017996  -0.032292  0.002847  3.97706  0.003
C  C111  1  0.85507210  0.98682784  0.84849923  1  -0.016693  0.004098  -0.017992  -0.032346  0.002815  3.97705  0.003
C  C112  1  0.74189957  0.10688128  0.35207311  1  -0.038809  -0.002173  -0.019739  -0.034265  -0.001385  3.971124  -0.002
C  C113  1  0.75481218  0.38983113  0.64793332  1  -0.00806  0.001669  -0.0198  -0.034407  0.001071  3.971098  0.002
C  C114  1  0.63991494  0.49176990  0.13508776  1  0.026649  -0.001693  -0.019561  -0.034076  -0.001077  3.970658  -0.002
C  C115  1  0.35668185  0.50482285  0.86491099  1  -0.010978  0.002172  -0.01959  -0.034104  0.00139  3.970826  0.002
C  C116  1  0.13438898  0.83515949  0.57654330  1  -0.07957  -0.000204  -0.080621  -0.079817  -0.000238  3.960253  0.0
C  C117  1  0.25861560  0.55784188  0.42345700  1  -0.001675  -0.000128  -0.080599  -0.07982  -0.000224  3.960197  0.0
C  C118  1  0.08520676  0.00860541  0.20084031  1  -0.005176  0.000169  -0.080358  -0.079307  0.000235  3.961041  0.0
C  C119  1  0.80776329  0.88436371  0.79915769  1  0.000813  0.000176  -0.080376  -0.079248  0.000236  3.961006  0.0
C  C120  1  0.63990801  0.06331891  0.30424103  1  0.005238  0.000362  -0.081583  -0.079646  0.000263  3.958998  0.0
C  C121  1  0.75908185  0.33567098  0.69576720  1  -0.034498  -0.00025  -0.081516  -0.079565  -0.000189  3.958759  0.0
C  C122  1  0.58573799  0.38980908  0.07663670  1  0.000119  0.000242  -0.081867  -0.080817  0.000185  3.959279  0.0
C  C123  1  0.31317240  0.50909571  0.92336189  1  -0.055809  -0.000353  -0.081892  -0.080799  -0.000259  3.959399  0.0
C  C124  1  0.07483328  0.81058118  0.61723966  1  -0.071652  -0.000739  -0.091302  -0.132753  -0.000373  3.980145  -0.001
C  C125  1  0.19334089  0.45758866  0.38275916  1  0.004558  -0.000763  -0.091348  -0.132861  -0.00039  3.98018  -0.001
C  C126  1  0.06060614  0.94328327  0.23577036  1  -0.080106  0.000779  -0.091467  -0.133168  0.000398  3.980573  0.001
C  C127  1  0.70751166  0.82483459  0.76422996  1  -0.038256  0.000727  -0.091455  -0.133123  0.000366  3.980511  0.001
C  C128  1  0.57747976  0.96291697  0.26792105  1  -0.091841  -0.000284  -0.092466  -0.137127  -0.000204  3.977245  0.0
C  C129  1  0.69499553  0.30955984  0.73208156  1  -0.078987  -0.000206  -0.092522  -0.137308  -9.8e-05  3.97735  0.0
C  C130  1  0.55970942  0.32736858  0.11462442  1  -0.032696  0.000214  -0.092154  -0.136423  0.000103  3.977475  0.0
C  C131  1  0.21274545  0.44508211  0.88537407  1  -0.023936  0.000275  -0.092146  -0.136521  0.0002  3.97769  0.0
C  C132  1  0.11496776  0.83646004  0.71395125  1  -0.007013  0.001506  -0.002609  0.075634  0.000939  3.984892  0.001
C  C133  1  0.12250890  0.40101683  0.28604677  1  -0.111721  0.001472  -0.002571  0.075696  0.000909  3.984909  0.001
C  C134  1  0.08650276  0.87248412  0.22149621  1  -0.058236  -0.001525  -0.002461  0.076084  -0.000948  3.985175  -0.001
C  C135  1  0.65099197  0.86500912  0.77850799  1  0.036511  -0.001431  -0.002495  0.075975  -0.000888  3.985322  -0.001
C  C136  1  0.61429427  0.90304153  0.27891882  1  -0.025436  1.6e-05  -0.004876  0.073249  0.0  3.990505  0.0
C  C137  1  0.62412268  0.33537538  0.72108013  1  0.02643  9.8e-05  -0.004853  0.073326  5.9e-05  3.990551  0.0
C  C138  1  0.58549645  0.36413958  0.21129921  1  -0.006689  -0.000105  -0.005485  0.07259  -6.2e-05  3.991706  0.0
C  C139  1  0.15284198  0.37419492  0.78869992  1  -0.021319  -8e-06  -0.005428  0.07269  2e-06  3.991753  0.0
C  C140  1  0.21799408  0.89180631  0.76920232  1  -0.092928  -0.000698  -0.092102  -0.138221  -0.00036  3.990887  -0.001
C  C141  1  0.12260682  0.44879615  0.23079986  1  -0.084074  -0.000777  -0.092112  -0.138188  -0.000406  3.991042  -0.001
C  C142  1  0.14187106  0.87264545  0.17386260  1  -0.021683  0.00073  -0.092013  -0.137984  0.000378  3.990968  0.001
C  C143  1  0.69878730  0.96801257  0.82614038  1  -0.133688  0.000731  -0.091987  -0.137907  0.000384  3.990737  0.001
C  C144  1  0.71683677  0.94749362  0.32562239  1  -0.012081  4.1e-05  -0.092634  -0.138393  5e-06  4.002978  0.0
C  C145  1  0.62187269  0.39121652  0.67437678  1  -0.083924  -0.000533  -0.092568  -0.138291  -0.000301  4.003004  0.0
C  C146  1  0.64132523  0.46667850  0.26942802  1  -0.066009  0.00053  -0.092304  -0.138271  0.000307  4.002203  0.0
C  C147  1  0.19725027  0.37189376  0.73057098  1  -0.046836  -3.4e-05  -0.09223  -0.13818  -1e-05  4.001927  0.0
C  C148  1  0.27796242  0.91760827  0.72886695  1  -0.09662  2.4e-05  -0.086329  -0.105077  -0.000101  4.016447  0.0
C  C149  1  0.18874236  0.54909845  0.27113469  1  -0.020391  6.2e-05  -0.086356  -0.105242  -9.2e-05  4.016573  0.0
C  C150  1  0.16774990  0.93886519  0.13980278  1  -0.054888  -6e-05  -0.086684  -0.105398  9.3e-05  4.017173  0.0
C  C151  1  0.79906597  0.02794947  0.86019829  1  -0.082127  -3.7e-05  -0.086707  -0.105365  0.000103  4.016905  0.0
C  C152  1  0.77922435  0.04734672  0.36118828  1  -0.067797  0.00082  -0.088477  -0.105953  0.000552  4.024778  0.001
C  C153  1  0.68616141  0.41803774  0.63881230  1  -0.050908  -0.000719  -0.088557  -0.106019  -0.000498  4.024801  -0.001
C  C154  1  0.66815543  0.52907312  0.23195584  1  -0.077109  0.000719  -0.08841  -0.105824  0.000492  4.02309  0.001
C  C155  1  0.29711691  0.43619601  0.76804153  1  -0.102031  -0.000809  -0.088521  -0.106005  -0.000546  4.023134  -0.001
C  C156  1  0.05098852  0.80281483  0.75469033  1  0.04646  7.2e-05  -0.00578  0.062974  5.4e-05  3.991013  0.0
C  C157  1  0.04812447  0.29629864  0.24530832  1  -0.002391  -0.000242  -0.005777  0.062947  -0.000148  3.990998  0.0
C  C158  1  0.05292021  0.79812523  0.25185032  1  -0.002036  0.000125  -0.005476  0.063232  7e-05  3.99123  0.0
C  C159  1  0.54628008  0.80107326  0.74815327  1  -0.003427  4.1e-05  -0.005534  0.063166  2.3e-05  3.991473  0.0
C  C160  1  0.54894112  0.79804944  0.24678958  1  -0.044785  -0.001229  -0.006921  0.062885  -0.000757  3.990668  -0.001
C  C161  1  0.55125657  0.30214991  0.75320462  1  -0.038038  -0.001175  -0.006945  0.062824  -0.000726  3.990712  -0.001
C  C162  1  0.55221041  0.29877923  0.25090655  1  -0.108386  0.001223  -0.007183  0.062812  0.000757  3.991522  0.001
C  C163  1  0.04787397  0.30130431  0.74909269  1  -0.043983  0.001179  -0.007139  0.062799  0.000726  3.991618  0.001
C  C164  1  0.95880821  0.71400683  0.69841031  1  -0.095933  0.000306  -0.09354  -0.131152  0.000203  3.988733  0.0
C  C165  1  0.01559372  0.26039749  0.30158708  1  -0.014524  0.000346  -0.093563  -0.131187  0.000193  3.988722  0.0
C  C166  1  0.96418691  0.76568859  0.25533614  1  -0.098373  -0.000455  -0.093519  -0.130621  -0.000291  3.989559  0.0
C  C167  1  0.51035496  0.70885399  0.74466667  1  -0.035224  -0.00019  -0.093492  -0.130531  -0.000101  3.9896  0.0
C  C168  1  0.45761844  0.76266340  0.24504879  1  0.044019  0.000356  -0.093392  -0.128889  0.000193  3.991673  0.0
C  C169  1  0.51761199  0.21256920  0.75494735  1  -0.031079  0.000397  -0.093405  -0.128935  0.000219  3.991661  0.0
C  C170  1  0.46261542  0.20749883  0.19499038  1  -0.032114  -0.000352  -0.093362  -0.128638  -0.000192  3.991579  0.0
C  C171  1  0.01251074  0.26762630  0.80501102  1  -0.054477  -0.000397  -0.093353  -0.128567  -0.00022  3.991581  0.0
C  C172  1  0.89866212  0.68056686  0.73621703  1  -0.119315  -5.4e-05  -0.089537  -0.115702  -4e-05  3.96998  0.0
C  C173  1  0.94434746  0.16244474  0.26377994  1  -0.128179  -0.000118  -0.089469  -0.115594  -7.1e-05  3.969996  0.0
C  C174  1  0.93080755  0.69452596  0.28214298  1  -0.018945  0.000225  -0.089854  -0.116457  0.000139  3.972687  0.0
C  C175  1  0.41238587  0.64866707  0.71785946  1  -0.113049  -5.4e-05  -0.089868  -0.116537  -2.9e-05  3.972785  0.0
C  C176  1  0.39749653  0.66465347  0.21826242  1  -0.093319  -0.001427  -0.090975  -0.119014  -0.000888  3.981878  -0.001
C  C177  1  0.44638820  0.17923228  0.78173094  1  -0.021294  -0.00141  -0.090959  -0.119052  -0.000881  3.981883  -0.001
C  C178  1  0.42928166  0.14744578  0.23293648  1  0.03693  0.001418  -0.091591  -0.119738  0.000885  3.982399  0.001
C  C179  1  0.91451203  0.19634761  0.76706564  1  -0.017172  0.001422  -0.091627  -0.119924  0.000887  3.982463  0.001
C  C180  1  0.92815283  0.73523276  0.83234917  1  0.016759  0.000159  -0.011259  0.046416  9.5e-05  4.003709  0.0
C  C181  1  0.90288434  0.09580257  0.16764890  1  -0.003453  0.00057  -0.011323  0.046217  0.000357  4.003883  0.0
C  C182  1  0.98541567  0.65298459  0.30715109  1  -0.018144  -0.000511  -0.010684  0.047191  -0.000322  4.006347  0.0
C  C183  1  0.34583772  0.67826753  0.69284738  1  -0.008407  -0.000214  -0.010686  0.04713  -0.000127  4.006445  0.0
C  C184  1  0.42606336  0.59752438  0.19145169  1  -0.012501  0.000576  -0.011662  0.047048  0.000352  4.006249  0.001
C  C185  1  0.40607272  0.23461210  0.80854477  1  -0.030393  0.000624  -0.01168  0.046999  0.000376  4.006025  0.001
C  C186  1  0.48466049  0.17605796  0.32866040  1  -0.125018  -0.000559  -0.011576  0.047563  -0.00035  4.007265  -0.001
C  C187  1  0.84739930  0.15600266  0.67134121  1  -0.040624  -0.000625  -0.01157  0.047617  -0.000377  4.007096  -0.001
C  C188  1  0.01999942  0.82373654  0.88858261  1  -0.068118  0.000155  -0.08216  -0.09842  0.000113  3.95747  0.0
C  C189  1  0.93515298  0.13141709  0.11141568  1  -0.018638  -0.000136  -0.082145  -0.098371  -7.2e-05  3.957481  0.0
C  C190  1  0.07385374  0.68514695  0.30369675  1  -0.041753  4.9e-05  -0.082525  -0.0992  2.2e-05  3.95803  0.0
C  C191  1  0.38145824  0.77016489  0.69630844  1  -0.055475  -7.1e-05  -0.082636  -0.099428  -6.3e-05  3.958193  0.0
C  C192  1  0.51714204  0.63260335  0.19315344  1  -0.019991  -0.001166  -0.083081  -0.104989  -0.000726  3.957548  -0.001
C  C193  1  0.43945045  0.32399111  0.80684131  1  -0.008825  -0.001157  -0.083094  -0.104989  -0.000704  3.957323  -0.001
C  C194  1  0.57404937  0.26712312  0.38465459  1  0.014601  0.001162  -0.082712  -0.104879  0.000725  3.957742  0.001
C  C195  1  0.88247127  0.18939507  0.61534609  1  0.018777  0.001157  -0.082673  -0.104889  0.000704  3.957836  0.001
C  C196  1  0.08022629  0.85671192  0.85079103  1  -0.025112  0.000281  -0.084553  -0.106616  0.00015  3.95404  0.0
C  C197  1  0.00592167  0.22943653  0.14920816  1  -0.02499  0.000481  -0.084552  -0.106513  0.000275  3.953971  0.0
C  C198  1  0.10681501  0.75588130  0.27640835  1  -0.021836  -0.000413  -0.084716  -0.106627  -0.00023  3.954068  0.0
C  C199  1  0.47948036  0.83041473  0.72359785  1  -0.01087  -0.000343  -0.084641  -0.106443  -0.000193  3.953913  0.0
C  C200  1  0.57725700  0.73063142  0.22021605  1  -0.037996  0.000396  -0.084059  -0.106937  0.000239  3.948483  0.0
C  C201  1  0.51041526  0.35704207  0.77977916  1  -0.040892  0.000451  -0.084037  -0.106849  0.000281  3.94844  0.0
C  C202  1  0.60710389  0.32715685  0.34667137  1  0.028954  -0.000397  -0.084131  -0.10736  -0.000238  3.94894  0.0
C  C203  1  0.98048826  0.26043273  0.65332884  1  -0.030379  -0.00045  -0.084135  -0.107326  -0.000282  3.948948  0.0
C  C204  1  0.86396478  0.70383827  0.87310937  1  -0.013716  0.000762  0.017685  0.118185  0.000493  3.971012  0.001
C  C205  1  0.83072680  0.99085333  0.12688948  1  -0.016227  -0.00078  0.017721  0.118254  -0.000513  3.970953  -0.001
C  C206  1  0.95401018  0.58081280  0.33990351  1  -0.016821  0.000772  0.017484  0.11767  0.000505  3.972915  0.001
C  C207  1  0.24091491  0.61411084  0.66009475  1  -0.023248  -0.000752  0.01749  0.117825  -0.000485  3.972799  -0.001
C  C208  1  0.36118878  0.49264533  0.15874367  1  0.00246  -0.00628  0.015412  0.118861  -0.003902  3.968802  -0.004
C  C209  1  0.33390294  0.20244611  0.84125319  1  -0.008317  -0.006281  0.01536  0.118919  -0.003907  3.968693  -0.004
C  C210  1  0.45243370  0.11120507  0.36864866  1  0.054507  0.006267  0.015363  0.118076  0.003901  3.970315  0.004
C  C211  1  0.74255887  0.08378840  0.63135473  1  -0.017688  0.006284  0.015359  0.118124  0.003904  3.970156  0.004
C  C212  1  0.90180572  0.72895946  0.96947230  1  -0.064115  -0.001625  -0.079729  -0.161256  -0.001045  3.915316  -0.001
C  C213  1  0.75948548  0.93233487  0.03052658  1  -0.053734  0.001752  -0.079776  -0.161286  0.001121  3.915142  0.001
C  C214  1  0.97905193  0.50954488  0.32707796  1  -0.044719  -0.001743  -0.079205  -0.160326  -0.00111  3.915594  -0.001
C  C215  1  0.18247363  0.65197876  0.67292192  1  -0.056416  0.001602  -0.079265  -0.160319  0.001035  3.915628  0.001
C  C216  1  0.39757034  0.43292791  0.17107217  1  -0.071932  0.004798  -0.08102  -0.164987  0.003043  3.913529  0.004
C  C217  1  0.26185889  0.22650128  0.82892500  1  -0.010328  0.004722  -0.081102  -0.165201  0.003048  3.913689  0.004
C  C218  1  0.47648455  0.14757390  0.46473579  1  0.007233  -0.004716  -0.080836  -0.163789  -0.00304  3.913321  -0.004
C  C219  1  0.68283869  0.01175078  0.53526692  1  0.012505  -0.004751  -0.080798  -0.163822  -0.003048  3.913289  -0.004
C  C220  1  0.83906158  0.70460819  0.00700467  1  0.474282  0.000878  0.047502  0.08992  0.000702  3.928918  0.001
C  C221  1  0.69759820  0.83205688  0.99299200  1  0.428816  -0.000907  0.047549  0.08998  -0.000723  3.928812  -0.001
C  C222  1  0.95473766  0.44764613  0.36547579  1  0.442303  0.000912  0.047248  0.089646  0.000719  3.928184  0.001
C  C223  1  0.08217874  0.58926886  0.63452798  1  0.473553  -0.000871  0.047227  0.089419  -0.000698  3.92819  -0.001
C  C224  1  0.33296057  0.33321037  0.13391275  1  0.493173  -0.004883  0.04566  0.096614  -0.002726  3.939122  -0.004
C  C225  1  0.19929609  0.19904650  0.86607881  1  0.422677  -0.004838  0.045784  0.096741  -0.002727  3.93908  -0.004
C  C226  1  0.44898713  0.08295034  0.49982575  1  0.418337  0.004836  0.045194  0.095518  0.002728  3.938302  0.004
C  C227  1  0.58312656  0.94916459  0.50017909  1  0.426092  0.004828  0.045243  0.095599  0.002728  3.938367  0.004
C  C228  1  0.70282751  0.62909531  0.86040153  1  0.410797  -0.001717  0.040128  0.058404  -0.001892  3.949581  -0.001
C  C229  1  0.76868531  0.84242300  0.13959315  1  0.413071  0.001728  0.040176  0.058426  0.001887  3.949606  0.001
C  C230  1  0.87925245  0.51872024  0.42624354  1  0.403612  -0.001737  0.03964  0.05726  -0.001882  3.949985  -0.001
C  C231  1  0.09248113  0.45301339  0.57376055  1  0.410169  0.001751  0.039677  0.057327  0.001887  3.949776  0.001
C  C232  1  0.19891944  0.34603822  0.07424548  1  0.39174  -0.002715  0.040439  0.074884  -0.000884  3.968387  -0.002
C  C233  1  0.27178850  0.12467223  0.92574866  1  0.503512  -0.002836  0.040431  0.074896  -0.000883  3.968368  -0.002
C  C234  1  0.37462034  0.94894425  0.35292864  1  0.511572  0.002851  0.040359  0.074507  0.000876  3.969953  0.002
C  C235  1  0.59601988  0.02169922  0.64707693  1  0.41794  0.002718  0.040346  0.074534  0.000876  3.969788  0.002
C  C236  1  0.76121559  0.65009599  0.81823460  1  0.019588  -0.002998  -0.081064  -0.164829  -0.001847  3.957072  -0.003
C  C237  1  0.83185653  0.94297798  0.18176396  1  -0.010351  0.003124  -0.081076  -0.164886  0.001913  3.957113  0.003
C  C238  1  0.90029423  0.58192305  0.38891479  1  0.018205  -0.00309  -0.081339  -0.164543  -0.001905  3.957779  -0.003
C  C239  1  0.19301163  0.51138393  0.61108414  1  0.025594  0.002965  -0.081319  -0.164534  0.001839  3.957613  0.003
C  C240  1  0.25866579  0.44626830  0.11029522  1  -0.038002  0.00536  -0.083772  -0.174428  0.003433  3.968645  0.004
C  C241  1  0.33597078  0.14836892  0.88970178  1  -0.035112  0.005473  -0.083745  -0.174451  0.003436  3.968496  0.004
C  C242  1  0.39830134  0.00870536  0.31246722  1  -0.079566  -0.005441  -0.083817  -0.174637  -0.003432  3.969895  -0.004
C  C243  1  0.69624170  0.08583955  0.68753605  1  -0.026179  -0.005372  -0.083809  -0.174576  -0.003436  3.969693  -0.004
N  N244  1  0.74100480  0.65754481  0.95411477  1  -1.207768  -0.025881  -0.341417  -0.186922  -0.016294  3.671695  -0.019
N  N245  1  0.70342356  0.78688981  0.04588235  1  -1.173499  0.026041  -0.341489  -0.187019  0.016382  3.671846  0.019
N  N246  1  0.90770564  0.45347082  0.41648912  1  -1.172243  -0.025753  -0.341471  -0.186435  -0.016222  3.671991  -0.019
N  N247  1  0.03698661  0.49122206  0.58351574  1  -1.194499  0.025599  -0.341526  -0.186461  0.016133  3.671942  0.019
N  N248  1  0.23483038  0.28918768  0.08441338  1  -1.219013  0.067399  -0.334298  -0.228439  0.044576  3.622786  0.06
N  N249  1  0.20476995  0.15041594  0.91557812  1  -1.209037  0.0674  -0.334387  -0.228486  0.04458  3.622762  0.06
N  N250  1  0.40036211  0.98483842  0.44569305  1  -1.211759  -0.06748  -0.334228  -0.227908  -0.044617  3.623656  -0.06
N  N251  1  0.53914866  0.95467496  0.55431369  1  -1.228577  -0.067429  -0.334308  -0.228003  -0.044625  3.623549  -0.06
O  O252  1  0.39273415  0.95765416  0.63290261  1  -1.129715  -0.086905  -0.31663  -0.539498  -0.054417  2.189257  -0.077
O  O253  1  0.32475864  0.75983470  0.36710348  1  -1.134391  -0.086781  -0.316613  -0.53946  -0.054414  2.189348  -0.077
O  O254  1  0.20780910  0.07504197  0.06518237  1  -1.135288  0.086792  -0.317436  -0.540375  0.05441  2.189051  0.077
O  O255  1  0.00985758  0.14262469  0.93481498  1  -1.11  0.086782  -0.317461  -0.540382  0.054405  2.189205  0.077
O  O256  1  0.90432829  0.24728716  0.43700596  1  -1.184561  0.013225  -0.3189  -0.559451  0.008072  2.188245  0.01
O  O257  1  0.81028361  0.46732750  0.56299978  1  -1.187081  -0.01331  -0.318963  -0.559517  -0.008111  2.188286  -0.01
O  O258  1  0.71731411  0.65414944  0.15690866  1  -1.191092  0.013564  -0.318815  -0.559526  0.008255  2.187348  0.011
O  O259  1  0.49723634  0.56039783  0.84308563  1  -1.190879  -0.013478  -0.318901  -0.559703  -0.008223  2.187393  -0.01
O  O260  1  0.25653178  0.85873302  0.49406353  1  -1.093921  -0.084221  -0.304846  -0.502151  -0.052806  2.236123  -0.076
O  O261  1  0.36468201  0.76246694  0.50594070  1  -1.094814  -0.08418  -0.304882  -0.502168  -0.052808  2.236136  -0.076
O  O262  1  0.10856264  0.11454824  0.10217381  1  -1.100125  0.084148  -0.304794  -0.502646  0.052794  2.235354  0.076
O  O263  1  0.01236966  0.00638568  0.89781641  1  -1.102245  0.084161  -0.304808  -0.50256  0.052795  2.235457  0.076
O  O264  1  0.77952356  0.27205651  0.40432084  1  -1.07833  0.024916  -0.306732  -0.478342  0.015312  2.273201  0.02
O  O265  1  0.86774047  0.37520896  0.59568783  1  -1.067157  -0.024936  -0.306753  -0.478344  -0.015333  2.273172  -0.02
O  O266  1  0.62502099  0.52924871  0.00739738  1  -1.053483  0.025325  -0.307029  -0.478418  0.015568  2.272469  0.02
O  O267  1  0.52184961  0.61762053  0.99259830  1  -1.074921  -0.025249  -0.307008  -0.47843  -0.015544  2.272446  -0.02
