# generated using pymatgen
data_Co3H35C49(NO3)4
_symmetry_space_group_name_H-M   'P 1'
_cell_length_a   11.61317376
_cell_length_b   14.91877737
_cell_length_c   19.44901825
_cell_angle_alpha   75.32065336
_cell_angle_beta   75.30063970
_cell_angle_gamma   87.53526740
_symmetry_Int_Tables_number   1
_chemical_formula_structural   Co3H35C49(NO3)4
_chemical_formula_sum   'Co6 H70 C98 N8 O24'
_cell_volume   3152.13672107
_cell_formula_units_Z   2
loop_
 _symmetry_equiv_pos_site_id
 _symmetry_equiv_pos_as_xyz
  1  'x, y, z'
loop_
 _atom_site_type_symbol
 _atom_site_label
 _atom_site_symmetry_multiplicity
 _atom_site_fract_x
 _atom_site_fract_y
 _atom_site_fract_z
 _atom_site_occupancy
 _atom_site_pbe_bader_charge
 _atom_site_pbe_bader_spin_density
 _atom_site_pbe_cm5_charge
 _atom_site_pbe_ddec_charge
 _atom_site_pbe_ddec_spin_density
 _atom_site_pbe_ddec_sum_bond_order
 _atom_site_pbe_magmom
Co  Co0  1  0.50000218  0.50000032  0.99999947  1  1.351162  2.631633  0.649916  1.054335  2.849164  2.279071  2.617
Co  Co1  1  0.58460160  0.29502042  0.06322783  1  1.239807  2.575474  0.665733  0.886714  2.761548  2.513345  2.53
Co  Co2  1  0.41540728  0.70497797  0.93677004  1  1.240026  2.575471  0.665605  0.886423  2.761537  2.513542  2.53
Co  Co3  1  0.76753999  0.49830868  0.42446006  1  1.264901  2.614477  0.665386  0.831176  2.841951  2.473922  2.589
Co  Co4  1  0.23245310  0.50169734  0.57553719  1  1.265173  2.614489  0.66526  0.830898  2.841985  2.473735  2.589
Co  Co5  1  0.50000179  0.49999989  0.49999997  1  1.341334  2.601782  0.660851  1.044104  2.824132  2.381862  2.589
H  H6  1  0.79544791  0.68877309  0.31100111  1  0.098067  0.001723  0.115857  0.090303  0.000464  1.00616  0.001
H  H7  1  0.20455649  0.31122391  0.68899720  1  0.098079  0.001724  0.115848  0.090329  0.000464  1.006078  0.001
H  H8  1  0.94993793  0.81313831  0.24944326  1  0.059428  0.001102  0.104375  0.106316  0.000512  1.010678  0.0
H  H9  1  0.05005425  0.18686700  0.75056352  1  0.05943  0.001102  0.10436  0.106223  0.000512  1.010636  0.0
H  H10  1  0.16927353  0.66093150  0.38801434  1  0.150836  0.000857  0.113537  0.134666  0.000408  1.026357  0.0
H  H11  1  0.83072368  0.33906343  0.61198649  1  0.151061  0.000856  0.113585  0.134746  0.000408  1.026205  0.0
H  H12  1  0.00703058  0.54490112  0.44243125  1  0.121513  0.001466  0.117357  0.088417  0.000188  1.035389  0.001
H  H13  1  0.99295953  0.45509452  0.55756640  1  0.121551  0.001467  0.117329  0.088432  0.000188  1.035361  0.001
H  H14  1  0.12032278  0.85023108  0.17019926  1  0.061858  0.00013  0.104038  0.102523  5.6e-05  1.000043  0.0
H  H15  1  0.87967627  0.14976593  0.82980346  1  0.061781  0.00013  0.103999  0.102464  5.6e-05  1.000033  0.0
H  H16  1  0.28071907  0.96700581  0.10524774  1  0.057548  6e-06  0.098863  0.09456  1e-06  1.025441  0.0
H  H17  1  0.71927723  0.03298842  0.89475387  1  0.057533  6e-06  0.098888  0.094528  1e-06  1.025407  0.0
H  H18  1  0.41994752  0.90957650  0.29663064  1  0.044277  0.000114  0.103738  0.100996  6.5e-05  1.002376  0.0
H  H19  1  0.58006363  0.09040873  0.70336325  1  0.044563  0.000114  0.103789  0.101008  6.5e-05  1.002218  0.0
H  H20  1  0.25585023  0.79610572  0.36411368  1  0.152522  0.000195  0.104436  0.117807  0.000111  1.052906  0.0
H  H21  1  0.74416724  0.20388228  0.63588129  1  0.152496  0.000195  0.104461  0.117823  0.000111  1.052698  0.0
H  H22  1  0.48895613  0.87714742  0.05130280  1  0.093265  3.5e-05  0.091264  0.131834  -4.5e-05  1.028315  0.0
H  H23  1  0.51103436  0.12286067  0.94869907  1  0.093248  3.5e-05  0.09129  0.131904  -4.5e-05  1.028358  0.0
H  H24  1  0.63053609  0.82677244  0.03299911  1  0.04893  6.2e-05  0.096546  0.137781  -2.6e-05  0.988694  0.0
H  H25  1  0.36945437  0.17323497  0.96699981  1  0.04872  6.2e-05  0.096532  0.137847  -2.7e-05  0.9886  0.0
H  H26  1  0.61329975  0.94497150  0.98960178  1  0.021305  1.7e-05  0.0849  0.109293  -2e-06  1.045451  0.0
H  H27  1  0.38668984  0.05503660  0.01039920  1  0.021381  1.7e-05  0.084892  0.109258  -2e-06  1.045533  0.0
H  H28  1  0.57916452  0.86568666  0.15626008  1  0.092751  0.000146  0.114005  0.09275  5.2e-05  0.979424  0.0
H  H29  1  0.42083192  0.13431243  0.84374005  1  0.09254  0.000146  0.113991  0.092708  5.2e-05  0.979482  0.0
H  H30  1  0.71088750  0.92438298  0.09685895  1  0.026129  -1e-05  0.113708  0.084984  -1.9e-05  0.954389  0.0
H  H31  1  0.28911151  0.07561264  0.90314147  1  0.026133  -1e-05  0.113685  0.084966  -1.9e-05  0.954375  0.0
H  H32  1  0.70423027  0.10295469  0.04304488  1  0.15895  0.000413  0.146507  0.116262  -0.000169  0.967653  0.0
H  H33  1  0.29579100  0.89704088  0.95696913  1  0.158643  0.000413  0.146415  0.116098  -0.000169  0.967931  0.0
H  H34  1  0.33831244  0.27452290  0.08636659  1  0.114655  0.001606  0.103425  0.109033  0.000654  1.028763  0.0
H  H35  1  0.66169952  0.72548863  0.91364422  1  0.114636  0.001603  0.103444  0.109127  0.000654  1.028718  0.0
H  H36  1  0.18082974  0.36038927  0.15040703  1  0.084375  8.9e-05  0.104338  0.104641  -1.1e-05  1.015078  0.0
H  H37  1  0.81918323  0.63962642  0.84960025  1  0.084579  8.9e-05  0.10441  0.10464  -1.1e-05  1.015178  0.0
H  H38  1  0.15732015  0.15117510  0.35310136  1  0.096554  7.1e-05  0.103964  0.10254  3.4e-05  1.001726  0.0
H  H39  1  0.84267631  0.84882467  0.64690327  1  0.096701  7.1e-05  0.104034  0.102633  3.4e-05  1.001753  0.0
H  H40  1  0.32035619  0.06819774  0.28962299  1  0.064665  -4e-06  0.099991  0.099821  -1.4e-05  1.020441  0.0
H  H41  1  0.67963231  0.93180343  0.71038103  1  0.06461  -4e-06  0.09993  0.09966  -1.4e-05  1.020495  0.0
H  H42  1  0.99605823  0.38528407  0.20276355  1  0.04548  0.000872  0.107876  0.114164  0.000422  1.009105  0.0
H  H43  1  0.00391409  0.61471225  0.79724490  1  0.04551  0.000871  0.107877  0.114174  0.000422  1.009146  0.0
H  H44  1  0.84851930  0.47489157  0.27410314  1  0.112013  0.001558  0.117872  0.092273  0.000261  1.027933  0.001
H  H45  1  0.15145736  0.52510058  0.72591316  1  0.112044  0.001559  0.117917  0.092311  0.000261  1.027848  0.001
H  H46  1  0.94781329  0.35477531  0.46593524  1  0.101398  0.002099  0.120351  0.095543  0.000799  1.005267  0.002
H  H47  1  0.05218093  0.64523832  0.53407065  1  0.101481  0.0021  0.120391  0.095475  0.0008  1.005377  0.002
H  H48  1  0.10717806  0.26641821  0.40229862  1  0.07315  0.001008  0.110621  0.116944  0.000461  0.995519  0.0
H  H49  1  0.89281678  0.73358640  0.59771663  1  0.073127  0.001008  0.110612  0.116842  0.000461  0.995597  0.0
H  H50  1  0.64963411  0.27533303  0.81047762  1  0.112162  0.000487  0.098855  0.100162  0.000288  1.039747  0.0
H  H51  1  0.35035968  0.72466674  0.18952741  1  0.112534  0.000486  0.098845  0.100144  0.000288  1.039549  0.0
H  H52  1  0.59095636  0.32519276  0.69094587  1  0.056885  0.000205  0.104179  0.110204  3.9e-05  1.019053  0.0
H  H53  1  0.40905250  0.67480493  0.30905728  1  0.056611  0.000205  0.104224  0.110262  3.9e-05  1.018966  0.0
H  H54  1  0.28599731  0.45963833  0.79481512  1  0.067599  0.000208  0.104182  0.106855  5.6e-05  1.006029  0.0
H  H55  1  0.71401861  0.54035728  0.20518222  1  0.067549  0.000208  0.104154  0.106862  5.6e-05  1.006011  0.0
H  H56  1  0.35017408  0.41739083  0.91212775  1  0.120067  0.000311  0.103598  0.114387  -7.1e-05  1.041261  0.0
H  H57  1  0.64982919  0.58259856  0.08786808  1  0.120038  0.000312  0.103605  0.114418  -7e-05  1.041247  0.0
H  H58  1  0.95860767  0.33011297  0.03625815  1  0.104215  0.000616  0.103318  0.109561  0.000262  1.000949  0.0
H  H59  1  0.04136701  0.66990279  0.96373178  1  0.103925  0.000616  0.103266  0.109545  0.000262  1.001137  0.0
H  H60  1  0.83595166  0.60804171  0.97934054  1  0.085823  0.00034  0.103619  0.109173  0.000107  1.010832  0.0
H  H61  1  0.16402286  0.39196848  0.02065872  1  0.085919  0.00034  0.103701  0.109309  0.000107  1.010708  0.0
H  H62  1  0.72983153  0.49915950  0.78900873  1  0.09861  0.000234  0.107726  0.114559  3.3e-05  0.987225  0.0
H  H63  1  0.27016651  0.50083336  0.21099031  1  0.098854  0.000234  0.107688  0.114555  3.3e-05  0.987251  0.0
H  H64  1  0.80927934  0.48232525  0.66068477  1  0.086069  0.000414  0.099985  0.098146  0.000131  1.043255  0.0
H  H65  1  0.19071587  0.51766276  0.33931152  1  0.086324  0.000414  0.099977  0.098149  0.000131  1.043253  0.0
H  H66  1  0.53168539  0.65485976  0.59290456  1  0.101659  0.000431  0.106794  0.114661  0.000107  1.015839  0.0
H  H67  1  0.46830991  0.34513102  0.40709067  1  0.101211  0.000431  0.106818  0.114709  0.000107  1.015844  0.0
H  H68  1  0.45924357  0.67832896  0.71995676  1  0.100553  0.00037  0.106083  0.113591  6.1e-05  0.990762  0.0
H  H69  1  0.54075289  0.32167084  0.28003758  1  0.101147  0.00037  0.10611  0.113645  6.1e-05  0.9908  0.0
H  H70  1  0.54236789  0.20832220  0.50910934  1  0.032561  0.000205  0.09706  0.148402  4e-05  0.985257  0.0
H  H71  1  0.45763581  0.79168175  0.49088207  1  0.032827  0.000205  0.097063  0.148459  4e-05  0.985307  0.0
H  H72  1  0.45152641  0.29277337  0.54623138  1  0.087576  0.00018  0.094801  0.161171  -0.00024  1.030321  0.0
H  H73  1  0.54848223  0.70724652  0.45375671  1  0.087335  0.00018  0.094795  0.161154  -0.00024  1.030475  0.0
H  H74  1  0.53489064  0.21303697  0.60037721  1  0.013008  0.001232  0.089826  0.139684  0.000471  1.015745  0.0
H  H75  1  0.46512504  0.78698013  0.39961755  1  0.012844  0.001232  0.089812  0.139663  0.000471  1.015735  0.0
C  C76  1  0.87980829  0.68580706  0.32618166  1  0.464566  -0.005897  0.042429  0.09584  -0.006588  3.969662  -0.003
C  C77  1  0.12019000  0.31419411  0.67382088  1  0.46523  -0.005893  0.042519  0.095938  -0.006585  3.969671  -0.003
C  C78  1  0.96749628  0.75425554  0.29150479  1  -0.03726  0.005578  -0.091331  -0.18896  0.002614  3.9809  0.004
C  C79  1  0.03249939  0.24574771  0.70849620  1  -0.03753  0.005576  -0.091364  -0.188932  0.002613  3.981003  0.004
C  C80  1  0.07658761  0.74751112  0.31113326  1  -0.004299  -0.010887  0.011322  0.11041  -0.011803  3.981726  -0.007
C  C81  1  0.92341502  0.25248658  0.68886620  1  -0.005789  -0.010877  0.011284  0.110387  -0.011792  3.981734  -0.007
C  C82  1  0.08885756  0.67118300  0.36806421  1  -0.065021  0.00565  -0.080703  -0.167609  0.002703  3.901989  0.004
C  C83  1  0.91113963  0.32881124  0.63193727  1  -0.065298  0.005649  -0.080701  -0.167725  0.002702  3.902025  0.004
C  C84  1  0.99689004  0.60553058  0.39966299  1  0.499642  -0.007785  0.042835  0.091017  -0.008924  3.950604  -0.005
C  C85  1  0.00310369  0.39446712  0.60033988  1  0.499584  -0.00778  0.042898  0.091048  -0.008919  3.9508  -0.005
C  C86  1  0.17446726  0.81585383  0.27234707  1  -0.011623  0.001193  -0.000455  0.067467  0.000313  3.978265  0.001
C  C87  1  0.82553527  0.18414040  0.72765256  1  -0.009997  0.001193  -0.000525  0.067493  0.000313  3.978108  0.001
C  C88  1  0.18387526  0.86451143  0.19900845  1  0.022432  -0.002486  -0.084065  -0.115279  -0.002691  3.980689  -0.002
C  C89  1  0.81612994  0.13548280  0.80098924  1  0.022547  -0.002484  -0.084024  -0.11526  -0.002689  3.980743  -0.002
C  C90  1  0.27556359  0.92907236  0.16180006  1  -0.080237  0.001269  -0.086035  -0.118245  0.000544  3.995772  0.001
C  C91  1  0.72443375  0.07092673  0.83819943  1  -0.080462  0.001268  -0.086047  -0.118239  0.000544  3.995783  0.001
C  C92  1  0.36173619  0.94639278  0.19627758  1  0.031523  -0.002382  -0.007975  0.051689  -0.002623  4.056974  -0.001
C  C93  1  0.63827009  0.05360769  0.80371977  1  0.031765  -0.002379  -0.007994  0.051747  -0.00262  4.056981  -0.001
C  C94  1  0.35394469  0.89641334  0.26894712  1  -0.065203  0.001348  -0.086386  -0.127046  0.000614  4.003477  0.001
C  C95  1  0.64606403  0.10357952  0.73104825  1  -0.065512  0.001348  -0.086428  -0.127079  0.000614  4.003321  0.001
C  C96  1  0.26136261  0.83242944  0.30688918  1  -0.07662  -0.002124  -0.080834  -0.11405  -0.002317  3.929507  -0.001
C  C97  1  0.73865128  0.16755787  0.69310648  1  -0.076636  -0.002122  -0.080756  -0.11398  -0.002315  3.92918  -0.001
C  C98  1  0.45205829  0.02054724  0.15699584  1  0.32702  0.002947  0.087467  0.00908  0.001385  3.94454  0.002
C  C99  1  0.54794625  0.97945461  0.84300459  1  0.32692  0.002946  0.087435  0.009136  0.001384  3.944552  0.002
C  C100  1  0.58470730  0.89070529  0.04078216  1  -0.088943  9.6e-05  -0.245861  -0.386701  -3.1e-05  3.926594  0.0
C  C101  1  0.41528851  0.10930211  0.95921955  1  -0.088908  9.6e-05  -0.245882  -0.386817  -3.1e-05  3.926643  0.0
C  C102  1  0.61421819  0.91816285  0.10470601  1  0.314267  0.00079  -0.047608  -0.004853  0.000482  3.909485  0.001
C  C103  1  0.38578275  0.08183762  0.89529523  1  0.314374  0.00079  -0.047569  -0.004706  0.000482  3.909476  0.001
C  C104  1  0.61641598  0.09199407  0.08055836  1  0.950011  -0.001158  0.145656  0.09213  -0.002101  3.94869  0.0
C  C105  1  0.38360175  0.90800221  0.91945297  1  0.950753  -0.001166  0.145754  0.092417  -0.002105  3.948677  0.0
C  C106  1  0.44161499  0.11561441  0.14784678  1  0.409981  0.001648  0.088409  0.084923  0.000637  4.011851  0.002
C  C107  1  0.55839498  0.88439020  0.85216001  1  0.409562  0.001645  0.088323  0.084868  0.000636  4.012018  0.002
C  C108  1  0.34168074  0.16499202  0.18341129  1  -0.01609  -0.001563  -0.007726  0.058576  -0.001888  4.029749  -0.001
C  C109  1  0.65833573  0.83502159  0.81659740  1  -0.015456  -0.00156  -0.007683  0.058585  -0.001886  4.029825  -0.001
C  C110  1  0.29858778  0.24666620  0.14487298  1  -0.039384  0.002515  -0.08938  -0.123628  0.001438  3.9682  0.001
C  C111  1  0.70141961  0.75334117  0.85513881  1  -0.040129  0.002513  -0.08948  -0.12391  0.001437  3.968257  0.001
C  C112  1  0.20804962  0.29480496  0.18117246  1  -0.06275  -0.001552  -0.084045  -0.1105  -0.001832  3.959554  -0.001
C  C113  1  0.79195787  0.70520587  0.81884018  1  -0.062177  -0.001549  -0.084082  -0.110414  -0.001829  3.959252  -0.001
C  C114  1  0.15648676  0.26257766  0.25691911  1  0.017157  0.001173  -0.009445  0.050963  0.000228  4.008665  0.001
C  C115  1  0.84352154  0.73743041  0.74308983  1  0.017233  0.001172  -0.009297  0.051246  0.000228  4.008151  0.001
C  C116  1  0.19717753  0.17909040  0.29468485  1  -0.156896  -0.002089  -0.085874  -0.116504  -0.002235  3.984339  -0.001
C  C117  1  0.80282801  0.82091490  0.70532454  1  -0.157629  -0.002088  -0.086195  -0.116985  -0.002233  3.984584  -0.001
C  C118  1  0.28826861  0.13141606  0.25873256  1  0.032561  0.000722  -0.088832  -0.115712  0.000217  3.981349  0.001
C  C119  1  0.71173799  0.86859478  0.74127353  1  0.033127  0.000721  -0.088659  -0.115293  0.000217  3.981227  0.001
C  C120  1  0.06519211  0.31578206  0.29636549  1  -0.029826  -0.013682  0.011884  0.109719  -0.014787  3.999365  -0.009
C  C121  1  0.93480550  0.68422601  0.70364507  1  -0.03025  -0.013669  0.011882  0.109519  -0.014774  3.999741  -0.009
C  C122  1  0.99059982  0.37684899  0.26084946  1  0.035676  0.006118  -0.086858  -0.179186  0.002815  3.954629  0.005
C  C123  1  0.00938953  0.62315078  0.73915934  1  0.035319  0.006115  -0.086982  -0.179302  0.002814  3.954974  0.005
C  C124  1  0.90722170  0.42666021  0.30008596  1  0.452912  -0.009629  0.041939  0.092077  -0.010833  3.946457  -0.006
C  C125  1  0.09276678  0.57334024  0.69992592  1  0.453669  -0.00962  0.041962  0.092123  -0.010823  3.947101  -0.006
C  C126  1  0.96304991  0.36038363  0.40739814  1  0.485282  -0.007811  0.049778  0.103133  -0.008401  3.945774  -0.005
C  C127  1  0.03694229  0.63962237  0.59261056  1  0.485458  -0.007804  0.049534  0.102935  -0.008392  3.94619  -0.005
C  C128  1  0.04973619  0.30941990  0.37153330  1  -0.006095  0.007064  -0.082788  -0.173868  0.003244  3.947596  0.006
C  C129  1  0.95026399  0.69058470  0.62847858  1  -0.005929  0.00706  -0.082654  -0.173472  0.003242  3.947834  0.006
C  C130  1  0.54751039  0.32075111  0.93528498  1  1.511469  0.003649  0.209538  0.572652  0.002036  4.145306  0.002
C  C131  1  0.45249764  0.67924867  0.06471430  1  1.510673  0.003653  0.209606  0.572837  0.002037  4.144577  0.002
C  C132  1  0.50397609  0.34400147  0.86780140  1  -0.049028  -0.000397  -0.01431  -0.028649  -0.001137  3.976456  0.0
C  C133  1  0.49601846  0.65599416  0.13219763  1  -0.049028  -0.000404  -0.014259  -0.028591  -0.001143  3.976499  0.0
C  C134  1  0.57019125  0.31564174  0.80620287  1  -0.05497  0.002376  -0.085063  -0.093853  0.001143  3.971015  0.002
C  C135  1  0.42981130  0.68435320  0.19379457  1  -0.055235  0.002377  -0.085129  -0.093829  0.001142  3.970881  0.002
C  C136  1  0.53721225  0.34255792  0.74027873  1  0.034241  -0.000592  -0.08732  -0.104849  -0.001186  3.988815  0.0
C  C137  1  0.46279038  0.65743978  0.25971919  1  0.034582  -0.000596  -0.087224  -0.104796  -0.001189  3.988497  0.0
C  C138  1  0.43534746  0.39534137  0.73583795  1  -0.084685  0.010444  -0.012765  -0.026361  0.005461  3.971245  0.008
C  C139  1  0.56465871  0.60465564  0.26416009  1  -0.084708  0.010443  -0.012871  -0.026453  0.00546  3.971127  0.008
C  C140  1  0.36538380  0.41903467  0.79868342  1  0.058937  -0.001086  -0.086796  -0.099815  -0.001448  3.977188  -0.001
C  C141  1  0.63462418  0.58096302  0.20131473  1  0.05925  -0.001088  -0.086756  -0.099755  -0.001451  3.976951  -0.001
C  C142  1  0.40023511  0.39481015  0.86419559  1  -0.114708  0.002725  -0.086168  -0.09698  0.001197  3.958304  0.002
C  C143  1  0.59976565  0.60518478  0.13580212  1  -0.114905  0.002728  -0.086179  -0.097104  0.001199  3.95822  0.002
C  C144  1  0.40601311  0.42953669  0.66328339  1  1.576075  -0.003781  0.220701  0.583526  -0.004622  4.163041  -0.003
C  C145  1  0.59400209  0.57046448  0.33670835  1  1.575881  -0.00379  0.220666  0.583536  -0.004633  4.162662  -0.003
C  C146  1  0.76215410  0.42864476  0.01851167  1  1.532056  -0.004638  0.216088  0.586955  -0.005246  4.153503  -0.003
C  C147  1  0.23784507  0.57135643  0.98147788  1  1.532277  -0.004644  0.216008  0.586707  -0.005248  4.153459  -0.003
C  C148  1  0.88503632  0.46545786  0.00858605  1  -0.030102  0.006945  -0.015499  -0.024632  0.003443  3.959753  0.006
C  C149  1  0.11494987  0.53455581  0.99140203  1  -0.029817  0.006947  -0.015478  -0.024243  0.003444  3.958941  0.006
C  C150  1  0.97765292  0.40443942  0.02038741  1  -0.083006  2.1e-05  -0.086529  -0.098783  -0.000565  3.982966  0.0
C  C151  1  0.02233329  0.59557494  0.97960362  1  -0.082648  2e-05  -0.086378  -0.098945  -0.000566  3.982882  0.0
C  C152  1  0.90856665  0.56131780  0.98813598  1  -0.024757  -0.00049  -0.088436  -0.108351  -0.001023  3.994009  0.0
C  C153  1  0.09141512  0.43869656  0.01185572  1  -0.024377  -0.000489  -0.088422  -0.108721  -0.001023  3.993772  0.0
C  C154  1  0.54052825  0.59732209  0.83857855  1  1.54758  -0.000883  0.218163  0.584609  -0.001218  4.175377  -0.001
C  C155  1  0.45947678  0.40266660  0.16142024  1  1.548134  -0.000889  0.218247  0.584801  -0.001224  4.175044  -0.001
C  C156  1  0.58977721  0.58924330  0.76179669  1  -0.004568  0.01036  -0.01105  -0.019937  0.005402  3.952609  0.008
C  C157  1  0.41021614  0.41074193  0.23820402  1  -0.005298  0.010359  -0.011112  -0.020165  0.005401  3.95275  0.008
C  C158  1  0.68895203  0.53455635  0.74518618  1  -0.046299  -0.00054  -0.081387  -0.090329  -0.001061  3.96741  0.0
C  C159  1  0.31104138  0.46543097  0.25481361  1  -0.045672  -0.000541  -0.081248  -0.090234  -0.001061  3.967197  0.0
C  C160  1  0.73272049  0.52511881  0.67398518  1  -0.040538  0.002727  -0.082755  -0.091252  0.001284  3.968974  0.002
C  C161  1  0.26727289  0.47486713  0.32601282  1  -0.031115  0.002716  -0.082788  -0.091295  0.001282  3.969043  0.002
C  C162  1  0.67535590  0.56761908  0.61915056  1  0.012308  0.00091  -0.017044  -0.032577  -3.5e-05  3.97876  0.001
C  C163  1  0.32462584  0.43236477  0.38085167  1  0.002275  0.000919  -0.017086  -0.032446  -3.5e-05  3.97877  0.001
C  C164  1  0.57695735  0.62363470  0.63554436  1  0.025353  0.002489  -0.083249  -0.090931  0.001142  3.958345  0.002
C  C165  1  0.42303081  0.37635538  0.36445723  1  0.02634  0.002486  -0.083351  -0.091169  0.00114  3.958191  0.002
C  C166  1  0.53570320  0.63547557  0.70614259  1  -0.121  -0.000417  -0.084392  -0.097163  -0.000975  3.964089  0.0
C  C167  1  0.46428489  0.36451244  0.29385839  1  -0.122098  -0.000417  -0.084346  -0.097091  -0.000975  3.964037  0.0
C  C168  1  0.71213729  0.54788764  0.54590783  1  1.509501  0.005875  0.21299  0.575383  0.003398  4.13399  0.003
C  C169  1  0.28784853  0.45211355  0.45408786  1  1.509645  0.005865  0.212954  0.575543  0.003389  4.13389  0.003
C  C170  1  0.64289647  0.32046527  0.51625775  1  1.555773  0.003125  0.212719  0.703353  0.002056  4.093275  0.002
C  C171  1  0.35711160  0.67953592  0.48372530  1  1.555814  0.003121  0.212519  0.702949  0.002056  4.093721  0.002
C  C172  1  0.53489118  0.25544714  0.54532877  1  -0.050617  0.004574  -0.249907  -0.527121  0.002347  3.900344  0.003
C  C173  1  0.46511623  0.74456166  0.45466217  1  -0.050519  0.004576  -0.249905  -0.527089  0.002348  3.900314  0.003
N  N174  1  0.56398407  0.00726355  0.11451849  1  -1.20713  0.002589  -0.236038  -0.001088  0.001094  3.750787  0.002
N  N175  1  0.43602488  0.99273691  0.88548668  1  -1.206777  0.002587  -0.236008  -0.001337  0.001093  3.750925  0.002
N  N176  1  0.54527079  0.15887727  0.09947156  1  -1.20363  0.059022  -0.353082  -0.344382  0.031313  3.625078  0.038
N  N177  1  0.45475237  0.84112177  0.90054305  1  -1.204243  0.059031  -0.353034  -0.34431  0.031308  3.624841  0.038
N  N178  1  0.89194431  0.41863642  0.37259955  1  -1.238429  0.064523  -0.330956  -0.247352  0.03414  3.599428  0.054
N  N179  1  0.10803906  0.58137165  0.62741574  1  -1.239279  0.06451  -0.33064  -0.24705  0.034129  3.599685  0.054
N  N180  1  0.89392055  0.61111533  0.37904620  1  -1.229161  0.060447  -0.325142  -0.248421  0.031568  3.57281  0.054
N  N181  1  0.10606860  0.38887821  0.62095663  1  -1.229566  0.060443  -0.325164  -0.248435  0.031567  3.573239  0.054
O  O182  1  0.49600129  0.35870618  0.98958767  1  -1.149479  0.129925  -0.32437  -0.606132  0.068935  2.49959  0.105
O  O183  1  0.50403059  0.64128736  0.01040405  1  -1.148906  0.12995  -0.324322  -0.606187  0.068945  2.498787  0.105
O  O184  1  0.62891934  0.26432044  0.94345146  1  -1.147038  0.06469  -0.298805  -0.522854  0.031881  2.151824  0.056
O  O185  1  0.37108944  0.73567450  0.05654246  1  -1.146818  0.064678  -0.298787  -0.522874  0.031875  2.15179  0.056
O  O186  1  0.29846058  0.45364309  0.66421754  1  -1.158123  0.077969  -0.307567  -0.552243  0.040188  2.420132  0.064
O  O187  1  0.70155879  0.54634908  0.33576811  1  -1.158508  0.077978  -0.307564  -0.552351  0.040194  2.420187  0.064
O  O188  1  0.48951546  0.43204738  0.60631773  1  -1.159835  0.060064  -0.296542  -0.546722  0.030892  2.417221  0.054
O  O189  1  0.51049370  0.56796001  0.39368453  1  -1.159497  0.060084  -0.296489  -0.546685  0.030904  2.416816  0.054
O  O190  1  0.57240823  0.53859911  0.88998815  1  -1.160807  0.059913  -0.306233  -0.569288  0.0309  2.398781  0.05
O  O191  1  0.42760953  0.46139859  0.11000542  1  -1.161024  0.059928  -0.306295  -0.569314  0.03091  2.3985  0.05
O  O192  1  0.46972471  0.66418712  0.84664490  1  -1.150073  0.094046  -0.31647  -0.551488  0.048172  2.40511  0.075
O  O193  1  0.53027125  0.33579604  0.15335530  1  -1.150326  0.094051  -0.316463  -0.551606  0.048177  2.405358  0.075
O  O194  1  0.64638549  0.57586943  0.49989734  1  -1.175658  0.105199  -0.318537  -0.597945  0.055702  2.429854  0.087
O  O195  1  0.35360462  0.42415601  0.50009506  1  -1.175345  0.105206  -0.318457  -0.598001  0.055705  2.43041  0.087
O  O196  1  0.80515712  0.50285550  0.52719330  1  -1.144455  0.091928  -0.288051  -0.512251  0.047515  2.260609  0.077
O  O197  1  0.19481563  0.49712559  0.47281237  1  -1.144975  0.091927  -0.287973  -0.512254  0.04751  2.260354  0.077
O  O198  1  0.67972967  0.48604003  0.00997867  1  -1.165501  0.063268  -0.302569  -0.571005  0.032969  2.35081  0.055
O  O199  1  0.32024872  0.51395072  0.99004021  1  -1.165412  0.063242  -0.302526  -0.570915  0.032957  2.350654  0.055
O  O200  1  0.74919629  0.33995860  0.03612921  1  -1.118043  0.094677  -0.322519  -0.542959  0.047582  2.341813  0.076
O  O201  1  0.25081624  0.66004332  0.96383966  1  -1.118218  0.094679  -0.322376  -0.542747  0.047577  2.341871  0.076
O  O202  1  0.62858749  0.40159140  0.47319668  1  -1.169955  0.114625  -0.334181  -0.62914  0.061642  2.471017  0.098
O  O203  1  0.37141029  0.59842296  0.52679156  1  -1.16996  0.114585  -0.334053  -0.628856  0.061619  2.471263  0.098
O  O204  1  0.73950197  0.29557146  0.53058395  1  -1.182365  0.019211  -0.31634  -0.557597  0.009298  2.122307  0.016
O  O205  1  0.26051389  0.70442283  0.46938229  1  -1.182369  0.019213  -0.316316  -0.557496  0.0093  2.122474  0.016
