# generated using pymatgen
data_ZnH17C16N4ClO2
_symmetry_space_group_name_H-M   'P 1'
_cell_length_a   7.28049512
_cell_length_b   8.30913531
_cell_length_c   13.73226382
_cell_angle_alpha   90.00059518
_cell_angle_beta   90.00061791
_cell_angle_gamma   92.26755045
_symmetry_Int_Tables_number   1
_chemical_formula_structural   ZnH17C16N4ClO2
_chemical_formula_sum   'Zn2 H34 C32 N8 Cl2 O4'
_cell_volume   830.07757850
_cell_formula_units_Z   2
loop_
 _symmetry_equiv_pos_site_id
 _symmetry_equiv_pos_as_xyz
  1  'x, y, z'
loop_
 _atom_site_type_symbol
 _atom_site_label
 _atom_site_symmetry_multiplicity
 _atom_site_fract_x
 _atom_site_fract_y
 _atom_site_fract_z
 _atom_site_occupancy
 _atom_site_hle17_bader_spin_density
 _atom_site_hle17_ddec_charge
 _atom_site_hle17_ddec_spin_density
 _atom_site_hle17_ddec_sum_bond_order
 _atom_site_hle17_magmom
 _atom_site_hse06_10hf_bader_spin_density
 _atom_site_hse06_10hf_ddec_charge
 _atom_site_hse06_10hf_ddec_spin_density
 _atom_site_hse06_10hf_ddec_sum_bond_order
 _atom_site_hse06_10hf_magmom
 _atom_site_hse06_bader_spin_density
 _atom_site_hse06_ddec_charge
 _atom_site_hse06_ddec_spin_density
 _atom_site_hse06_ddec_sum_bond_order
 _atom_site_hse06_magmom
 _atom_site_pbe_bader_spin_density
 _atom_site_pbe_cm5_charge
 _atom_site_pbe_ddec_charge
 _atom_site_pbe_ddec_spin_density
 _atom_site_pbe_ddec_sum_bond_order
 _atom_site_pbe_magmom
Zn  Zn0  1  0.19659536  0.02010932  0.75000151  1  0  0.918865  0  2.04851  0  0  0.738397  0  2.5394  0  0  0.780779  0  2.487411  0  0  0.624456  0.709044  0  2.574942  0
Zn  Zn1  1  0.80340042  0.97988305  0.25000064  1  0  0.918761  0  2.048577  0  0  0.738352  0  2.539457  0  0  0.780733  0  2.487467  0  0  0.624427  0.709004  0  2.574993  0
H  H2  1  0.79610331  0.00594663  0.85208539  1  0  0.110632  0  0.95398  0  0  0.116693  0  1.023034  0  0  0.119599  0  1.019256  0  0  0.131621  0.114542  0  1.025706  0
H  H3  1  0.20390036  0.99405603  0.35208848  1  0  0.110623  0  0.953967  0  0  0.11668  0  1.023034  0  0  0.119587  0  1.019256  0  0  0.131602  0.114532  0  1.025702  0
H  H4  1  0.20389721  0.99406868  0.14791020  1  0  0.110629  0  0.954025  0  0  0.116727  0  1.023047  0  0  0.119635  0  1.01927  0  0  0.131641  0.114575  0  1.025719  0
H  H5  1  0.79608881  0.00594587  0.64791439  1  0  0.110548  0  0.95396  0  0  0.116703  0  1.022925  0  0  0.119612  0  1.019144  0  0  0.131615  0.114554  0  1.025598  0
H  H6  1  0.28581791  0.26490290  0.92823318  1  0  0.096024  0  1.004489  0  0  0.102854  0  1.069758  0  0  0.104257  0  1.071221  0  0  0.109882  0.10181  0  1.068862  0
H  H7  1  0.71418999  0.73509632  0.42822804  1  0  0.096076  0  1.004501  0  0  0.102915  0  1.069753  0  0  0.104319  0  1.071212  0  0  0.109907  0.101875  0  1.068854  0
H  H8  1  0.71419295  0.73508848  0.07177479  1  0  0.096033  0  1.004487  0  0  0.102878  0  1.069755  0  0  0.104272  0  1.071238  0  0  0.109913  0.101839  0  1.068845  0
H  H9  1  0.28580991  0.26489611  0.57177338  1  0  0.096073  0  1.004383  0  0  0.102869  0  1.069692  0  0  0.104274  0  1.071151  0  0  0.109892  0.101822  0  1.0688  0
H  H10  1  0.00717964  0.35272415  0.05398716  1  0  0.119223  0  0.961511  0  0  0.131421  0  1.019949  0  0  0.133255  0  1.020281  0  0  0.125041  0.130035  0  1.019896  0
H  H11  1  0.99282637  0.64728907  0.55398713  1  0  0.119224  0  0.961599  0  0  0.131395  0  1.020055  0  0  0.133231  0  1.020387  0  0  0.125046  0.130015  0  1.019993  0
H  H12  1  0.99282854  0.64726960  0.94601718  1  0  0.119299  0  0.961484  0  0  0.131494  0  1.019926  0  0  0.133323  0  1.020255  0  0  0.125071  0.13011  0  1.019872  0
H  H13  1  0.00717005  0.35272738  0.44601720  1  0  0.119248  0  0.961486  0  0  0.131437  0  1.019944  0  0  0.133264  0  1.020275  0  0  0.125047  0.130054  0  1.019891  0
H  H14  1  0.67692085  0.14912469  0.08660211  1  0  0.088032  0  0.953382  0  0  0.098395  0  1.027198  0  0  0.100044  0  1.025173  0  0  0.109451  0.097116  0  1.028791  0
H  H15  1  0.32307987  0.85087095  0.58660832  1  0  0.088052  0  0.953489  0  0  0.098333  0  1.027296  0  0  0.099978  0  1.025272  0  0  0.109424  0.097055  0  1.028894  0
H  H16  1  0.32307634  0.85086890  0.91339421  1  0  0.088068  0  0.953336  0  0  0.098393  0  1.027163  0  0  0.100037  0  1.025144  0  0  0.109441  0.097115  0  1.028756  0
H  H17  1  0.67691453  0.14912139  0.41339455  1  0  0.088039  0  0.953365  0  0  0.098379  0  1.027189  0  0  0.100023  0  1.025167  0  0  0.109446  0.097101  0  1.028788  0
H  H18  1  0.57906585  0.10116299  0.97048653  1  0  0.083755  0  0.935957  0  0  0.099854  0  0.99991  0  0  0.100406  0  0.999678  0  0  0.11306  0.099383  0  1.000184  0
H  H19  1  0.42093499  0.89884769  0.47049971  1  0  0.08374  0  0.936021  0  0  0.099823  0  0.999868  0  0  0.100354  0  0.999654  0  0  0.113037  0.099354  0  1.000142  0
H  H20  1  0.42093591  0.89884752  0.02950323  1  0  0.083737  0  0.935944  0  0  0.099815  0  0.999884  0  0  0.100377  0  0.999637  0  0  0.113056  0.099343  0  1.000162  0
H  H21  1  0.57905593  0.10116869  0.52950899  1  0  0.083787  0  0.935993  0  0  0.099859  0  0.999932  0  0  0.100419  0  0.999689  0  0  0.11309  0.099388  0  1.000211  0
H  H22  1  0.67405606  0.40136339  0.85788143  1  0  0.095255  0  0.963562  0  0  0.104995  0  1.02674  0  0  0.107654  0  1.025725  0  0  0.098231  0.103012  0  1.027646  0
H  H23  1  0.32592712  0.59863908  0.35788048  1  0  0.09536  0  0.963579  0  0  0.105125  0  1.026693  0  0  0.107764  0  1.025699  0  0  0.098282  0.103135  0  1.02761  0
H  H24  1  0.32594695  0.59864232  0.14211853  1  0  0.095314  0  0.963618  0  0  0.105045  0  1.026803  0  0  0.107707  0  1.025784  0  0  0.098251  0.103064  0  1.027708  0
H  H25  1  0.67405253  0.40136630  0.64211365  1  0  0.095285  0  0.963637  0  0  0.105002  0  1.026844  0  0  0.107668  0  1.025821  0  0  0.098252  0.10302  0  1.027747  0
H  H26  1  0.47764368  0.33670826  0.15180480  1  0  0.110594  0  0.940537  0  0  0.121992  0  0.998062  0  0  0.125483  0  0.995809  0  0  0.106787  0.119423  0  0.999809  0
H  H27  1  0.52235462  0.66330052  0.65180293  1  0  0.110639  0  0.940529  0  0  0.122021  0  0.998074  0  0  0.12552  0  0.995811  0  0  0.106783  0.119453  0  0.999827  0
H  H28  1  0.52236211  0.66329870  0.84819880  1  0  0.110675  0  0.94045  0  0  0.122026  0  0.998032  0  0  0.125544  0  0.995744  0  0  0.106819  0.119458  0  0.999781  0
H  H29  1  0.47761955  0.33670599  0.34819485  1  0  0.110704  0  0.940558  0  0  0.122106  0  0.998072  0  0  0.12559  0  0.995827  0  0  0.106814  0.119535  0  0.999826  0
H  H30  1  0.91492385  0.46810582  0.74999699  1  0  0.124551  0  0.955775  0  0  0.143573  0  1.015703  0  0  0.145857  0  1.014483  0  0  0.088558  0.141926  0  1.016597  0
H  H31  1  0.08510296  0.53186531  0.24999132  1  0  0.124416  0  0.955981  0  0  0.143468  0  1.015923  0  0  0.145751  0  1.014702  0  0  0.088493  0.141821  0  1.01682  0
H  H32  1  0.12942835  0.48566514  0.81382259  1  0  0.128406  0  0.962296  0  0  0.145734  0  1.027327  0  0  0.147789  0  1.027794  0  0  0.091738  0.144268  0  1.027048  0
H  H33  1  0.87060026  0.51432398  0.31381692  1  0  0.128344  0  0.962423  0  0  0.1457  0  1.027435  0  0  0.147752  0  1.027905  0  0  0.09175  0.144234  0  1.027157  0
H  H34  1  0.87059315  0.51431315  0.18616863  1  0  0.128306  0  0.962392  0  0  0.145665  0  1.027409  0  0  0.147721  0  1.027874  0  0  0.091727  0.144199  0  1.027132  0
H  H35  1  0.12942860  0.48567247  0.68617357  1  0  0.128404  0  0.962343  0  0  0.145725  0  1.027374  0  0  0.147782  0  1.02784  0  0  0.09173  0.144262  0  1.027089  0
C  C36  1  0.89276824  0.08735015  0.88935946  1  0  0.172307  0  3.627743  0  0  0.107288  0  3.894059  0  0  0.121778  0  3.906256  0  0  0.145549  0.097954  0  3.885574  0
C  C37  1  0.10723213  0.91265431  0.38936075  1  0  0.172198  0  3.627861  0  0  0.107178  0  3.894178  0  0  0.121666  0  3.906382  0  0  0.145507  0.097846  0  3.885692  0
C  C38  1  0.10723496  0.91266279  0.11063904  1  0  0.172242  0  3.62761  0  0  0.10719  0  3.893945  0  0  0.121679  0  3.906147  0  0  0.145547  0.097861  0  3.885457  0
C  C39  1  0.89275710  0.08735000  0.61064067  1  0  0.17233  0  3.627663  0  0  0.107256  0  3.89397  0  0  0.121743  0  3.906174  0  0  0.145533  0.097923  0  3.885487  0
C  C40  1  0.14288150  0.22404335  0.93171276  1  0  -0.007163  0  3.761911  0  0  -0.038231  0  4.023526  0  0  -0.036527  0  4.044085  0  0  -0.005744  -0.039365  0  4.009709  0
C  C41  1  0.85711551  0.77595697  0.43170798  1  0  -0.007214  0  3.761608  0  0  -0.038306  0  4.023254  0  0  -0.036599  0  4.043812  0  0  -0.005797  -0.039444  0  4.009441  0
C  C42  1  0.85712400  0.77595276  0.06828938  1  0  -0.00708  0  3.761918  0  0  -0.038152  0  4.023517  0  0  -0.036453  0  4.044072  0  0  -0.005761  -0.039291  0  4.009715  0
C  C43  1  0.14287084  0.22404249  0.56828835  1  0  -0.007113  0  3.761884  0  0  -0.03813  0  4.023518  0  0  -0.036429  0  4.044075  0  0  -0.005773  -0.039263  0  4.009698  0
C  C44  1  0.00630944  0.26931286  0.99356467  1  0  -0.060052  0  3.661189  0  0  -0.102409  0  3.919998  0  0  -0.101414  0  3.940114  0  0  0.002529  -0.103047  0  3.906536  0
C  C45  1  0.99369572  0.73068744  0.49356692  1  0  -0.059995  0  3.660738  0  0  -0.102317  0  3.91956  0  0  -0.101316  0  3.93966  0  0  0.002591  -0.102955  0  3.906099  0
C  C46  1  0.99369618  0.73068807  0.00643893  1  0  -0.060243  0  3.661284  0  0  -0.102622  0  3.920128  0  0  -0.101617  0  3.940241  0  0  0.002497  -0.103256  0  3.906668  0
C  C47  1  0.00629881  0.26930973  0.50644251  1  0  -0.06017  0  3.661603  0  0  -0.102532  0  3.920437  0  0  -0.101533  0  3.940563  0  0  0.002497  -0.103167  0  3.906971  0
C  C48  1  0.66797221  0.18839763  0.01048803  1  0  -0.042825  0  3.651218  0  0  -0.112506  0  3.898804  0  0  -0.108081  0  3.909315  0  0  -0.046275  -0.115444  0  3.891911  0
C  C49  1  0.33202457  0.81161230  0.51049258  1  0  -0.042931  0  3.651513  0  0  -0.112332  0  3.898683  0  0  -0.107883  0  3.90919  0  0  -0.046175  -0.115274  0  3.891799  0
C  C50  1  0.33202808  0.81160925  0.98951047  1  0  -0.042835  0  3.651219  0  0  -0.112442  0  3.898667  0  0  -0.108019  0  3.909174  0  0  -0.046258  -0.115378  0  3.891776  0
C  C51  1  0.66796211  0.18839920  0.48950956  1  0  -0.042781  0  3.651366  0  0  -0.112346  0  3.898734  0  0  -0.107918  0  3.909221  0  0  -0.046211  -0.115291  0  3.891857  0
C  C52  1  0.59952561  0.44552910  0.92065469  1  0  -0.111553  0  3.754059  0  0  -0.132991  0  4.003302  0  0  -0.135029  0  4.024267  0  0  -0.092156  -0.131512  0  3.989094  0
C  C53  1  0.40046446  0.55447695  0.42065607  1  0  -0.11155  0  3.754149  0  0  -0.133018  0  4.00339  0  0  -0.135037  0  4.024356  0  0  -0.092196  -0.131539  0  3.989187  0
C  C54  1  0.40047733  0.55447420  0.07934600  1  0  -0.111568  0  3.754322  0  0  -0.133051  0  4.003554  0  0  -0.13509  0  4.024515  0  0  -0.092206  -0.131567  0  3.989333  0
C  C55  1  0.59952637  0.44553581  0.57934535  1  0  -0.111453  0  3.753977  0  0  -0.132898  0  4.003177  0  0  -0.134953  0  4.024157  0  0  -0.092155  -0.131413  0  3.988945  0
C  C56  1  0.58729500  0.35268275  0.00567704  1  0  0.05658  0  3.761155  0  0  0.077226  0  4.000664  0  0  0.076401  0  4.024689  0  0  -0.016364  0.077804  0  3.984361  0
C  C57  1  0.41270430  0.64732232  0.50567516  1  0  0.056482  0  3.761137  0  0  0.077117  0  4.000481  0  0  0.07629  0  4.024499  0  0  -0.016444  0.0777  0  3.984171  0
C  C58  1  0.41270945  0.64732539  0.99432511  1  0  0.056324  0  3.761094  0  0  0.077085  0  4.000401  0  0  0.076254  0  4.024439  0  0  -0.016433  0.077661  0  3.984101  0
C  C59  1  0.58729180  0.35268209  0.49431752  1  0  0.056474  0  3.760964  0  0  0.07719  0  4.00033  0  0  0.076361  0  4.024359  0  0  -0.016395  0.077777  0  3.984015  0
C  C60  1  0.48736123  0.40820897  0.08523337  1  0  -0.107772  0  3.729851  0  0  -0.124154  0  3.970151  0  0  -0.126754  0  3.991019  0  0  -0.086382  -0.122281  0  3.955959  0
C  C61  1  0.51263292  0.59179860  0.58522952  1  0  -0.10779  0  3.729708  0  0  -0.1242  0  3.969996  0  0  -0.126809  0  3.990872  0  0  -0.086362  -0.122331  0  3.95581  0
C  C62  1  0.51263909  0.59179911  0.91476514  1  0  -0.107732  0  3.729535  0  0  -0.124119  0  3.969796  0  0  -0.126739  0  3.990659  0  0  -0.086411  -0.122247  0  3.955607  0
C  C63  1  0.48734669  0.40820558  0.41475879  1  0  -0.107954  0  3.72955  0  0  -0.124412  0  3.969883  0  0  -0.126997  0  3.990731  0  0  -0.08647  -0.122542  0  3.955686  0
C  C64  1  0.04409704  0.70780367  0.75000401  1  0  0.716772  0  3.881574  0  0  0.678253  0  4.177722  0  0  0.711334  0  4.170258  0  0  0.189129  0.655778  0  4.182019  0
C  C65  1  0.95591893  0.29217333  0.25000032  1  0  0.716542  0  3.881934  0  0  0.678074  0  4.178073  0  0  0.711145  0  4.170606  0  0  0.189096  0.655604  0  4.182365  0
C  C66  1  0.05265493  0.52583749  0.74999908  1  0  -0.448867  0  3.662805  0  0  -0.521771  0  3.892276  0  0  -0.528977  0  3.895013  0  0  -0.253719  -0.516635  0  3.890216  0
C  C67  1  0.94736539  0.47414800  0.24999360  1  0  -0.448483  0  3.662918  0  0  -0.521468  0  3.892324  0  0  -0.528676  0  3.895084  0  0  -0.253693  -0.516331  0  3.890267  0
N  N68  1  0.07022312  0.11051277  0.86724504  1  0  -0.381678  0  3.33167  0  0  -0.29884  0  3.627569  0  0  -0.318987  0  3.640293  0  0  -0.36479  -0.285246  0  3.618681  0
N  N69  1  0.92978224  0.88949017  0.36724430  1  0  -0.381613  0  3.331755  0  0  -0.298777  0  3.627652  0  0  -0.318921  0  3.640369  0  0  -0.364752  -0.285178  0  3.61876  0
N  N70  1  0.92978119  0.88949055  0.13275493  1  0  -0.381678  0  3.331674  0  0  -0.298872  0  3.627611  0  0  -0.319015  0  3.640333  0  0  -0.364784  -0.285275  0  3.618714  0
N  N71  1  0.07021233  0.11050820  0.63275639  1  0  -0.381698  0  3.331498  0  0  -0.298924  0  3.627472  0  0  -0.319071  0  3.640197  0  0  -0.364763  -0.285322  0  3.618573  0
N  N72  1  0.84926014  0.18194432  0.96561218  1  0  -0.050853  0  3.570173  0  0  0.045081  0  3.786018  0  0  0.029908  0  3.812928  0  0  -0.238446  0.055122  0  3.767744  0
N  N73  1  0.15074194  0.81806509  0.46561384  1  0  -0.050802  0  3.570176  0  0  0.04504  0  3.78596  0  0  0.029864  0  3.812872  0  0  -0.238483  0.05508  0  3.767691  0
N  N74  1  0.15074286  0.81806139  0.03438559  1  0  -0.050708  0  3.57007  0  0  0.045204  0  3.785887  0  0  0.030028  0  3.812801  0  0  -0.238464  0.055243  0  3.767613  0
N  N75  1  0.84925020  0.18194529  0.53438977  1  0  -0.050877  0  3.570274  0  0  0.045013  0  3.786152  0  0  0.029839  0  3.813057  0  0  -0.238474  0.055051  0  3.767888  0
Cl  Cl76  1  0.49246717  0.11171951  0.74999973  1  0  -0.596813  0  0.857981  0  0  -0.533321  0  1.124052  0  0  -0.547644  0  1.099626  0  0  -0.328086  -0.52292  0  1.140797  0
Cl  Cl77  1  0.50752989  0.88826926  0.25000460  1  0  -0.59678  0  0.857944  0  0  -0.533278  0  1.123984  0  0  -0.547603  0  1.099558  0  0  -0.328079  -0.52288  0  1.140728  0
O  O78  1  0.20535652  0.78290610  0.75000326  1  0  -0.674948  0  2.026304  0  0  -0.597866  0  2.298758  0  0  -0.626507  0  2.28364  0  0  -0.350586  -0.577847  0  2.308463  0
O  O79  1  0.79463929  0.21708747  0.24999816  1  0  -0.674797  0  2.0263  0  0  -0.597888  0  2.298909  0  0  -0.62652  0  2.283782  0  0  -0.350588  -0.577877  0  2.308612  0
O  O80  1  0.89449274  0.77649739  0.75000666  1  0  -0.637342  0  1.860999  0  0  -0.591977  0  2.077673  0  0  -0.614313  0  2.069062  0  0  -0.337129  -0.576433  0  2.083114  0
O  O81  1  0.10549978  0.22347567  0.25000714  1  0  -0.637261  0  1.861501  0  0  -0.591886  0  2.078164  0  0  -0.614219  0  2.069551  0  0  -0.337052  -0.576329  0  2.083563  0
