# generated using pymatgen
data_ZnH9C11N3O4
_symmetry_space_group_name_H-M   'P 1'
_cell_length_a   9.44578801
_cell_length_b   10.30222174
_cell_length_c   12.05908183
_cell_angle_alpha   89.99999737
_cell_angle_beta   94.52442234
_cell_angle_gamma   90.00009567
_symmetry_Int_Tables_number   1
_chemical_formula_structural   ZnH9C11N3O4
_chemical_formula_sum   'Zn4 H36 C44 N12 O16'
_cell_volume   1169.84377416
_cell_formula_units_Z   4
loop_
 _symmetry_equiv_pos_site_id
 _symmetry_equiv_pos_as_xyz
  1  'x, y, z'
loop_
 _atom_site_type_symbol
 _atom_site_label
 _atom_site_symmetry_multiplicity
 _atom_site_fract_x
 _atom_site_fract_y
 _atom_site_fract_z
 _atom_site_occupancy
 _atom_site_pbe_bader_spin_density
 _atom_site_pbe_cm5_charge
 _atom_site_pbe_ddec_charge
 _atom_site_pbe_ddec_spin_density
 _atom_site_pbe_ddec_sum_bond_order
 _atom_site_pbe_magmom
Zn  Zn0  1  0.71656801  0.00947423  0.06017493  1  0  0.693225  0.797311  0  2.309261  0
Zn  Zn1  1  0.28343277  0.50947478  0.43982580  1  0  0.69324  0.797347  0  2.309245  0
Zn  Zn2  1  0.28343279  0.99052440  0.93982572  1  0  0.693247  0.797372  0  2.309217  0
Zn  Zn3  1  0.71656803  0.49052482  0.56017485  1  0  0.693246  0.797372  0  2.309234  0
H  H4  1  0.59579809  0.29901555  0.79364429  1  0  0.107512  0.123871  0  1.027854  0
H  H5  1  0.40420133  0.79901726  0.70635455  1  0  0.107523  0.123886  0  1.027879  0
H  H6  1  0.40420166  0.70098308  0.20635464  1  0  0.107528  0.123886  0  1.027859  0
H  H7  1  0.59579842  0.20098428  0.29364438  1  0  0.107521  0.123877  0  1.027867  0
H  H8  1  0.61816783  0.71588001  0.78949561  1  0  0.107234  0.121852  0  1.020326  0
H  H9  1  0.38183036  0.21588186  0.71050481  1  0  0.107237  0.121869  0  1.020281  0
H  H10  1  0.38183297  0.28411764  0.21050505  1  0  0.107231  0.121836  0  1.020299  0
H  H11  1  0.61816938  0.78411968  0.28949578  1  0  0.107223  0.121823  0  1.020355  0
H  H12  1  0.71248758  0.50653982  0.09584889  1  0  0.10281  0.10015  0  1.054925  0
H  H13  1  0.28751214  0.00654055  0.40415094  1  0  0.10281  0.100143  0  1.05493  0
H  H14  1  0.28751217  0.49346074  0.90415086  1  0  0.10282  0.100154  0  1.054887  0
H  H15  1  0.71248760  0.99346099  0.59584882  1  0  0.102819  0.100155  0  1.054904  0
H  H16  1  0.90077989  0.20834215  0.21930107  1  0  0.13302  0.102165  0  1.041615  0
H  H17  1  0.09922021  0.70834145  0.28069795  1  0  0.133034  0.102177  0  1.041616  0
H  H18  1  0.09922090  0.79165745  0.78070042  1  0  0.133016  0.102158  0  1.041611  0
H  H19  1  0.90077955  0.29165912  0.71930015  1  0  0.133027  0.102189  0  1.0416  0
H  H20  1  0.00319908  0.84410627  0.08717782  1  0  0.119699  0.118604  0  0.998009  0
H  H21  1  0.99680018  0.34410614  0.41282363  1  0  0.119702  0.118593  0  0.997994  0
H  H22  1  0.99680065  0.15589430  0.91282359  1  0  0.119702  0.118616  0  0.997975  0
H  H23  1  0.00320061  0.65589540  0.58717786  1  0  0.119701  0.118608  0  0.998005  0
H  H24  1  0.23207605  0.92961518  0.22652467  1  0  0.124348  0.129774  0  1.015931  0
H  H25  1  0.76792336  0.42961471  0.27347761  1  0  0.124377  0.129806  0  1.015941  0
H  H26  1  0.76792579  0.07038441  0.77347854  1  0  0.124385  0.129778  0  1.015947  0
H  H27  1  0.23207742  0.57038586  0.72652470  1  0  0.124345  0.12975  0  1.015971  0
H  H28  1  0.48626049  0.42799930  0.64352332  1  0  0.298443  0.300371  0  0.965175  0
H  H29  1  0.51373810  0.92799923  0.85647546  1  0  0.298464  0.30039  0  0.965149  0
H  H30  1  0.51373820  0.57200030  0.35647637  1  0  0.298462  0.300387  0  0.965169  0
H  H31  1  0.48626164  0.07200037  0.14352430  1  0  0.298455  0.300377  0  0.96519  0
H  H32  1  0.49377735  0.58741249  0.63939845  1  0  0.297075  0.300134  0  0.970692  0
H  H33  1  0.50622273  0.08741355  0.86060210  1  0  0.297044  0.300062  0  0.970786  0
H  H34  1  0.50622239  0.41258711  0.36060214  1  0  0.29705  0.300037  0  0.970833  0
H  H35  1  0.49377806  0.91258702  0.13939939  1  0  0.297076  0.300109  0  0.970721  0
H  H36  1  0.15509114  0.15054531  0.30017502  1  0  0.308674  0.287218  0  0.99973  0
H  H37  1  0.84490990  0.65054381  0.19982572  1  0  0.308675  0.287229  0  0.999715  0
H  H38  1  0.84490966  0.84945526  0.69982647  1  0  0.308686  0.287246  0  0.999698  0
H  H39  1  0.15508984  0.34945676  0.80017403  1  0  0.308688  0.287245  0  0.999695  0
C  C40  1  0.65642605  0.39042985  0.95174719  1  0  -0.021963  -0.023553  0  4.011679  0
C  C41  1  0.34357247  0.89043051  0.54825159  1  0  -0.021998  -0.023561  0  4.011612  0
C  C42  1  0.34357370  0.60956975  0.04825174  1  0  -0.022003  -0.023602  0  4.011616  0
C  C43  1  0.65642621  0.10957006  0.45174810  1  0  -0.021987  -0.023575  0  4.011646  0
C  C44  1  0.61363439  0.39025122  0.83807277  1  0  -0.084203  -0.183189  0  3.903174  0
C  C45  1  0.38636520  0.89025291  0.66192525  1  0  -0.084213  -0.183236  0  3.903245  0
C  C46  1  0.38636642  0.60974838  0.16192623  1  0  -0.084249  -0.183219  0  3.903187  0
C  C47  1  0.61363454  0.10974863  0.33807451  1  0  -0.084224  -0.183218  0  3.903218  0
C  C48  1  0.59593100  0.50757444  0.78055984  1  0  0.085483  0.271908  0  4.00522  0
C  C49  1  0.40406894  0.00757438  0.71943904  1  0  0.085486  0.271944  0  4.005101  0
C  C50  1  0.40406874  0.49242515  0.21943992  1  0  0.085493  0.271923  0  4.00511  0
C  C51  1  0.59593187  0.99242521  0.28055996  1  0  0.08549  0.271905  0  4.005191  0
C  C52  1  0.62686261  0.62491129  0.83532742  1  0  -0.081228  -0.167253  0  3.888095  0
C  C53  1  0.37313648  0.12491216  0.66467223  1  0  -0.081245  -0.167302  0  3.888124  0
C  C54  1  0.37313500  0.37508831  0.16467302  1  0  -0.081236  -0.167238  0  3.888135  0
C  C55  1  0.62686433  0.87508841  0.33532677  1  0  -0.081213  -0.167219  0  3.88817  0
C  C56  1  0.67054336  0.62524426  0.94903092  1  0  -0.022024  -0.033498  0  4.013026  0
C  C57  1  0.32945573  0.12524604  0.55096873  1  0  -0.022031  -0.033565  0  4.013118  0
C  C58  1  0.32945637  0.37475340  0.05096967  1  0  -0.022033  -0.033616  0  4.013046  0
C  C59  1  0.67054403  0.87475550  0.44902937  1  0  -0.022026  -0.033541  0  4.013028  0
C  C60  1  0.68365549  0.50788223  0.00698182  1  0  -0.08373  -0.120362  0  3.962108  0
C  C61  1  0.31634423  0.00788396  0.49301801  1  0  -0.083713  -0.120307  0  3.961999  0
C  C62  1  0.31634425  0.49211542  0.99301793  1  0  -0.083707  -0.120284  0  3.961861  0
C  C63  1  0.68365550  0.99211660  0.50698258  1  0  -0.083716  -0.120334  0  3.961907  0
C  C64  1  0.67222862  0.26652167  0.01628582  1  0  0.201022  0.563638  0  4.207726  0
C  C65  1  0.32777052  0.76652228  0.48371314  1  0  0.201009  0.563596  0  4.207655  0
C  C66  1  0.32777219  0.73347793  0.98371318  1  0  0.201034  0.563626  0  4.207734  0
C  C67  1  0.67222816  0.23347926  0.51628655  1  0  0.201115  0.563775  0  4.207728  0
C  C68  1  0.69914268  0.74966310  0.01055263  1  0  0.208357  0.571519  0  4.183363  0
C  C69  1  0.30085642  0.24966384  0.48944715  1  0  0.20836  0.571561  0  4.183325  0
C  C70  1  0.30085279  0.25033650  0.98945016  1  0  0.208402  0.57166  0  4.183415  0
C  C71  1  0.69914230  0.75033382  0.51054673  1  0  0.208368  0.571582  0  4.183211  0
C  C72  1  0.95880073  0.12053589  0.20307818  1  0  0.142165  0.149767  0  3.909655  0
C  C73  1  0.04119814  0.62053510  0.29692076  1  0  0.142123  0.149721  0  3.90976  0
C  C74  1  0.04119901  0.87946370  0.79692241  1  0  0.142164  0.149775  0  3.909638  0
C  C75  1  0.95880160  0.37946546  0.70307899  1  0  0.142154  0.149725  0  3.909746  0
C  C76  1  0.01622969  0.93206886  0.13593327  1  0  -0.008142  -0.046646  0  4.002315  0
C  C77  1  0.98376972  0.43206968  0.36406901  1  0  -0.00817  -0.046671  0  4.002368  0
C  C78  1  0.98377109  0.06793074  0.86406904  1  0  -0.008147  -0.046667  0  4.002324  0
C  C79  1  0.01623107  0.56793089  0.63593165  1  0  -0.008155  -0.046676  0  4.002336  0
C  C80  1  0.13035080  0.97436080  0.20376667  1  0  0.002754  -0.037763  0  3.93148  0
C  C81  1  0.86964977  0.47436047  0.29623403  1  0  0.002755  -0.037772  0  3.931559  0
C  C82  1  0.86965426  0.02563977  0.79623344  1  0  0.002747  -0.03775  0  3.931563  0
C  C83  1  0.13035103  0.52564010  0.70376663  1  0  0.002788  -0.037695  0  3.93149  0
N  N84  1  0.55116775  0.50600679  0.66453147  1  0  -0.606643  -0.59459  0  3.414261  0
N  N85  1  0.44883113  0.00600582  0.83546817  1  0  -0.60662  -0.594514  0  3.414278  0
N  N86  1  0.44883093  0.49399378  0.33546904  1  0  -0.606618  -0.594486  0  3.414346  0
N  N87  1  0.55116861  0.99399281  0.16453159  1  0  -0.606651  -0.594541  0  3.414295  0
N  N88  1  0.90943043  0.02408773  0.13626974  1  0  -0.366666  -0.307207  0  3.634873  0
N  N89  1  0.09056826  0.52408798  0.36373003  1  0  -0.366612  -0.307168  0  3.634879  0
N  N90  1  0.09056929  0.97591090  0.86373250  1  0  -0.366672  -0.307254  0  3.634879  0
N  N91  1  0.90943149  0.47591259  0.63626973  1  0  -0.36666  -0.307193  0  3.634894  0
N  N92  1  0.09186090  0.09272958  0.24514966  1  0  -0.373692  -0.196012  0  3.668758  0
N  N93  1  0.90813791  0.59272818  0.25485094  1  0  -0.373719  -0.196025  0  3.66889  0
N  N94  1  0.90813990  0.90727099  0.75485100  1  0  -0.373709  -0.196009  0  3.668798  0
N  N95  1  0.09186183  0.40727142  0.74514882  1  0  -0.37372  -0.196048  0  3.668854  0
O  O96  1  0.69621053  0.26860084  0.11982365  1  0  -0.315  -0.551678  0  2.186157  0
O  O97  1  0.30378968  0.76860142  0.38017538  1  0  -0.315003  -0.551693  0  2.1861  0
O  O98  1  0.30379135  0.73139875  0.88017542  1  0  -0.31502  -0.551707  0  2.186136  0
O  O99  1  0.69621007  0.23140012  0.61982355  1  0  -0.315059  -0.551771  0  2.186243  0
O  O100  1  0.66125012  0.15915353  0.95857338  1  0  -0.331754  -0.5701  0  2.332146  0
O  O101  1  0.33874797  0.65915418  0.54142620  1  0  -0.331749  -0.570076  0  2.332129  0
O  O102  1  0.33874856  0.84084607  0.04142631  1  0  -0.331766  -0.570091  0  2.332149  0
O  O103  1  0.66125072  0.34084736  0.45857265  1  0  -0.33181  -0.570178  0  2.332155  0
O  O104  1  0.74256244  0.74874488  0.11226011  1  0  -0.312506  -0.556342  0  2.226494  0
O  O105  1  0.25743772  0.24874653  0.38773975  1  0  -0.312495  -0.556327  0  2.226499  0
O  O106  1  0.25743835  0.25125666  0.88774221  1  0  -0.312539  -0.556405  0  2.226544  0
O  O107  1  0.74256311  0.75125404  0.61225594  1  0  -0.312543  -0.556433  0  2.226387  0
O  O108  1  0.67635407  0.85722626  0.95611407  1  0  -0.324283  -0.550108  0  2.314462  0
O  O109  1  0.32364438  0.35722706  0.54388636  1  0  -0.324267  -0.55011  0  2.314508  0
O  O110  1  0.32364247  0.14277333  0.04388714  1  0  -0.324272  -0.550133  0  2.31453  0
O  O111  1  0.67635752  0.64277060  0.45610939  1  0  -0.324241  -0.55004  0  2.314383  0
