# generated using pymatgen
data_ZnH10C9(NO)5
_symmetry_space_group_name_H-M   'P 1'
_cell_length_a   10.65981891
_cell_length_b   11.79047565
_cell_length_c   11.91393831
_cell_angle_alpha   111.41047848
_cell_angle_beta   90.03150085
_cell_angle_gamma   116.87896827
_symmetry_Int_Tables_number   1
_chemical_formula_structural   ZnH10C9(NO)5
_chemical_formula_sum   'Zn4 H40 C36 N20 O20'
_cell_volume   1218.47679251
_cell_formula_units_Z   4
loop_
 _symmetry_equiv_pos_site_id
 _symmetry_equiv_pos_as_xyz
  1  'x, y, z'
loop_
 _atom_site_type_symbol
 _atom_site_label
 _atom_site_symmetry_multiplicity
 _atom_site_fract_x
 _atom_site_fract_y
 _atom_site_fract_z
 _atom_site_occupancy
 _atom_site_hle17_bader_spin_density
 _atom_site_hle17_ddec_charge
 _atom_site_hle17_ddec_spin_density
 _atom_site_hle17_ddec_sum_bond_order
 _atom_site_hle17_magmom
 _atom_site_hse06_10hf_bader_spin_density
 _atom_site_hse06_10hf_ddec_charge
 _atom_site_hse06_10hf_ddec_spin_density
 _atom_site_hse06_10hf_ddec_sum_bond_order
 _atom_site_hse06_10hf_magmom
 _atom_site_hse06_bader_spin_density
 _atom_site_hse06_ddec_charge
 _atom_site_hse06_ddec_spin_density
 _atom_site_hse06_ddec_sum_bond_order
 _atom_site_hse06_magmom
 _atom_site_pbe_bader_spin_density
 _atom_site_pbe_cm5_charge
 _atom_site_pbe_ddec_charge
 _atom_site_pbe_ddec_spin_density
 _atom_site_pbe_ddec_sum_bond_order
 _atom_site_pbe_magmom
Zn  Zn0  1  0.75269249  0.72622085  0.18976893  1  0  1.044838  0  1.842595  0  0  0.854528  0  2.316448  0  0  0.899827  0  2.261859  0  0  0.707111  0.82216  0  2.354682  0
Zn  Zn1  1  0.02634644  0.27376927  0.31034641  1  0  1.044529  0  1.840309  0  0  0.854574  0  2.313778  0  0  0.899926  0  2.259196  0  0  0.706818  0.822462  0  2.351581  0
Zn  Zn2  1  0.24730849  0.27378192  0.81023164  1  0  1.044844  0  1.842613  0  0  0.854589  0  2.316432  0  0  0.899888  0  2.261839  0  0  0.707079  0.822136  0  2.354696  0
Zn  Zn3  1  0.97365099  0.72622828  0.68965148  1  0  1.044571  0  1.840283  0  0  0.854594  0  2.313744  0  0  0.899957  0  2.259164  0  0  0.706988  0.822641  0  2.351485  0
H  H4  1  0.20644306  0.69118766  0.08222233  1  0  0.14334  0  0.968887  0  0  0.144158  0  1.04286  0  0  0.148987  0  1.039477  0  0  0.113739  0.140403  0  1.046015  0
H  H5  1  0.51549517  0.30895196  0.41786674  1  0  0.14292  0  0.968337  0  0  0.143811  0  1.042377  0  0  0.14864  0  1.039003  0  0  0.113721  0.14008  0  1.045459  0
H  H6  1  0.79355689  0.30881305  0.91777835  1  0  0.143358  0  0.968839  0  0  0.144196  0  1.042796  0  0  0.149026  0  1.03941  0  0  0.113736  0.140408  0  1.045955  0
H  H7  1  0.48450652  0.69104658  0.58212899  1  0  0.142964  0  0.968367  0  0  0.14387  0  1.042383  0  0  0.148699  0  1.039011  0  0  0.113752  0.140142  0  1.045477  0
H  H8  1  0.40691660  0.58961943  0.10477083  1  0  0.109473  0  0.959285  0  0  0.114866  0  1.026557  0  0  0.118121  0  1.022404  0  0  0.134486  0.112485  0  1.029569  0
H  H9  1  0.81717471  0.41049397  0.39544611  1  0  0.109861  0  0.958497  0  0  0.115264  0  1.025859  0  0  0.11852  0  1.021724  0  0  0.134559  0.112876  0  1.028837  0
H  H10  1  0.59308240  0.41038125  0.89522816  1  0  0.109453  0  0.959313  0  0  0.114831  0  1.026599  0  0  0.118084  0  1.022449  0  0  0.134488  0.112469  0  1.029591  0
H  H11  1  0.18282376  0.58950566  0.60455251  1  0  0.109932  0  0.958451  0  0  0.115332  0  1.025814  0  0  0.118587  0  1.02168  0  0  0.134603  0.112959  0  1.028767  0
H  H12  1  0.74306338  0.84058160  0.97408646  1  0  0.124986  0  0.929568  0  0  0.132351  0  0.994189  0  0  0.135778  0  0.989847  0  0  0.149741  0.129774  0  0.997477  0
H  H13  1  0.90238847  0.15926753  0.52582876  1  0  0.125591  0  0.928338  0  0  0.132588  0  0.993276  0  0  0.135996  0  0.988952  0  0  0.149777  0.129955  0  0.996631  0
H  H14  1  0.25693750  0.15941910  0.02591422  1  0  0.124993  0  0.929556  0  0  0.132329  0  0.994214  0  0  0.135756  0  0.98987  0  0  0.149699  0.129715  0  0.997522  0
H  H15  1  0.09761493  0.84073631  0.47417386  1  0  0.125625  0  0.928449  0  0  0.132622  0  0.993388  0  0  0.136032  0  0.989063  0  0  0.149795  0.130011  0  0.996722  0
H  H16  1  0.41409596  0.75272861  0.79035287  1  0  0.084271  0  0.944471  0  0  0.097957  0  1.011413  0  0  0.098229  0  1.011768  0  0  0.113128  0.097672  0  1.011228  0
H  H17  1  0.66154168  0.24717935  0.70971548  1  0  0.083421  0  0.944598  0  0  0.097463  0  1.011494  0  0  0.097671  0  1.011938  0  0  0.112691  0.097141  0  1.011228  0
H  H18  1  0.58590597  0.24727418  0.20964854  1  0  0.084317  0  0.944402  0  0  0.097987  0  1.011388  0  0  0.098261  0  1.011741  0  0  0.113145  0.097732  0  1.01119  0
H  H19  1  0.33845681  0.75282032  0.29028567  1  0  0.083401  0  0.94462  0  0  0.097448  0  1.01152  0  0  0.097656  0  1.011964  0  0  0.112708  0.097159  0  1.011236  0
H  H20  1  0.59752474  0.88738260  0.84792091  1  0  0.091433  0  0.923684  0  0  0.107858  0  0.984438  0  0  0.108322  0  0.984974  0  0  0.116767  0.107508  0  0.984036  0
H  H21  1  0.71026066  0.11255033  0.65210675  1  0  0.09116  0  0.92371  0  0  0.107368  0  0.984897  0  0  0.107818  0  0.985466  0  0  0.116396  0.107037  0  0.984442  0
H  H22  1  0.40247716  0.11262014  0.15207796  1  0  0.091387  0  0.923767  0  0  0.107841  0  0.98449  0  0  0.108305  0  0.985025  0  0  0.11678  0.107505  0  0.98409  0
H  H23  1  0.28973918  0.88744829  0.34789320  1  0  0.091135  0  0.923672  0  0  0.107335  0  0.984889  0  0  0.107784  0  0.985458  0  0  0.116386  0.107006  0  0.98442  0
H  H24  1  0.34171330  0.88550627  0.96857205  1  0  0.090902  0  0.944502  0  0  0.106784  0  1.006447  0  0  0.108573  0  1.005432  0  0  0.096092  0.105211  0  1.007701  0
H  H25  1  0.45622795  0.11448741  0.53148989  1  0  0.090611  0  0.945047  0  0  0.106604  0  1.006676  0  0  0.108299  0  1.005769  0  0  0.096329  0.105072  0  1.007868  0
H  H26  1  0.65828425  0.11449339  0.03142826  1  0  0.09093  0  0.944547  0  0  0.106812  0  1.006473  0  0  0.1086  0  1.005459  0  0  0.096102  0.105251  0  1.007716  0
H  H27  1  0.54377386  0.88551327  0.46850910  1  0  0.090599  0  0.945068  0  0  0.106598  0  1.00669  0  0  0.108293  0  1.005783  0  0  0.096342  0.105088  0  1.007875  0
H  H28  1  0.42268331  0.97849139  0.87842635  1  0  0.078405  0  0.91904  0  0  0.100216  0  0.970218  0  0  0.100785  0  0.971122  0  0  0.096491  0.099759  0  0.969687  0
H  H29  1  0.44425398  0.02141515  0.62155234  1  0  0.078237  0  0.918393  0  0  0.100051  0  0.969551  0  0  0.100566  0  0.970504  0  0  0.096343  0.099602  0  0.969035  0
H  H30  1  0.57731475  0.02150928  0.12157263  1  0  0.078408  0  0.919112  0  0  0.100218  0  0.970268  0  0  0.100787  0  0.971172  0  0  0.096526  0.099783  0  0.96973  0
H  H31  1  0.55574833  0.97858653  0.37844448  1  0  0.078265  0  0.918325  0  0  0.100104  0  0.969457  0  0  0.100618  0  0.970411  0  0  0.096391  0.099687  0  0.968927  0
H  H32  1  0.84253480  0.52786302  0.24346825  1  0  0.307938  0  0.929057  0  0  0.279805  0  1.005467  0  0  0.290105  0  0.995971  0  0  0.319477  0.272414  0  1.012501  0
H  H33  1  0.31458915  0.47219801  0.25651910  1  0  0.308254  0  0.929919  0  0  0.280311  0  1.00578  0  0  0.290549  0  0.996391  0  0  0.319595  0.27299  0  1.012672  0
H  H34  1  0.15746516  0.47213771  0.75653412  1  0  0.30793  0  0.928973  0  0  0.279808  0  1.005378  0  0  0.290108  0  0.995881  0  0  0.319437  0.272367  0  1.01241  0
H  H35  1  0.68540630  0.52779745  0.74347806  1  0  0.30827  0  0.929872  0  0  0.280315  0  1.005759  0  0  0.290547  0  0.996373  0  0  0.319594  0.272997  0  1.012654  0
H  H36  1  0.78940720  0.90087900  0.41811528  1  0  0.423795  0  0.887464  0  0  0.39125  0  0.954119  0  0  0.40201  0  0.938639  0  0  0.288249  0.383685  0  0.965011  0
H  H37  1  0.88809978  0.09915550  0.08191953  1  0  0.424198  0  0.886774  0  0  0.391872  0  0.953071  0  0  0.402638  0  0.937585  0  0  0.288453  0.384295  0  0.963967  0
H  H38  1  0.21059265  0.09911964  0.58188551  1  0  0.423748  0  0.887479  0  0  0.391202  0  0.95414  0  0  0.401962  0  0.938661  0  0  0.288213  0.383626  0  0.965042  0
H  H39  1  0.11189819  0.90084313  0.91808126  1  0  0.424166  0  0.886825  0  0  0.391839  0  0.953123  0  0  0.402605  0  0.937637  0  0  0.288415  0.384241  0  0.964046  0
H  H40  1  0.91061942  0.98069956  0.35371387  1  0  0.42918  0  0.877307  0  0  0.395268  0  0.945931  0  0  0.406808  0  0.929148  0  0  0.289279  0.386875  0  0.958147  0
H  H41  1  0.92949715  0.01958406  0.14657257  1  0  0.428809  0  0.877395  0  0  0.394558  0  0.946462  0  0  0.406064  0  0.929744  0  0  0.289271  0.386456  0  0.958229  0
H  H42  1  0.08937993  0.01929807  0.64628909  1  0  0.429159  0  0.877326  0  0  0.39525  0  0.945946  0  0  0.406792  0  0.929161  0  0  0.289276  0.386855  0  0.958167  0
H  H43  1  0.07049977  0.98041248  0.85342664  1  0  0.428837  0  0.87735  0  0  0.394599  0  0.946404  0  0  0.406106  0  0.929685  0  0  0.289281  0.386507  0  0.958146  0
C  C44  1  0.08879746  0.48401907  0.19967602  1  0  0.637561  0  3.951565  0  0  0.582878  0  4.260534  0  0  0.617123  0  4.250981  0  0  0.211438  0.559807  0  4.266005  0
C  C45  1  0.60484666  0.51605869  0.30034325  1  0  0.639912  0  3.9512  0  0  0.584808  0  4.260478  0  0  0.619062  0  4.250897  0  0  0.212165  0.561685  0  4.26599  0
C  C46  1  0.91119933  0.51597534  0.80031993  1  0  0.637516  0  3.951688  0  0  0.582818  0  4.260688  0  0  0.617063  0  4.251137  0  0  0.211415  0.559709  0  4.266172  0
C  C47  1  0.39515692  0.48393990  0.69965501  1  0  0.639985  0  3.951236  0  0  0.58491  0  4.260503  0  0  0.619168  0  4.250917  0  0  0.21217  0.561757  0  4.266038  0
C  C48  1  0.04074462  0.57115754  0.16832465  1  0  0.052272  0  3.699394  0  0  0.039938  0  3.964383  0  0  0.040421  0  3.981682  0  0  0.095026  0.039553  0  3.952607  0
C  C49  1  0.46955328  0.42874822  0.33149431  1  0  0.051301  0  3.701865  0  0  0.038777  0  3.966913  0  0  0.039341  0  3.984177  0  0  0.095082  0.038502  0  3.955095  0
C  C50  1  0.95925439  0.42884318  0.83167687  1  0  0.052185  0  3.699396  0  0  0.039842  0  3.964427  0  0  0.040332  0  3.981712  0  0  0.095064  0.03951  0  3.952594  0
C  C51  1  0.53044602  0.57124931  0.66850273  1  0  0.051271  0  3.7018  0  0  0.038722  0  3.96689  0  0  0.039274  0  3.984155  0  0  0.095092  0.038449  0  3.955104  0
C  C52  1  0.10823641  0.66857850  0.11776716  1  0  -0.185882  0  3.676952  0  0  -0.221925  0  3.943485  0  0  -0.225972  0  3.960923  0  0  -0.089452  -0.219131  0  3.932216  0
C  C53  1  0.43980408  0.33146772  0.38220436  1  0  -0.185439  0  3.67414  0  0  -0.221538  0  3.941165  0  0  -0.225643  0  3.958604  0  0  -0.090043  -0.21872  0  3.929941  0
C  C54  1  0.89176195  0.33141903  0.88222988  1  0  -0.185871  0  3.676878  0  0  -0.221931  0  3.943391  0  0  -0.225983  0  3.960824  0  0  -0.089473  -0.219171  0  3.932101  0
C  C55  1  0.56019718  0.66853187  0.61779173  1  0  -0.18551  0  3.674171  0  0  -0.221598  0  3.941195  0  0  -0.225701  0  3.958637  0  0  -0.090076  -0.218779  0  3.92998  0
C  C56  1  0.02086477  0.72939583  0.12181687  1  0  0.046573  0  3.757699  0  0  0.041943  0  4.016408  0  0  0.042162  0  4.03411  0  0  0.086264  0.041604  0  4.004432  0
C  C57  1  0.29164691  0.27087640  0.37843361  1  0  0.046296  0  3.758311  0  0  0.041313  0  4.017236  0  0  0.041614  0  4.03484  0  0  0.086198  0.040924  0  4.005465  0
C  C58  1  0.97913476  0.27060592  0.87818417  1  0  0.046578  0  3.757635  0  0  0.041986  0  4.016311  0  0  0.042207  0  4.034012  0  0  0.086278  0.041702  0  4.0043  0
C  C59  1  0.70835263  0.72912536  0.62156828  1  0  0.046315  0  3.758293  0  0  0.041304  0  4.017265  0  0  0.041602  0  4.03488  0  0  0.086222  0.040956  0  4.005438  0
C  C60  1  0.03536953  0.84532900  0.09050763  1  0  0.647025  0  3.945937  0  0  0.594997  0  4.243692  0  0  0.628756  0  4.233959  0  0  0.213417  0.572149  0  4.24948  0
C  C61  1  0.19014704  0.15480227  0.40956036  1  0  0.646576  0  3.947194  0  0  0.595382  0  4.243585  0  0  0.629133  0  4.233796  0  0  0.213535  0.57253  0  4.249375  0
C  C62  1  0.96462648  0.15466759  0.90949496  1  0  0.64687  0  3.946015  0  0  0.594848  0  4.243751  0  0  0.628609  0  4.234017  0  0  0.213331  0.571961  0  4.249573  0
C  C63  1  0.80985572  0.84519845  0.59044116  1  0  0.646475  0  3.947255  0  0  0.595252  0  4.243723  0  0  0.629002  0  4.233938  0  0  0.213512  0.572493  0  4.249485  0
C  C64  1  0.46642734  0.65421120  0.05751363  1  0  0.195607  0  3.690017  0  0  0.142892  0  3.976557  0  0  0.154288  0  3.989253  0  0  0.147307  0.135669  0  3.967552  0
C  C65  1  0.81218169  0.34586827  0.44266455  1  0  0.196628  0  3.688931  0  0  0.144166  0  3.975042  0  0  0.155529  0  3.987773  0  0  0.14809  0.137  0  3.965914  0
C  C66  1  0.53357155  0.34578739  0.94248463  1  0  0.195573  0  3.689998  0  0  0.142874  0  3.976548  0  0  0.154271  0  3.989242  0  0  0.147315  0.135672  0  3.967481  0
C  C67  1  0.18781647  0.65413449  0.55733517  1  0  0.196504  0  3.689013  0  0  0.144024  0  3.975141  0  0  0.155392  0  3.987878  0  0  0.148017  0.136879  0  3.965945  0
C  C68  1  0.63916967  0.78125246  0.99238947  1  0  0.191193  0  3.599302  0  0  0.109992  0  3.861675  0  0  0.124716  0  3.872999  0  0  0.171955  0.100586  0  3.853856  0
C  C69  1  0.85779089  0.21860974  0.50757351  1  0  0.190432  0  3.599517  0  0  0.109643  0  3.8617  0  0  0.124337  0  3.873051  0  0  0.171666  0.100162  0  3.853991  0
C  C70  1  0.36082869  0.21874507  0.00760757  1  0  0.191196  0  3.599229  0  0  0.11002  0  3.861601  0  0  0.124752  0  3.872913  0  0  0.171913  0.100608  0  3.853816  0
C  C71  1  0.14220875  0.78139409  0.49242827  1  0  0.190388  0  3.599764  0  0  0.109541  0  3.861931  0  0  0.12424  0  3.873285  0  0  0.171689  0.100069  0  3.854187  0
C  C72  1  0.49418820  0.83581591  0.87339316  1  0  -0.018141  0  3.621259  0  0  -0.095403  0  3.880161  0  0  -0.091948  0  3.891972  0  0  -0.050071  -0.097317  0  3.871756  0
C  C73  1  0.65844216  0.16410490  0.62666759  1  0  -0.016903  0  3.620226  0  0  -0.094925  0  3.87993  0  0  -0.091491  0  3.891809  0  0  -0.049546  -0.096767  0  3.871418  0
C  C74  1  0.50581133  0.16418584  0.12660788  1  0  -0.018071  0  3.621261  0  0  -0.09537  0  3.880152  0  0  -0.091912  0  3.891962  0  0  -0.050032  -0.097285  0  3.871768  0
C  C75  1  0.34155915  0.83589478  0.37333356  1  0  -0.016848  0  3.620201  0  0  -0.094918  0  3.879945  0  0  -0.091482  0  3.891822  0  0  -0.049581  -0.096777  0  3.87143  0
C  C76  1  0.44456104  0.93963179  0.94321203  1  0  -0.127979  0  3.676195  0  0  -0.17031  0  3.943517  0  0  -0.171933  0  3.956938  0  0  -0.165938  -0.169038  0  3.934171  0
C  C77  1  0.50494513  0.06030461  0.55679159  1  0  -0.12707  0  3.677407  0  0  -0.169392  0  3.944938  0  0  -0.170848  0  3.958165  0  0  -0.165555  -0.168299  0  3.935856  0
C  C78  1  0.55543826  0.06036574  0.05678501  1  0  -0.12809  0  3.676328  0  0  -0.170374  0  3.943591  0  0  -0.171994  0  3.957009  0  0  -0.165993  -0.169126  0  3.934257  0
C  C79  1  0.49505762  0.93969606  0.44320740  1  0  -0.127116  0  3.677363  0  0  -0.169451  0  3.944908  0  0  -0.170908  0  3.958134  0  0  -0.16555  -0.168366  0  3.935831  0
N  N80  1  0.91930570  0.57565393  0.19705733  1  0  -0.130483  0  3.461051  0  0  -0.080929  0  3.697982  0  0  -0.090368  0  3.714934  0  0  -0.250379  -0.074604  0  3.686876  0
N  N81  1  0.34364069  0.42434861  0.30288771  1  0  -0.131589  0  3.463556  0  0  -0.081684  0  3.699866  0  0  -0.091209  0  3.717016  0  0  -0.249994  -0.075423  0  3.688707  0
N  N82  1  0.08069280  0.42434576  0.80294467  1  0  -0.130411  0  3.46091  0  0  -0.080846  0  3.697859  0  0  -0.090289  0  3.714807  0  0  -0.250413  -0.074568  0  3.686757  0
N  N83  1  0.65636047  0.57564890  0.69710765  1  0  -0.131572  0  3.46342  0  0  -0.081674  0  3.699779  0  0  -0.091182  0  3.716927  0  0  -0.250012  -0.075444  0  3.688647  0
N  N84  1  0.90616714  0.67013286  0.16980189  1  0  -0.253175  0  3.250052  0  0  -0.199672  0  3.547608  0  0  -0.211477  0  3.559294  0  0  -0.242471  -0.191403  0  3.539688  0
N  N85  1  0.23609397  0.33000780  0.33032808  1  0  -0.251842  0  3.249908  0  0  -0.19868  0  3.547356  0  0  -0.210463  0  3.559039  0  0  -0.242157  -0.190354  0  3.5395  0
N  N86  1  0.09383732  0.32987311  0.83020399  1  0  -0.253163  0  3.249947  0  0  -0.199727  0  3.547575  0  0  -0.211534  0  3.559259  0  0  -0.242456  -0.191411  0  3.539618  0
N  N87  1  0.76390678  0.66999078  0.66966934  1  0  -0.251854  0  3.249876  0  0  -0.198652  0  3.547311  0  0  -0.210447  0  3.559005  0  0  -0.242185  -0.190367  0  3.539458  0
N  N88  1  0.61144990  0.70933383  0.06281109  1  0  -0.411838  0  3.24142  0  0  -0.329002  0  3.546476  0  0  -0.351653  0  3.556263  0  0  -0.349179  -0.313549  0  3.539369  0
N  N89  1  0.90197136  0.29061175  0.43721510  1  0  -0.412682  0  3.241536  0  0  -0.330353  0  3.54684  0  0  -0.353043  0  3.556653  0  0  -0.349495  -0.314981  0  3.539713  0
N  N90  1  0.38854805  0.29066476  0.93718717  1  0  -0.411841  0  3.241355  0  0  -0.329008  0  3.546398  0  0  -0.351655  0  3.556176  0  0  -0.349135  -0.313519  0  3.539278  0
N  N91  1  0.09803212  0.70939415  0.56278656  1  0  -0.41252  0  3.241541  0  0  -0.330134  0  3.546788  0  0  -0.352846  0  3.556628  0  0  -0.349361  -0.314677  0  3.53956  0
N  N92  1  0.40474369  0.68882949  0.98874489  1  0  -0.26029  0  2.849882  0  0  -0.25821  0  3.115751  0  0  -0.267487  0  3.130458  0  0  -0.215655  -0.251666  0  3.106207  0
N  N93  1  0.71595619  0.31120885  0.51141889  1  0  -0.260777  0  2.850351  0  0  -0.259021  0  3.11578  0  0  -0.268357  0  3.130478  0  0  -0.216146  -0.252364  0  3.106066  0
N  N94  1  0.59525864  0.31117223  0.01125446  1  0  -0.26024  0  2.849721  0  0  -0.258166  0  3.115592  0  0  -0.267439  0  3.130296  0  0  -0.21556  -0.251497  0  3.105953  0
N  N95  1  0.28404335  0.68879292  0.48858384  1  0  -0.260765  0  2.850433  0  0  -0.259044  0  3.115858  0  0  -0.268377  0  3.130551  0  0  -0.216127  -0.252355  0  3.106114  0
N  N96  1  0.51612001  0.76922276  0.94813650  1  0  0.040809  0  3.558732  0  0  0.164739  0  3.744536  0  0  0.15427  0  3.768768  0  0  -0.130141  0.17074  0  3.729523  0
N  N97  1  0.74684810  0.23063998  0.55186222  1  0  0.040401  0  3.557855  0  0  0.165321  0  3.742722  0  0  0.15508  0  3.766532  0  0  -0.12997  0.171262  0  3.727682  0
N  N98  1  0.48387889  0.23077584  0.05186260  1  0  0.040744  0  3.558621  0  0  0.164681  0  3.744424  0  0  0.154195  0  3.768686  0  0  -0.130206  0.170593  0  3.729451  0
N  N99  1  0.25315301  0.76936492  0.44814160  1  0  0.040301  0  3.55796  0  0  0.165323  0  3.742731  0  0  0.155085  0  3.766535  0  0  -0.129866  0.171361  0  3.727695  0
O  O100  1  0.00506264  0.40888759  0.25141775  1  0  -0.635412  0  2.020515  0  0  -0.566291  0  2.288303  0  0  -0.593011  0  2.273691  0  0  -0.32619  -0.547685  0  2.29787  0
O  O101  1  0.59619820  0.59138906  0.24885250  1  0  -0.636296  0  2.022087  0  0  -0.566014  0  2.288699  0  0  -0.592767  0  2.274156  0  0  -0.325702  -0.547294  0  2.298417  0
O  O102  1  0.99493531  0.59111100  0.74858051  1  0  -0.635446  0  2.020551  0  0  -0.566304  0  2.288333  0  0  -0.593003  0  2.273673  0  0  -0.326228  -0.547749  0  2.297912  0
O  O103  1  0.40380699  0.40861276  0.75115277  1  0  -0.636335  0  2.021969  0  0  -0.566095  0  2.288613  0  0  -0.592844  0  2.274066  0  0  -0.325642  -0.547285  0  2.2983  0
O  O104  1  0.20835765  0.49544767  0.17622821  1  0  -0.599018  0  1.968278  0  0  -0.552335  0  2.19788  0  0  -0.574881  0  2.187973  0  0  -0.309659  -0.536615  0  2.204218  0
O  O105  1  0.71304049  0.50480379  0.32395590  1  0  -0.600812  0  1.967855  0  0  -0.554073  0  2.198023  0  0  -0.576615  0  2.187974  0  0  -0.310872  -0.538293  0  2.204499  0
O  O106  1  0.79164261  0.50454992  0.82377222  1  0  -0.598968  0  1.968312  0  0  -0.55227  0  2.197918  0  0  -0.57482  0  2.188014  0  0  -0.309697  -0.536555  0  2.20425  0
O  O107  1  0.28696269  0.49519585  0.67604357  1  0  -0.600859  0  1.967939  0  0  -0.554133  0  2.198093  0  0  -0.576679  0  2.188045  0  0  -0.310807  -0.538237  0  2.204525  0
O  O108  1  0.14545884  0.90665847  0.05149372  1  0  -0.617461  0  1.958002  0  0  -0.569205  0  2.179289  0  0  -0.591372  0  2.167738  0  0  -0.322899  -0.553613  0  2.186891  0
O  O109  1  0.23876460  0.09341956  0.44862490  1  0  -0.616601  0  1.958528  0  0  -0.568245  0  2.178974  0  0  -0.59038  0  2.16741  0  0  -0.322209  -0.552568  0  2.186519  0
O  O110  1  0.85453359  0.09334222  0.94850611  1  0  -0.617401  0  1.958125  0  0  -0.569144  0  2.179403  0  0  -0.59131  0  2.167855  0  0  -0.322845  -0.553557  0  2.187013  0
O  O111  1  0.76124172  0.90658640  0.55138014  1  0  -0.616581  0  1.958529  0  0  -0.568216  0  2.178994  0  0  -0.590348  0  2.167428  0  0  -0.322326  -0.552723  0  2.186599  0
O  O112  1  0.93200728  0.87306293  0.10781389  1  0  -0.656389  0  2.040961  0  0  -0.586724  0  2.276406  0  0  -0.613879  0  2.264521  0  0  -0.313081  -0.567739  0  2.2841  0
O  O113  1  0.05896971  0.12683020  0.39173118  1  0  -0.656752  0  2.044399  0  0  -0.587276  0  2.279296  0  0  -0.614495  0  2.267391  0  0  -0.312934  -0.567989  0  2.287103  0
O  O114  1  0.06799611  0.12694090  0.89218788  1  0  -0.656293  0  2.040853  0  0  -0.586652  0  2.276293  0  0  -0.613809  0  2.264408  0  0  -0.312994  -0.567591  0  2.283957  0
O  O115  1  0.94103033  0.87316319  0.60826609  1  0  -0.656642  0  2.044445  0  0  -0.587161  0  2.279375  0  0  -0.614383  0  2.267474  0  0  -0.313001  -0.568062  0  2.287254  0
O  O116  1  0.80933405  0.90336794  0.33617832  1  0  -0.843364  0  1.937132  0  0  -0.77317  0  2.161983  0  0  -0.796027  0  2.124568  0  0  -0.5859  -0.756985  0  2.188261  0
O  O117  1  0.90507720  0.09655070  0.16393073  1  0  -0.842484  0  1.936062  0  0  -0.771864  0  2.160517  0  0  -0.794697  0  2.123112  0  0  -0.585135  -0.755774  0  2.186362  0
O  O118  1  0.19066739  0.09663387  0.66382695  1  0  -0.843336  0  1.937135  0  0  -0.773145  0  2.16196  0  0  -0.796007  0  2.12456  0  0  -0.585963  -0.75703  0  2.188274  0
O  O119  1  0.09492119  0.90344689  0.83606969  1  0  -0.842518  0  1.93607  0  0  -0.771904  0  2.160494  0  0  -0.794741  0  2.123087  0  0  -0.585102  -0.755781  0  2.186323  0
