# generated using pymatgen
data_CuH10C9N2(ClO)2
_symmetry_space_group_name_H-M   'P 1'
_cell_length_a   8.49687196
_cell_length_b   10.00631004
_cell_length_c   13.96109140
_cell_angle_alpha   90.00021365
_cell_angle_beta   89.99975851
_cell_angle_gamma   105.48560914
_symmetry_Int_Tables_number   1
_chemical_formula_structural   CuH10C9N2(ClO)2
_chemical_formula_sum   'Cu4 H40 C36 N8 Cl8 O8'
_cell_volume   1143.91341153
_cell_formula_units_Z   4
loop_
 _symmetry_equiv_pos_site_id
 _symmetry_equiv_pos_as_xyz
  1  'x, y, z'
loop_
 _atom_site_type_symbol
 _atom_site_label
 _atom_site_symmetry_multiplicity
 _atom_site_fract_x
 _atom_site_fract_y
 _atom_site_fract_z
 _atom_site_occupancy
 _atom_site_hle17_ddec_charge
 _atom_site_hle17_ddec_spin_density
 _atom_site_hle17_ddec_sum_bond_order
 _atom_site_hle17_magmom
 _atom_site_hse06_10hf_ddec_charge
 _atom_site_hse06_10hf_ddec_spin_density
 _atom_site_hse06_10hf_ddec_sum_bond_order
 _atom_site_hse06_10hf_magmom
 _atom_site_hse06_ddec_charge
 _atom_site_hse06_ddec_spin_density
 _atom_site_hse06_ddec_sum_bond_order
 _atom_site_hse06_magmom
 _atom_site_pbe_cm5_charge
 _atom_site_pbe_ddec_charge
 _atom_site_pbe_ddec_spin_density
 _atom_site_pbe_ddec_sum_bond_order
 _atom_site_pbe_magmom
Cu  Cu0  1  0.67027898  0.64767635  0.44133363  1  0.731043  -0.622868  1.931561  -0.447  0.713152  -0.727877  2.335175  -0.567  0.802588  -0.796464  2.259766  -0.653  0.588999  0.663654  -0.683272  2.381413  -0.516
Cu  Cu1  1  0.82972478  0.85232976  0.94133757  1  0.730997  -0.622838  1.931641  -0.447  0.71311  -0.72787  2.335237  -0.567  0.802551  -0.796455  2.259831  -0.653  0.589013  0.663627  -0.683244  2.38146  -0.516
Cu  Cu2  1  0.32972638  0.35231163  0.55866551  1  0.730976  -0.622852  1.93163  -0.447  0.713078  -0.727878  2.335238  -0.567  0.802508  -0.79646  2.259832  -0.653  0.588961  0.66359  -0.683276  2.381479  -0.516
Cu  Cu3  1  0.17027773  0.14768253  0.05866371  1  0.731017  -0.622848  1.931524  -0.447  0.713146  -0.727877  2.335115  -0.567  0.802562  -0.796462  2.259748  -0.653  0.588988  0.663662  -0.683276  2.381355  -0.516
H  H4  1  0.57678398  0.16402766  0.09997657  1  0.417613  0.000232  0.787274  0.0  0.393556  0.000118  0.85516  0.0  0.404527  0.0001  0.842444  0.0  0.333747  0.385555  0.00015  0.864499  0.0
H  H5  1  0.92322538  0.33597855  0.59997520  1  0.417585  0.00023  0.787288  0.0  0.393534  0.000118  0.855141  0.0  0.404496  0.0001  0.842453  0.0  0.333758  0.385535  0.00015  0.864477  0.0
H  H6  1  0.42323214  0.83597355  0.90002328  1  0.417594  0.000232  0.787272  0.0  0.393546  0.000118  0.85511  0.0  0.404503  0.0001  0.842437  0.0  0.333738  0.385544  0.00015  0.864451  0.0
H  H7  1  0.07676327  0.66402485  0.40002608  1  0.417596  0.000231  0.787323  0.0  0.393527  0.000118  0.855199  0.0  0.404493  0.0001  0.842498  0.0  0.333744  0.385528  0.00015  0.864535  0.0
H  H8  1  0.61976590  0.50712921  0.16757412  1  0.125225  -8.2e-05  0.921054  0.0  0.140887  -8.8e-05  0.977248  0.0  0.143871  -3.6e-05  0.976167  0.0  0.105419  0.138944  -0.000138  0.977955  0.0
H  H9  1  0.88023115  0.99287928  0.66757543  1  0.125242  -8.6e-05  0.921066  0.0  0.140872  -8.8e-05  0.977269  0.0  0.143851  -3.6e-05  0.976202  0.0  0.105467  0.138928  -0.000138  0.977978  0.0
H  H10  1  0.38023821  0.49287460  0.83243075  1  0.125152  -8.4e-05  0.921147  0.0  0.140788  -8.8e-05  0.977354  0.0  0.143765  -3.7e-05  0.976284  0.0  0.105404  0.138845  -0.000138  0.978062  0.0
H  H11  1  0.11976796  0.00712054  0.33242228  1  0.125219  -8.1e-05  0.921147  0.0  0.140866  -8.8e-05  0.977328  0.0  0.143846  -3.6e-05  0.976261  0.0  0.105462  0.138923  -0.000138  0.978039  0.0
H  H12  1  0.67673962  0.43641124  0.27357784  1  0.120448  0.000256  0.957878  0.0  0.13237  0.000117  1.024474  0.0  0.135207  0.000138  1.02282  0.0  0.100875  0.130471  9.7e-05  1.025338  0.0
H  H13  1  0.82325952  0.06359923  0.77357960  1  0.120387  0.000256  0.957863  0.0  0.132323  0.000117  1.02443  0.0  0.135164  0.000139  1.022778  0.0  0.100839  0.130427  9.8e-05  1.025284  0.0
H  H14  1  0.32325834  0.56358547  0.72642417  1  0.120419  0.000257  0.957939  0.0  0.132393  0.000117  1.024449  0.0  0.135231  0.000138  1.022798  0.0  0.10088  0.130495  9.8e-05  1.02531  0.0
H  H15  1  0.17674073  0.93640369  0.22641810  1  0.120438  0.000257  0.957766  0.0  0.13237  0.000117  1.024336  0.0  0.135212  0.000138  1.022684  0.0  0.100886  0.130473  9.7e-05  1.025196  0.0
H  H16  1  0.33943257  0.48227316  0.23556700  1  0.056026  -0.003164  0.950687  -0.004  0.072308  -0.002647  1.012905  -0.003  0.070965  -0.001917  1.015798  -0.002  0.099327  0.073339  -0.003209  1.010703  -0.004
H  H17  1  0.16056672  0.01772714  0.73556551  1  0.056073  -0.003163  0.950656  -0.004  0.072354  -0.002647  1.012858  -0.003  0.071006  -0.001917  1.015753  -0.002  0.099348  0.073386  -0.003209  1.010659  -0.004
H  H18  1  0.66056810  0.51772448  0.76443357  1  0.056054  -0.003162  0.950632  -0.004  0.072326  -0.002647  1.012859  -0.003  0.070979  -0.001917  1.015757  -0.002  0.099352  0.073353  -0.003208  1.01066  -0.004
H  H19  1  0.83943394  0.98227050  0.26443148  1  0.056062  -0.003162  0.950695  -0.004  0.072337  -0.002647  1.012895  -0.003  0.070991  -0.001917  1.01579  -0.002  0.099358  0.073368  -0.003208  1.010703  -0.004
H  H20  1  0.39084172  0.39868960  0.33859530  1  0.080953  -8e-06  0.958995  -0.001  0.092048  -4.1e-05  1.030903  -0.001  0.092305  2.1e-05  1.030634  -0.001  0.096255  0.091585  -0.000147  1.031304  -0.001
H  H21  1  0.10915936  0.10131103  0.83859345  1  0.080948  -7e-06  0.959038  -0.001  0.092045  -4.1e-05  1.030934  -0.001  0.092298  2.1e-05  1.030668  -0.001  0.096261  0.091585  -0.000147  1.031327  -0.001
H  H22  1  0.60915706  0.60129971  0.66140599  1  0.080989  -5e-06  0.958917  -0.001  0.092122  -4.1e-05  1.030783  -0.001  0.092378  2.1e-05  1.030517  -0.001  0.09625  0.091655  -0.000147  1.031181  -0.001
H  H23  1  0.89084509  0.89870013  0.16140641  1  0.080971  -8e-06  0.959083  -0.001  0.092104  -4.1e-05  1.030926  -0.001  0.092357  2.1e-05  1.030665  -0.001  0.096295  0.091645  -0.000147  1.031329  -0.001
H  H24  1  0.38796061  0.71211659  0.23759573  1  0.088642  -0.00398  0.922367  -0.004  0.10087  -0.00312  0.983853  -0.003  0.103047  -0.002349  0.980506  -0.002  0.120924  0.099291  -0.003686  0.986351  -0.003
H  H25  1  0.11202520  0.78788158  0.73759007  1  0.088583  -0.003984  0.922274  -0.004  0.100848  -0.003121  0.983766  -0.003  0.103012  -0.002349  0.980433  -0.002  0.120911  0.09927  -0.003686  0.986265  -0.003
H  H26  1  0.61203237  0.28787296  0.76240842  1  0.088603  -0.003984  0.922244  -0.004  0.10084  -0.003121  0.983758  -0.003  0.103008  -0.00235  0.980423  -0.002  0.1209  0.099263  -0.003686  0.986251  -0.003
H  H27  1  0.88798007  0.21212219  0.26241337  1  0.088605  -0.003981  0.922323  -0.004  0.100822  -0.003121  0.983793  -0.003  0.102982  -0.002349  0.980467  -0.002  0.120911  0.099245  -0.003686  0.986291  -0.003
H  H28  1  0.42583138  0.97305892  0.25921109  1  0.116392  -0.000796  0.95478  -0.001  0.126782  -0.000745  1.014071  -0.001  0.12977  -0.000547  1.012967  -0.001  0.111826  0.124187  -0.000703  1.015542  -0.001
H  H29  1  0.07416126  0.52694220  0.75920628  1  0.11632  -0.000798  0.954858  -0.001  0.126726  -0.000745  1.014131  -0.001  0.129715  -0.000547  1.013027  -0.001  0.1118  0.124134  -0.000703  1.015599  -0.001
H  H30  1  0.57416586  0.02692940  0.74079879  1  0.116351  -0.000796  0.954889  -0.001  0.126762  -0.000745  1.014116  -0.001  0.129747  -0.000546  1.01302  -0.001  0.111822  0.124166  -0.000703  1.01558  -0.001
H  H31  1  0.92582892  0.47306219  0.24079787  1  0.116325  -0.000797  0.954933  -0.001  0.126746  -0.000745  1.014158  -0.001  0.129734  -0.000546  1.013053  -0.001  0.111823  0.124145  -0.000703  1.015633  -0.001
H  H32  1  0.55673761  0.19050615  0.35282793  1  0.10275  -0.000697  0.963467  0.0  0.11463  -0.000417  1.021889  0.0  0.117002  -0.000263  1.020604  0.0  0.103442  0.113323  -0.000549  1.021994  0.0
H  H33  1  0.94326154  0.30949937  0.85283002  1  0.102771  -0.000696  0.963524  0.0  0.114637  -0.000417  1.021941  0.0  0.117007  -0.000263  1.020657  0.0  0.103429  0.113336  -0.000549  1.022038  0.0
H  H34  1  0.44326193  0.80948523  0.64717479  1  0.102703  -0.000696  0.963427  0.0  0.114619  -0.000417  1.021812  0.0  0.11699  -0.000263  1.020527  0.0  0.103433  0.113311  -0.000549  1.021909  0.0
H  H35  1  0.05671318  0.69050462  0.14716769  1  0.10272  -0.000695  0.96349  0.0  0.114602  -0.000417  1.021884  0.0  0.116972  -0.000263  1.0206  0.0  0.103428  0.113296  -0.000549  1.021988  0.0
H  H36  1  0.75887616  0.17935576  0.47946602  1  0.117427  -0.002245  0.979254  0.0  0.124852  -0.002238  1.042705  0.0  0.12904  -0.00176  1.040273  0.0  0.098294  0.121585  -0.002081  1.045808  -0.001
H  H37  1  0.74113313  0.32065403  0.97947442  1  0.117456  -0.002248  0.979241  0.0  0.124916  -0.002237  1.042662  0.0  0.129101  -0.00176  1.040232  0.0  0.098323  0.121649  -0.00208  1.04576  -0.001
H  H38  1  0.24113187  0.82063947  0.52053097  1  0.117381  -0.002246  0.979363  0.0  0.124815  -0.002238  1.042812  0.0  0.129002  -0.00176  1.040378  0.0  0.098314  0.121546  -0.002081  1.045913  -0.001
H  H39  1  0.25884967  0.67935593  0.02052401  1  0.117377  -0.00225  0.97936  0.0  0.124856  -0.002238  1.042744  0.0  0.129042  -0.00176  1.040311  0.0  0.09832  0.121581  -0.002081  1.045853  -0.001
H  H40  1  0.80915242  0.94781112  0.51860788  1  0.081247  -0.000519  0.977381  -0.002  0.089546  -0.00071  1.043136  -0.002  0.092335  -0.000458  1.040392  -0.001  0.105389  0.087312  -0.000744  1.04534  -0.002
H  H41  1  0.69085583  0.55219947  0.01861223  1  0.081235  -0.000516  0.977457  -0.002  0.089519  -0.00071  1.043242  -0.002  0.092304  -0.000458  1.040499  -0.001  0.10536  0.087284  -0.000743  1.045438  -0.002
H  H42  1  0.19085909  0.05218397  0.48138553  1  0.081186  -0.000518  0.977448  -0.002  0.089519  -0.00071  1.043138  -0.002  0.092316  -0.000458  1.040394  -0.001  0.105376  0.087285  -0.000744  1.045343  -0.002
H  H43  1  0.30914782  0.44781593  0.98138476  1  0.081208  -0.000519  0.977413  -0.002  0.089544  -0.00071  1.043115  -0.002  0.092336  -0.000458  1.040364  -0.001  0.105386  0.087306  -0.000743  1.045319  -0.002
C  C44  1  0.51302270  0.28898054  0.18582756  1  0.705582  0.001058  3.744745  0.001  0.660472  0.00093  4.051598  0.001  0.693733  0.000839  4.042944  0.001  0.235302  0.637732  0.000952  4.057121  0.001
C  C45  1  0.98698272  0.21102617  0.68582426  1  0.705886  0.001062  3.744464  0.001  0.660647  0.000932  4.051452  0.001  0.693911  0.000838  4.042806  0.001  0.235402  0.637904  0.000953  4.056977  0.001
C  C46  1  0.48698533  0.71101470  0.81417444  1  0.705546  0.001058  3.744668  0.001  0.660476  0.000932  4.051443  0.001  0.693727  0.000838  4.042807  0.001  0.235347  0.637741  0.000952  4.056963  0.001
C  C47  1  0.01300746  0.78897822  0.31417631  1  0.705599  0.001056  3.744639  0.001  0.660446  0.000932  4.051507  0.001  0.693702  0.000838  4.042873  0.001  0.235351  0.637711  0.000952  4.057028  0.001
C  C48  1  0.57276757  0.43303981  0.22576509  1  -0.294564  -0.000617  3.659982  -0.001  -0.331516  -0.000368  3.897647  0.0  -0.339826  -0.000325  3.906087  0.0  -0.161334  -0.325504  -0.000401  3.891258  0.0
C  C49  1  0.92723531  0.06697031  0.72576587  1  -0.294578  -0.000618  3.659852  -0.001  -0.331486  -0.000367  3.897583  0.0  -0.339757  -0.000325  3.905913  0.0  -0.16132  -0.325502  -0.000401  3.891253  0.0
C  C50  1  0.42723426  0.56695778  0.77423548  1  -0.294448  -0.000618  3.660004  -0.001  -0.331443  -0.000368  3.897676  0.0  -0.339706  -0.000324  3.906022  0.0  -0.161346  -0.325446  -0.000401  3.891295  0.0
C  C51  1  0.07276456  0.93303157  0.27423255  1  -0.294502  -0.000619  3.659876  -0.001  -0.331453  -0.000367  3.897564  0.0  -0.339721  -0.000327  3.905901  0.0  -0.161347  -0.325452  -0.000401  3.891198  0.0
C  C52  1  0.44079016  0.47557586  0.28266489  1  0.044014  -0.000336  3.672888  0.001  -0.006049  -0.001657  3.92032  -0.001  -0.00022  -0.000763  3.935096  0.0  -0.066615  -0.009339  -0.002541  3.910274  -0.001
C  C53  1  0.05921197  0.02442662  0.78266369  1  0.04383  -0.00034  3.672965  0.001  -0.006231  -0.001659  3.920352  -0.001  -0.000399  -0.000762  3.935133  0.0  -0.066702  -0.009516  -0.002542  3.910294  -0.001
C  C54  1  0.55920900  0.52441449  0.71733640  1  0.044025  -0.000341  3.672678  0.001  -0.006082  -0.001656  3.919974  -0.001  -0.000257  -0.000764  3.93475  0.0  -0.066575  -0.009354  -0.002542  3.909911  -0.001
C  C55  1  0.94079174  0.97557931  0.21733616  1  0.043887  -0.000341  3.673092  0.001  -0.006185  -0.001657  3.920371  -0.001  -0.000355  -0.000762  3.935154  0.0  -0.06671  -0.009468  -0.002541  3.91033  -0.001
C  C56  1  0.47205914  0.71638313  0.29767617  1  0.122464  0.020535  3.62163  0.015  0.080612  0.006199  3.873103  0.004  0.096338  0.009229  3.882073  0.006  0.088979  0.069337  0.004357  3.868795  0.003
C  C57  1  0.02794102  0.78361994  0.79767717  1  0.122573  0.020547  3.62136  0.015  0.08057  0.006199  3.872913  0.004  0.096301  0.009235  3.881889  0.006  0.088963  0.069297  0.004356  3.868601  0.003
C  C58  1  0.52793192  0.28360440  0.70232655  1  0.122793  0.02051  3.621458  0.015  0.080808  0.006199  3.872925  0.004  0.096538  0.009229  3.8819  0.006  0.089123  0.069537  0.004356  3.868608  0.003
C  C59  1  0.97207003  0.21638674  0.20232699  1  0.12249  0.020568  3.621722  0.015  0.080695  0.006198  3.873039  0.004  0.096431  0.009235  3.882018  0.006  0.089049  0.069416  0.004357  3.868734  0.003
C  C60  1  0.54345539  0.84828679  0.34473202  1  0.196189  -0.001173  3.77958  -0.002  0.197053  -0.002012  4.025034  -0.002  0.202526  -0.000766  4.045004  -0.001  0.11685  0.193004  -0.002677  4.012439  -0.003
C  C61  1  0.95653693  0.65171206  0.84473294  1  0.195981  -0.001195  3.779757  -0.002  0.196961  -0.002012  4.025041  -0.002  0.202432  -0.000771  4.045011  -0.001  0.116822  0.192911  -0.002679  4.012453  -0.003
C  C62  1  0.45655152  0.15170218  0.65526067  1  0.196145  -0.001167  3.779462  -0.002  0.197045  -0.002012  4.02494  -0.002  0.202517  -0.000769  4.044912  -0.001  0.11694  0.192994  -0.002677  4.012345  -0.003
C  C63  1  0.04345866  0.34829421  0.15526620  1  0.196287  -0.001224  3.779376  -0.002  0.197151  -0.002012  4.024799  -0.002  0.202622  -0.000768  4.044767  -0.001  0.116891  0.193108  -0.002677  4.012199  -0.003
C  C64  1  0.50942703  0.97187638  0.31807457  1  -0.122301  -0.000768  3.668556  -0.001  -0.141115  -0.001106  3.910138  -0.001  -0.146562  -0.000692  3.929481  -0.001  -0.068999  -0.137682  -0.001294  3.898286  -0.001
C  C65  1  0.99057006  0.52812217  0.81807723  1  -0.122144  -0.000739  3.668522  -0.001  -0.141032  -0.001106  3.910077  -0.001  -0.146479  -0.000688  3.929422  -0.001  -0.068965  -0.137599  -0.001293  3.898212  -0.001
C  C66  1  0.49057675  0.02811693  0.68192815  1  -0.12228  -0.000773  3.66842  -0.001  -0.141062  -0.001105  3.90999  -0.001  -0.146509  -0.000689  3.929332  -0.001  -0.069067  -0.137629  -0.001294  3.898132  -0.001
C  C67  1  0.00942128  0.47188217  0.18192693  1  -0.122241  -0.000712  3.668341  -0.001  -0.14107  -0.001106  3.909943  -0.001  -0.146514  -0.00069  3.92928  -0.001  -0.069055  -0.137631  -0.001294  3.898081  -0.001
C  C68  1  0.58423825  0.09252718  0.36834732  1  -0.005865  0.004571  3.704578  0.003  -0.022675  0.001555  3.949868  0.001  -0.018939  0.0023  3.966555  0.001  -0.067641  -0.025448  0.001329  3.938551  0.001
C  C69  1  0.91576163  0.40747101  0.86835117  1  -0.005879  0.004538  3.70465  0.003  -0.022651  0.001555  3.949964  0.001  -0.018915  0.002296  3.966649  0.001  -0.067649  -0.025424  0.001329  3.938643  0.001
C  C70  1  0.41576709  0.90746396  0.63165612  1  -0.005875  0.00457  3.704338  0.003  -0.022708  0.001554  3.949636  0.001  -0.018974  0.002297  3.966319  0.001  -0.067638  -0.025485  0.001329  3.938312  0.001
C  C71  1  0.08422237  0.59253259  0.13165011  1  -0.005835  0.004505  3.704422  0.003  -0.022627  0.001556  3.949724  0.001  -0.018893  0.002297  3.966409  0.001  -0.067585  -0.025411  0.00133  3.938411  0.001
C  C72  1  0.69519499  0.08672316  0.44050198  1  -0.099505  -0.005275  3.690598  -0.005  -0.114235  -0.004017  3.939028  -0.004  -0.119667  -0.003255  3.957203  -0.003  -0.079053  -0.110733  -0.005282  3.927438  -0.005
C  C73  1  0.80480680  0.41328153  0.94050257  1  -0.099647  -0.005245  3.690503  -0.005  -0.114448  -0.004018  3.939012  -0.004  -0.119878  -0.003252  3.95718  -0.003  -0.07914  -0.110952  -0.005282  3.927421  -0.005
C  C74  1  0.30481114  0.91326689  0.55950217  1  -0.099441  -0.005278  3.690543  -0.005  -0.11422  -0.004018  3.939067  -0.004  -0.119645  -0.003254  3.957237  -0.003  -0.07908  -0.110714  -0.005283  3.927467  -0.005
C  C75  1  0.19517988  0.58672616  0.05949657  1  -0.099547  -0.005219  3.690554  -0.005  -0.11434  -0.004018  3.939012  -0.004  -0.119765  -0.003253  3.957178  -0.003  -0.079137  -0.110827  -0.005282  3.927415  -0.005
C  C76  1  0.72345032  0.95922619  0.46311665  1  0.138033  0.00713  3.680277  0.006  0.110945  0.002062  3.928377  0.002  0.119544  0.003406  3.946659  0.003  0.052819  0.105916  0.00085  3.916147  0.001
C  C77  1  0.77655408  0.54078209  0.96311992  1  0.138208  0.007101  3.680073  0.006  0.111081  0.002062  3.928203  0.002  0.119688  0.003404  3.946474  0.003  0.052932  0.106053  0.000851  3.915965  0.001
C  C78  1  0.27654924  0.04076204  0.53687819  1  0.138193  0.007131  3.680138  0.006  0.11111  0.002063  3.92831  0.002  0.119698  0.003405  3.946598  0.003  0.052938  0.10608  0.000851  3.916083  0.001
C  C79  1  0.22345461  0.45923100  0.03688209  1  0.138148  0.007079  3.680138  0.006  0.111044  0.002063  3.928287  0.002  0.119643  0.003404  3.946562  0.003  0.05289  0.106024  0.000851  3.916045  0.001
N  N80  1  0.51041012  0.60845894  0.32844219  1  -0.242659  -0.075528  3.241193  -0.094  -0.178943  -0.057223  3.520342  -0.075  -0.209855  -0.04881  3.541906  -0.069  -0.331506  -0.161809  -0.063325  3.508847  -0.08
N  N81  1  0.98959074  0.89154686  0.82843936  1  -0.242552  -0.075538  3.240982  -0.094  -0.178783  -0.057226  3.520095  -0.075  -0.209685  -0.048818  3.541636  -0.069  -0.331472  -0.161644  -0.063333  3.508583  -0.08
N  N82  1  0.48958750  0.39153042  0.67155981  1  -0.243037  -0.075499  3.241373  -0.094  -0.179111  -0.057219  3.520391  -0.075  -0.210011  -0.048808  3.541933  -0.069  -0.331649  -0.161976  -0.063321  3.508882  -0.08
N  N83  1  0.01041296  0.10845908  0.17156121  1  -0.242782  -0.075553  3.241479  -0.094  -0.179015  -0.05722  3.520489  -0.075  -0.209921  -0.048812  3.542039  -0.069  -0.331562  -0.161882  -0.063322  3.508999  -0.08
N  N84  1  0.64735934  0.84244698  0.41744682  1  -0.319902  -0.05952  3.316116  -0.074  -0.267097  -0.050407  3.591946  -0.066  -0.296338  -0.042587  3.615093  -0.06  -0.334605  -0.248673  -0.056435  3.576879  -0.071
N  N85  1  0.85263794  0.65756352  0.91745162  1  -0.31994  -0.059498  3.316262  -0.074  -0.267031  -0.050399  3.591924  -0.066  -0.296274  -0.042582  3.615073  -0.06  -0.334594  -0.248615  -0.056429  3.576862  -0.071
N  N86  1  0.35263484  0.15753621  0.58254946  1  -0.319978  -0.059523  3.316201  -0.074  -0.26725  -0.050407  3.592145  -0.066  -0.296493  -0.042587  3.615302  -0.06  -0.334725  -0.248834  -0.056436  3.577097  -0.071
N  N87  1  0.14736803  0.34245179  0.08255182  1  -0.319953  -0.059479  3.316164  -0.074  -0.267186  -0.050403  3.592056  -0.066  -0.296426  -0.042585  3.615203  -0.06  -0.334652  -0.24878  -0.056431  3.577008  -0.071
Cl  Cl88  1  0.67373047  0.42526971  0.46174005  1  -0.524244  -0.123532  0.992177  -0.149  -0.53118  -0.075245  1.29079  -0.096  -0.565885  -0.055439  1.26552  -0.077  -0.308216  -0.508807  -0.087938  1.307942  -0.107
Cl  Cl89  1  0.82628087  0.07473572  0.96174614  1  -0.524211  -0.123534  0.992217  -0.149  -0.531163  -0.075242  1.290835  -0.096  -0.565875  -0.055437  1.265567  -0.077  -0.308208  -0.508796  -0.087937  1.30799  -0.107
Cl  Cl90  1  0.32627680  0.57472346  0.53825623  1  -0.524202  -0.123546  0.992091  -0.149  -0.531184  -0.075251  1.290736  -0.096  -0.565896  -0.055444  1.265476  -0.077  -0.308209  -0.508806  -0.087947  1.307879  -0.107
Cl  Cl91  1  0.17372321  0.92527125  0.03824871  1  -0.524201  -0.12354  0.992095  -0.149  -0.531195  -0.075247  1.290752  -0.096  -0.565904  -0.05544  1.265489  -0.077  -0.308202  -0.50882  -0.087942  1.307895  -0.107
Cl  Cl92  1  0.86719310  0.72175589  0.55481814  1  -0.526564  -0.133814  0.884578  -0.159  -0.528452  -0.082106  1.151282  -0.104  -0.563094  -0.060892  1.129554  -0.083  -0.329626  -0.508451  -0.094187  1.166708  -0.113
Cl  Cl93  1  0.63280338  0.77825218  0.05482252  1  -0.526559  -0.133825  0.884532  -0.159  -0.528459  -0.082111  1.151233  -0.104  -0.5631  -0.060896  1.129507  -0.083  -0.32964  -0.508463  -0.094192  1.16666  -0.113
Cl  Cl94  1  0.13280988  0.27824166  0.44518243  1  -0.526522  -0.133814  0.884586  -0.159  -0.528425  -0.082106  1.151321  -0.104  -0.563068  -0.060893  1.129596  -0.083  -0.329614  -0.508415  -0.094181  1.166734  -0.113
Cl  Cl95  1  0.36718869  0.22176054  0.94517661  1  -0.526508  -0.133823  0.884544  -0.159  -0.528405  -0.082109  1.151253  -0.104  -0.56305  -0.060895  1.12953  -0.083  -0.329615  -0.508406  -0.09419  1.166676  -0.113
O  O96  1  0.62724211  0.25324007  0.13153576  1  -0.554772  0.000245  2.080631  0.0  -0.504023  7.2e-05  2.297211  0.0  -0.524764  9.2e-05  2.283242  0.0  -0.329344  -0.489076  0.000118  2.306938  0.0
O  O97  1  0.87276320  0.24676853  0.63153716  1  -0.554831  0.000246  2.080604  0.0  -0.504016  6.9e-05  2.297199  0.0  -0.52477  9.8e-05  2.283247  0.0  -0.329398  -0.489066  0.000118  2.306924  0.0
O  O98  1  0.37276973  0.74676552  0.86846052  1  -0.55476  0.000246  2.080592  0.0  -0.503998  7e-05  2.297138  0.0  -0.524746  9.3e-05  2.283175  0.0  -0.329379  -0.489053  0.000118  2.30686  0.0
O  O99  1  0.12722390  0.75323388  0.36846341  1  -0.554732  0.000246  2.080643  0.0  -0.503917  7e-05  2.29717  0.0  -0.524674  9.3e-05  2.283232  0.0  -0.329364  -0.488971  0.000118  2.30689  0.0
O  O100  1  0.37796489  0.20980711  0.20104422  1  -0.553615  0.000896  1.989777  0.0  -0.524783  0.000968  2.235437  0.0  -0.54763  0.001197  2.225678  0.0  -0.2815  -0.509704  0.000752  2.242501  0.0
O  O101  1  0.12204033  0.29020229  0.70104068  1  -0.553736  0.000898  1.989611  0.0  -0.524826  0.000969  2.235263  0.0  -0.547676  0.001191  2.225503  0.0  -0.281536  -0.509758  0.000752  2.242359  0.0
O  O102  1  0.62203889  0.79018620  0.79895349  1  -0.553589  0.000897  1.989754  0.0  -0.524819  0.000968  2.235423  0.0  -0.547667  0.001197  2.225672  0.0  -0.281533  -0.509723  0.000752  2.24244  0.0
O  O103  1  0.87795642  0.70980394  0.29895488  1  -0.553678  0.000896  1.98974  0.0  -0.524842  0.000968  2.23541  0.0  -0.547688  0.001198  2.225653  0.0  -0.281534  -0.509753  0.000753  2.24245  0.0
