# generated using pymatgen
data_CsPH3C2N3O4
_symmetry_space_group_name_H-M   'P 1'
_cell_length_a   6.79359394
_cell_length_b   7.46943613
_cell_length_c   14.97242592
_cell_angle_alpha   89.99988843
_cell_angle_beta   90.00017935
_cell_angle_gamma   93.67863801
_symmetry_Int_Tables_number   1
_chemical_formula_structural   CsPH3C2N3O4
_chemical_formula_sum   'Cs4 P4 H12 C8 N12 O16'
_cell_volume   758.20009918
_cell_formula_units_Z   4
loop_
 _symmetry_equiv_pos_site_id
 _symmetry_equiv_pos_as_xyz
  1  'x, y, z'
loop_
 _atom_site_type_symbol
 _atom_site_label
 _atom_site_symmetry_multiplicity
 _atom_site_fract_x
 _atom_site_fract_y
 _atom_site_fract_z
 _atom_site_occupancy
 _atom_site_hle17_bader_spin_density
 _atom_site_hle17_ddec_charge
 _atom_site_hle17_ddec_spin_density
 _atom_site_hle17_ddec_sum_bond_order
 _atom_site_hle17_magmom
 _atom_site_hse06_10hf_bader_charge
 _atom_site_hse06_10hf_bader_spin_density
 _atom_site_hse06_10hf_ddec_charge
 _atom_site_hse06_10hf_ddec_spin_density
 _atom_site_hse06_10hf_ddec_sum_bond_order
 _atom_site_hse06_10hf_magmom
 _atom_site_hse06_bader_spin_density
 _atom_site_hse06_ddec_charge
 _atom_site_hse06_ddec_spin_density
 _atom_site_hse06_ddec_sum_bond_order
 _atom_site_hse06_magmom
 _atom_site_pbe_bader_spin_density
 _atom_site_pbe_cm5_charge
 _atom_site_pbe_ddec_charge
 _atom_site_pbe_ddec_spin_density
 _atom_site_pbe_ddec_sum_bond_order
 _atom_site_pbe_magmom
Cs  Cs0  1  0.54109685  0.79741403  0.37202321  1  0  0.968244  0  0.53699  0  0.919715  0  0.922335  0  0.754439  0  0  0.935969  0  0.732646  0  0  0.915627  0.911965  0  0.770052  0
Cs  Cs1  1  0.45890209  0.70258380  0.87202367  1  0  0.968242  0  0.536986  0  0.919722  0  0.922349  0  0.754416  0  0  0.935982  0  0.732622  0  0  0.915626  0.911977  0  0.770034  0
Cs  Cs2  1  0.45890386  0.20258207  0.62797528  1  0  0.968237  0  0.536994  0  0.919729  0  0.922349  0  0.754413  0  0  0.935987  0  0.732614  0  0  0.915629  0.911984  0  0.770033  0
Cs  Cs3  1  0.54109898  0.29741766  0.12797683  1  0  0.96824  0  0.536993  0  0.919711  0  0.922354  0  0.754408  0  0  0.935988  0  0.732614  0  0  0.915628  0.911988  0  0.770021  0
P  P4  1  0.75094598  0.71343825  0.63779062  1  0  1.597138  0  4.831428  0  3.583696  0  1.419942  0  5.354282  0  0  1.474293  0  5.312563  0  0  0.450425  1.382216  0  5.3823  0
P  P5  1  0.24905279  0.78655907  0.13779109  1  0  1.59705  0  4.831511  0  3.583958  0  1.419848  0  5.354377  0  0  1.4742  0  5.31266  0  0  0.450376  1.382113  0  5.382411  0
P  P6  1  0.24905344  0.28656052  0.36220921  1  0  1.597042  0  4.831553  0  3.583691  0  1.41984  0  5.354422  0  0  1.474191  0  5.312703  0  0  0.450375  1.382096  0  5.382475  0
P  P7  1  0.75094533  0.21344238  0.86220807  1  0  1.597009  0  4.831544  0  3.583749  0  1.419805  0  5.354415  0  0  1.474156  0  5.312701  0  0  0.450383  1.382066  0  5.38245  0
H  H8  1  0.87360277  0.93175496  0.53644697  1  0  0.340128  0  0.934685  0  0.5455  0  0.318667  0  1.000124  0  0  0.328938  0  0.990837  0  0  0.310419  0.311457  0  1.006626  0
H  H9  1  0.12639705  0.56824675  0.03644681  1  0  0.340134  0  0.934686  0  0.545524  0  0.318674  0  1.00012  0  0  0.328944  0  0.990837  0  0  0.310436  0.311463  0  1.006622  0
H  H10  1  0.12639829  0.06824651  0.46355286  1  0  0.340129  0  0.934697  0  0.545519  0  0.318665  0  1.000138  0  0  0.328935  0  0.990852  0  0  0.310429  0.311455  0  1.006639  0
H  H11  1  0.87360245  0.43175336  0.96355302  1  0  0.340137  0  0.934707  0  0.545501  0  0.318676  0  1.000145  0  0  0.328947  0  0.99086  0  0  0.310428  0.311463  0  1.00665  0
H  H12  1  0.34428809  0.64593383  0.60430548  1  0  0.350628  0  0.898855  0  0.559178  0  0.324279  0  0.970578  0  0  0.334805  0  0.961265  0  0  0.319026  0.316852  0  0.977193  0
H  H13  1  0.65571201  0.85406496  0.10430580  1  0  0.350646  0  0.898853  0  0.559188  0  0.324306  0  0.970573  0  0  0.334833  0  0.961259  0  0  0.319033  0.316879  0  0.977192  0
H  H14  1  0.65571289  0.35406629  0.39569369  1  0  0.350481  0  0.899111  0  0.559198  0  0.324172  0  0.970753  0  0  0.334698  0  0.961449  0  0  0.318972  0.316747  0  0.977366  0
H  H15  1  0.34428593  0.14593380  0.89569404  1  0  0.35062  0  0.898902  0  0.559191  0  0.32428  0  0.970602  0  0  0.334805  0  0.961291  0  0  0.319016  0.316852  0  0.977217  0
H  H16  1  0.83214660  0.48486018  0.73638537  1  0  0.364592  0  0.910355  0  0.563912  0  0.341406  0  0.97601  0  0  0.351724  0  0.966726  0  0  0.310848  0.334184  0  0.982458  0
H  H17  1  0.16785557  0.01514051  0.23638532  1  0  0.364613  0  0.910338  0  0.563838  0  0.341433  0  0.975983  0  0  0.351752  0  0.966693  0  0  0.310858  0.334211  0  0.982434  0
H  H18  1  0.16785584  0.51513995  0.26361380  1  0  0.364585  0  0.910343  0  0.563805  0  0.341411  0  0.975987  0  0  0.35173  0  0.966698  0  0  0.310833  0.334191  0  0.982431  0
H  H19  1  0.83214393  0.98485961  0.76361451  1  0  0.364591  0  0.910344  0  0.563878  0  0.341417  0  0.975987  0  0  0.351737  0  0.966696  0  0  0.31084  0.334193  0  0.982445  0
C  C20  1  0.11540014  0.79240241  0.56207495  1  0  0.822488  0  3.840663  0  1.942039  0  0.750633  0  4.142654  0  0  0.788072  0  4.134129  0  0  0.351266  0.725239  0  4.147783  0
C  C21  1  0.88460125  0.70759787  0.06207640  1  0  0.822502  0  3.840682  0  1.942171  0  0.750638  0  4.142701  0  0  0.788084  0  4.134172  0  0  0.351248  0.725243  0  4.147825  0
C  C22  1  0.88460093  0.20759905  0.43792422  1  0  0.822586  0  3.84075  0  1.942163  0  0.750733  0  4.14274  0  0  0.788168  0  4.134218  0  0  0.3513  0.725329  0  4.147879  0
C  C23  1  0.11540129  0.29240360  0.93792544  1  0  0.822561  0  3.840629  0  1.942205  0  0.750707  0  4.142613  0  0  0.788171  0  4.134059  0  0  0.351308  0.725305  0  4.147747  0
C  C24  1  0.09735026  0.55794051  0.67849305  1  0  0.809817  0  3.866652  0  1.906039  0  0.740941  0  4.168191  0  0  0.777988  0  4.159931  0  0  0.338431  0.715848  0  4.173124  0
C  C25  1  0.90264886  0.94205801  0.17849297  1  0  0.809852  0  3.866615  0  1.905496  0  0.741021  0  4.168096  0  0  0.778066  0  4.159838  0  0  0.338471  0.715925  0  4.17303  0
C  C26  1  0.90265072  0.44205961  0.32150678  1  0  0.80984  0  3.866678  0  1.90549  0  0.740941  0  4.168259  0  0  0.777989  0  4.159997  0  0  0.338434  0.715843  0  4.173193  0
C  C27  1  0.09734631  0.05794343  0.82150619  1  0  0.809778  0  3.866686  0  1.905492  0  0.740921  0  4.168189  0  0  0.777964  0  4.159935  0  0  0.338424  0.715827  0  4.173115  0
N  N28  1  0.92019401  0.81730628  0.56867898  1  0  -0.773243  0  3.172731  0  -1.643815  0  -0.694315  0  3.425559  0  0  -0.72119  0  3.417107  0  0  -0.441638  -0.675906  0  3.430949  0
N  N29  1  0.07980594  0.68269397  0.06867931  1  0  -0.773163  0  3.17278  0  -1.643848  0  -0.694234  0  3.425613  0  0  -0.721101  0  3.417137  0  0  -0.441609  -0.67583  0  3.431017  0
N  N30  1  0.07980705  0.18269518  0.43132152  1  0  -0.773199  0  3.172814  0  -1.643843  0  -0.694271  0  3.425638  0  0  -0.721148  0  3.417197  0  0  -0.441615  -0.675862  0  3.431045  0
N  N31  1  0.92019209  0.31730613  0.93132119  1  0  -0.773188  0  3.172589  0  -1.643828  0  -0.694281  0  3.425453  0  0  -0.721153  0  3.416968  0  0  -0.441628  -0.67588  0  3.430884  0
N  N32  1  0.19276684  0.65979920  0.61174437  1  0  -0.589032  0  3.209346  0  -1.316174  0  -0.520935  0  3.449825  0  0  -0.546958  0  3.446946  0  0  -0.396583  -0.503323  0  3.451488  0
N  N33  1  0.80723331  0.84019956  0.11174492  1  0  -0.589076  0  3.209422  0  -1.316182  0  -0.52102  0  3.449908  0  0  -0.547048  0  3.447032  0  0  -0.396597  -0.503405  0  3.451571  0
N  N34  1  0.80723570  0.34020227  0.38825613  1  0  -0.588964  0  3.209541  0  -1.316175  0  -0.520875  0  3.449995  0  0  -0.546899  0  3.447121  0  0  -0.396513  -0.503257  0  3.451662  0
N  N35  1  0.19276610  0.15979921  0.88825558  1  0  -0.58906  0  3.209344  0  -1.316153  0  -0.520956  0  3.449784  0  0  -0.546986  0  3.446901  0  0  -0.396567  -0.503336  0  3.451441  0
N  N36  1  0.90031505  0.57339814  0.68937896  1  0  -0.775046  0  3.147825  0  -1.626843  0  -0.692987  0  3.397136  0  0  -0.720647  0  3.389179  0  0  -0.435092  -0.67409  0  3.402225  0
N  N37  1  0.09968718  0.92660169  0.18937909  1  0  -0.775111  0  3.14778  0  -1.626582  0  -0.693064  0  3.397074  0  0  -0.720722  0  3.389115  0  0  -0.435124  -0.674163  0  3.402166  0
N  N38  1  0.09968731  0.42660064  0.31062020  1  0  -0.775042  0  3.147869  0  -1.62627  0  -0.692986  0  3.397168  0  0  -0.720644  0  3.389212  0  0  -0.435063  -0.674086  0  3.402263  0
N  N39  1  0.90031250  0.07340111  0.81062008  1  0  -0.775069  0  3.147908  0  -1.626631  0  -0.693022  0  3.397185  0  0  -0.720681  0  3.389232  0  0  -0.435099  -0.674119  0  3.402279  0
O  O40  1  0.22712116  0.88867848  0.51169570  1  0  -0.685787  0  1.947313  0  -1.230861  0  -0.64179  0  2.184279  0  0  -0.663548  0  2.172783  0  0  -0.415366  -0.626649  0  2.191725  0
O  O41  1  0.77287677  0.61131929  0.01169709  1  0  -0.685844  0  1.947224  0  -1.230974  0  -0.641832  0  2.184194  0  0  -0.663596  0  2.172701  0  0  -0.415398  -0.626683  0  2.191638  0
O  O42  1  0.77287835  0.11132163  0.48830279  1  0  -0.685864  0  1.947343  0  -1.230959  0  -0.641871  0  2.18431  0  0  -0.663628  0  2.172819  0  0  -0.415433  -0.626719  0  2.191756  0
O  O43  1  0.22711961  0.38867813  0.98830274  1  0  -0.685866  0  1.947435  0  -1.231019  0  -0.641873  0  2.184404  0  0  -0.663643  0  2.172901  0  0  -0.415443  -0.626725  0  2.191853  0
O  O44  1  0.19272300  0.45525823  0.72479629  1  0  -0.662313  0  1.88075  0  -1.221076  0  -0.629302  0  2.116802  0  0  -0.649781  0  2.106976  0  0  -0.416844  -0.615092  0  2.123098  0
O  O45  1  0.80728040  0.04473981  0.22479645  1  0  -0.662273  0  1.880756  0  -1.221045  0  -0.629285  0  2.116802  0  0  -0.649763  0  2.106975  0  0  -0.416846  -0.615071  0  2.123088  0
O  O46  1  0.80728083  0.54474056  0.27520354  1  0  -0.662289  0  1.880774  0  -1.22105  0  -0.629273  0  2.116851  0  0  -0.649751  0  2.10702  0  0  -0.416858  -0.615063  0  2.123151  0
O  O47  1  0.19271763  0.95526029  0.77520271  1  0  -0.662227  0  1.880717  0  -1.221027  0  -0.629245  0  2.116789  0  0  -0.649724  0  2.106962  0  0  -0.416816  -0.61504  0  2.123092  0
O  O48  1  0.59365725  0.60924831  0.58509970  1  0  -0.872637  0  1.888681  0  -1.490249  0  -0.812265  0  2.148176  0  0  -0.837279  0  2.129362  0  0  -0.428589  -0.794453  0  2.160563  0
O  O49  1  0.40634429  0.89075190  0.08509963  1  0  -0.872602  0  1.888636  0  -1.490213  0  -0.812225  0  2.148124  0  0  -0.837241  0  2.12931  0  0  -0.428584  -0.794405  0  2.160512  0
O  O50  1  0.40634373  0.39075181  0.41489946  1  0  -0.872562  0  1.888709  0  -1.490245  0  -0.812202  0  2.148202  0  0  -0.837214  0  2.129391  0  0  -0.428593  -0.794377  0  2.160597  0
O  O51  1  0.59365383  0.10924955  0.91489887  1  0  -0.872613  0  1.888689  0  -1.490218  0  -0.81224  0  2.148179  0  0  -0.837255  0  2.129368  0  0  -0.428611  -0.794417  0  2.160572  0
O  O52  1  0.67932692  0.85095991  0.70216952  1  0  -0.894987  0  1.914056  0  -1.491046  0  -0.826627  0  2.167762  0  0  -0.852408  0  2.149087  0  0  -0.461932  -0.808272  0  2.180056  0
O  O53  1  0.32067678  0.64903855  0.20216755  1  0  -0.894971  0  1.914112  0  -1.491045  0  -0.82661  0  2.167819  0  0  -0.852393  0  2.149145  0  0  -0.461897  -0.808253  0  2.180119  0
O  O54  1  0.32067527  0.14903620  0.29783299  1  0  -0.894978  0  1.914089  0  -1.491029  0  -0.826616  0  2.167803  0  0  -0.852395  0  2.149126  0  0  -0.461888  -0.808254  0  2.180107  0
O  O55  1  0.67932307  0.35096693  0.79783295  1  0  -0.894905  0  1.914079  0  -1.4909  0  -0.826541  0  2.167798  0  0  -0.85232  0  2.149118  0  0  -0.461865  -0.808181  0  2.180099  0
