# generated using pymatgen
data_CdH12C12Br2(N2O3)2
_symmetry_space_group_name_H-M   'P 1'
_cell_length_a   3.92936072
_cell_length_b   8.06725133
_cell_length_c   28.54028206
_cell_angle_alpha   89.08148474
_cell_angle_beta   86.02919868
_cell_angle_gamma   76.66293930
_symmetry_Int_Tables_number   1
_chemical_formula_structural   CdH12C12Br2(N2O3)2
_chemical_formula_sum   'Cd2 H24 C24 Br4 N8 O12'
_cell_volume   878.18927153
_cell_formula_units_Z   2
loop_
 _symmetry_equiv_pos_site_id
 _symmetry_equiv_pos_as_xyz
  1  'x, y, z'
loop_
 _atom_site_type_symbol
 _atom_site_label
 _atom_site_symmetry_multiplicity
 _atom_site_fract_x
 _atom_site_fract_y
 _atom_site_fract_z
 _atom_site_occupancy
 _atom_site_hle17_bader_spin_density
 _atom_site_hle17_ddec_charge
 _atom_site_hle17_ddec_spin_density
 _atom_site_hle17_ddec_sum_bond_order
 _atom_site_hle17_magmom
 _atom_site_hse06_10hf_bader_spin_density
 _atom_site_hse06_10hf_ddec_charge
 _atom_site_hse06_10hf_ddec_spin_density
 _atom_site_hse06_10hf_ddec_sum_bond_order
 _atom_site_hse06_10hf_magmom
 _atom_site_hse06_bader_spin_density
 _atom_site_hse06_ddec_charge
 _atom_site_hse06_ddec_spin_density
 _atom_site_hse06_ddec_sum_bond_order
 _atom_site_hse06_magmom
 _atom_site_pbe_bader_spin_density
 _atom_site_pbe_cm5_charge
 _atom_site_pbe_ddec_charge
 _atom_site_pbe_ddec_spin_density
 _atom_site_pbe_ddec_sum_bond_order
 _atom_site_pbe_magmom
Cd  Cd0  1  0.24725725  0.00774072  0.00177439  1  0  0.927217  0  1.964338  0  0  0.774946  0  2.428651  0  0  0.831478  0  2.378319  0  0  0.521984  0.734353  0  2.463772  0
Cd  Cd1  1  0.99685990  0.50763783  0.49831563  1  0  0.927062  0  1.965134  0  0  0.774994  0  2.429658  0  0  0.831497  0  2.379307  0  0  0.522033  0.734397  0  2.46481  0
H  H2  1  0.86853252  0.46109176  0.03165908  1  0  0.134852  0  0.952303  0  0  0.137455  0  1.020382  0  0  0.143345  0  1.014315  0  0  0.127225  0.133206  0  1.024775  0
H  H3  1  0.08311316  0.06307084  0.53413942  1  0  0.134853  0  0.952438  0  0  0.136802  0  1.021828  0  0  0.14289  0  1.015542  0  0  0.126283  0.13237  0  1.026453  0
H  H4  1  0.64747942  0.96111216  0.46843817  1  0  0.13494  0  0.951519  0  0  0.137089  0  1.020557  0  0  0.142964  0  1.014546  0  0  0.12692  0.132817  0  1.024971  0
H  H5  1  0.36901077  0.56278614  0.96581667  1  0  0.135207  0  0.951743  0  0  0.136933  0  1.021489  0  0  0.143026  0  1.015121  0  0  0.126578  0.132488  0  1.026199  0
H  H6  1  0.11612639  0.33566034  0.10704185  1  0  0.134621  0  0.966295  0  0  0.135397  0  1.03732  0  0  0.140096  0  1.033565  0  0  0.106541  0.131873  0  1.040409  0
H  H7  1  0.19365456  0.17512553  0.61255735  1  0  0.135865  0  0.959563  0  0  0.137992  0  1.028365  0  0  0.142643  0  1.024588  0  0  0.109655  0.13453  0  1.031359  0
H  H8  1  0.97071858  0.83532821  0.39311324  1  0  0.134538  0  0.966347  0  0  0.135907  0  1.036702  0  0  0.140636  0  1.032895  0  0  0.106693  0.132359  0  1.039818  0
H  H9  1  0.55959499  0.67476849  0.88742455  1  0  0.135929  0  0.957343  0  0  0.137996  0  1.026348  0  0  0.142682  0  1.022641  0  0  0.109855  0.134508  0  1.029353  0
H  H10  1  0.19010245  0.85991201  0.10427869  1  0  0.114297  0  0.977034  0  0  0.118493  0  1.047036  0  0  0.122701  0  1.043347  0  0  0.111562  0.115353  0  1.049946  0
H  H11  1  0.80240078  0.64420501  0.59850486  1  0  0.110404  0  0.991991  0  0  0.114395  0  1.062663  0  0  0.118699  0  1.05878  0  0  0.107398  0.111211  0  1.065631  0
H  H12  1  0.04296094  0.35984393  0.39568882  1  0  0.113767  0  0.976076  0  0  0.118409  0  1.046697  0  0  0.122513  0  1.043113  0  0  0.111381  0.11532  0  1.049551  0
H  H13  1  0.15276841  0.14414850  0.90140032  1  0  0.110533  0  0.990402  0  0  0.114065  0  1.062186  0  0  0.118377  0  1.058292  0  0  0.107333  0.110882  0  1.065157  0
H  H14  1  0.57767013  0.83621083  0.21106803  1  0  0.140421  0  0.946154  0  0  0.156911  0  1.012028  0  0  0.158227  0  1.011581  0  0  0.102616  0.155952  0  1.01237  0
H  H15  1  0.15183891  0.64603988  0.70656778  1  0  0.140917  0  0.941244  0  0  0.158076  0  1.00605  0  0  0.159336  0  1.005701  0  0  0.103466  0.157175  0  1.006288  0
H  H16  1  0.53864001  0.33579039  0.28895923  1  0  0.140846  0  0.946089  0  0  0.157906  0  1.01122  0  0  0.159194  0  1.010796  0  0  0.102745  0.156932  0  1.01158  0
H  H17  1  0.61055180  0.14636188  0.79328811  1  0  0.140503  0  0.941806  0  0  0.157576  0  1.006875  0  0  0.158864  0  1.00649  0  0  0.102868  0.156609  0  1.007195  0
H  H18  1  0.18169401  0.90927685  0.18271439  1  0  0.129038  0  0.931175  0  0  0.150589  0  0.985514  0  0  0.152775  0  0.984206  0  0  0.096634  0.148964  0  0.986512  0
H  H19  1  0.83017536  0.57878496  0.67556669  1  0  0.1278  0  0.930634  0  0  0.14962  0  0.984734  0  0  0.151777  0  0.983564  0  0  0.096349  0.147998  0  0.985658  0
H  H20  1  0.11393676  0.40898351  0.31725189  1  0  0.128874  0  0.931123  0  0  0.150856  0  0.985072  0  0  0.153062  0  0.983709  0  0  0.096424  0.149227  0  0.986084  0
H  H21  1  0.25801697  0.07889533  0.82429771  1  0  0.128289  0  0.929486  0  0  0.150211  0  0.983503  0  0  0.152415  0  0.982233  0  0  0.096358  0.14856  0  0.984491  0
H  H22  1  0.24731383  0.72499318  0.21962020  1  0  0.132689  0  0.96162  0  0  0.141512  0  1.039783  0  0  0.143443  0  1.038158  0  0  0.097753  0.140155  0  1.040885  0
H  H23  1  0.71422595  0.75296640  0.71608194  1  0  0.132779  0  0.964526  0  0  0.140775  0  1.043915  0  0  0.142712  0  1.042346  0  0  0.097306  0.139405  0  1.045004  0
H  H24  1  0.21667954  0.22476900  0.28035349  1  0  0.133322  0  0.961866  0  0  0.141613  0  1.040543  0  0  0.143555  0  1.038899  0  0  0.097741  0.14026  0  1.04164  0
H  H25  1  0.18228497  0.25318322  0.78382249  1  0  0.132931  0  0.964843  0  0  0.141038  0  1.044018  0  0  0.143019  0  1.042413  0  0  0.097806  0.139636  0  1.045136  0
C  C26  1  0.78114762  0.51829299  0.06598428  1  0  0.024649  0  3.553355  0  0  -0.018432  0  3.819482  0  0  -0.012381  0  3.827147  0  0  0.036995  -0.022365  0  3.814553  0
C  C27  1  0.05108499  0.99822700  0.56738208  1  0  0.020259  0  3.555147  0  0  -0.022873  0  3.821576  0  0  -0.017108  0  3.829694  0  0  0.034838  -0.026585  0  3.816337  0
C  C28  1  0.59458307  0.01817423  0.43408740  1  0  0.035507  0  3.562631  0  0  -0.01783  0  3.81988  0  0  -0.011776  0  3.827544  0  0  0.036607  -0.021763  0  3.81496  0
C  C29  1  0.37044428  0.49798435  0.93257372  1  0  0.01911  0  3.555553  0  0  -0.023666  0  3.821855  0  0  -0.017821  0  3.829952  0  0  0.034471  -0.027414  0  3.816608  0
C  C30  1  0.91190542  0.45257386  0.10757304  1  0  -0.11198  0  3.756479  0  0  -0.137438  0  4.025008  0  0  -0.138639  0  4.041202  0  0  -0.075897  -0.136778  0  4.014285  0
C  C31  1  0.10979854  0.05618237  0.61051055  1  0  -0.113626  0  3.753353  0  0  -0.141164  0  4.024823  0  0  -0.142465  0  4.041434  0  0  -0.075208  -0.140402  0  4.013742  0
C  C32  1  0.76724047  0.95227247  0.39252789  1  0  -0.11131  0  3.754698  0  0  -0.13853  0  4.026211  0  0  -0.139733  0  4.04245  0  0  -0.075808  -0.137856  0  4.015438  0
C  C33  1  0.47300646  0.55592848  0.88945534  1  0  -0.11355  0  3.750327  0  0  -0.139948  0  4.020112  0  0  -0.141317  0  4.03658  0  0  -0.074917  -0.139152  0  4.009087  0
C  C34  1  0.78228867  0.53442452  0.15003336  1  0  0.020996  0  3.655217  0  0  0.000721  0  3.916598  0  0  -0.001058  0  3.938644  0  0  0.079317  0.00208  0  3.901671  0
C  C35  1  0.06168427  0.96359064  0.65124304  1  0  0.030021  0  3.65634  0  0  0.00167  0  3.912893  0  0  -0.000136  0  3.935042  0  0  0.080059  0.003047  0  3.897912  0
C  C36  1  0.68089682  0.03408988  0.35005516  1  0  0.021548  0  3.656435  0  0  0.000881  0  3.918268  0  0  -0.000956  0  3.940425  0  0  0.080076  0.002291  0  3.903245  0
C  C37  1  0.46547091  0.46355246  0.84868814  1  0  0.022927  0  3.648842  0  0  0.000792  0  3.912802  0  0  -0.000881  0  3.934793  0  0  0.079523  0.002082  0  3.897925  0
C  C38  1  0.52400241  0.68861137  0.15097784  1  0  0.122881  0  3.716714  0  0  0.140316  0  3.965657  0  0  0.140533  0  3.989183  0  0  0.01561  0.139906  0  3.949696  0
C  C39  1  0.95725365  0.80796581  0.64896287  1  0  0.122269  0  3.715352  0  0  0.140826  0  3.963452  0  0  0.141162  0  3.986864  0  0  0.0153  0.140312  0  3.947628  0
C  C40  1  0.42367948  0.18828489  0.34904371  1  0  0.123745  0  3.713615  0  0  0.141105  0  3.964394  0  0  0.14134  0  3.987933  0  0  0.01678  0.140671  0  3.948443  0
C  C41  1  0.35826110  0.30804990  0.85095476  1  0  0.122233  0  3.715283  0  0  0.140823  0  3.963666  0  0  0.141107  0  3.987119  0  0  0.015475  0.140357  0  3.947793  0
C  C42  1  0.39933343  0.74658785  0.10774657  1  0  -0.067747  0  3.577261  0  0  -0.113828  0  3.838934  0  0  -0.111314  0  3.853336  0  0  0.026696  -0.115283  0  3.829425  0
C  C43  1  0.89665414  0.75833452  0.60438114  1  0  -0.07002  0  3.58438  0  0  -0.116167  0  3.844103  0  0  -0.113676  0  3.858496  0  0  0.02531  -0.117605  0  3.834603  0
C  C44  1  0.25528805  0.24632657  0.39226830  1  0  -0.055655  0  3.585267  0  0  -0.113642  0  3.837594  0  0  -0.111033  0  3.852036  0  0  0.026368  -0.115138  0  3.828048  0
C  C45  1  0.25288545  0.25832124  0.89553495  1  0  -0.070573  0  3.581574  0  0  -0.116405  0  3.842007  0  0  -0.113941  0  3.856426  0  0  0.025199  -0.117828  0  3.832488  0
C  C46  1  0.37257213  0.79534489  0.19311738  1  0  -0.355792  0  3.714386  0  0  -0.442476  0  3.963927  0  0  -0.444702  0  3.972282  0  0  -0.243637  -0.440572  0  3.958018  0
C  C47  1  0.90845197  0.69048292  0.68870015  1  0  -0.354055  0  3.712925  0  0  -0.441008  0  3.961848  0  0  -0.443226  0  3.970133  0  0  -0.243163  -0.439142  0  3.956035  0
C  C48  1  0.31526397  0.29502188  0.30688314  1  0  -0.357212  0  3.713863  0  0  -0.444517  0  3.963387  0  0  -0.446771  0  3.971887  0  0  -0.244141  -0.442577  0  3.957423  0
C  C49  1  0.34924269  0.19068586  0.81119107  1  0  -0.354799  0  3.712005  0  0  -0.441199  0  3.960417  0  0  -0.44351  0  3.968704  0  0  -0.243087  -0.439232  0  3.954604  0
Br  Br50  1  0.82335034  0.91708329  0.93812822  1  0  -0.498493  0  1.076326  0  0  -0.430179  0  1.37396  0  0  -0.456943  0  1.352285  0  0  -0.233903  -0.410423  0  1.38921  0
Br  Br51  1  0.48782632  0.59229960  0.43478735  1  0  -0.492837  0  1.09727  0  0  -0.425579  0  1.399646  0  0  -0.4522  0  1.377267  0  0  -0.229195  -0.405863  0  1.415316  0
Br  Br52  1  0.50690682  0.41743867  0.56202282  1  0  -0.497952  0  1.076516  0  0  -0.42977  0  1.374055  0  0  -0.456478  0  1.352223  0  0  -0.233416  -0.410037  0  1.389365  0
Br  Br53  1  0.67277566  0.09298526  0.06531547  1  0  -0.493175  0  1.096053  0  0  -0.425814  0  1.397853  0  0  -0.452443  0  1.37555  0  0  -0.229358  -0.406111  0  1.413513  0
N  N54  1  0.51892376  0.66253978  0.06665663  1  0  0.29343  0  3.728437  0  0  0.34373  0  3.992364  0  0  0.347104  0  4.014572  0  0  -0.107798  0.340921  0  3.977388  0
N  N55  1  0.93865398  0.85072074  0.56492324  1  0  0.295564  0  3.729772  0  0  0.346368  0  3.992491  0  0  0.349772  0  4.014882  0  0  -0.106341  0.343522  0  3.977398  0
N  N56  1  0.33317120  0.16240880  0.43337648  1  0  0.258394  0  3.784282  0  0  0.34485  0  3.994485  0  0  0.348234  0  4.016661  0  0  -0.107504  0.342029  0  3.979514  0
N  N57  1  0.25531644  0.35058844  0.93501193  1  0  0.296977  0  3.730433  0  0  0.3476  0  3.99336  0  0  0.350994  0  4.01573  0  0  -0.10636  0.344763  0  3.97826  0
N  N58  1  0.92523620  0.45149308  0.19274380  1  0  0.503669  0  3.885595  0  0  0.529718  0  4.192736  0  0  0.551109  0  4.198741  0  0  0.055489  0.515323  0  4.188606  0
N  N59  1  0.12261179  0.03681951  0.69570235  1  0  0.476544  0  3.93322  0  0  0.530409  0  4.196352  0  0  0.551818  0  4.202439  0  0  0.057285  0.515986  0  4.192192  0
N  N60  1  0.86734092  0.95115375  0.30737860  1  0  0.503553  0  3.887975  0  0  0.529229  0  4.195706  0  0  0.550671  0  4.20168  0  0  0.054932  0.514837  0  4.191534  0
N  N61  1  0.57193243  0.53652784  0.80423692  1  0  0.503133  0  3.88661  0  0  0.52935  0  4.194406  0  0  0.550754  0  4.200411  0  0  0.05666  0.514931  0  4.190295  0
O  O62  1  0.37815156  0.71679144  0.02737145  1  0  -0.506944  0  1.838014  0  0  -0.464562  0  2.087088  0  0  -0.492712  0  2.087692  0  0  -0.226135  -0.44468  0  2.086129  0
O  O63  1  0.86586621  0.80043897  0.52415880  1  0  -0.501629  0  1.824536  0  0  -0.45937  0  2.069916  0  0  -0.487417  0  2.070449  0  0  -0.223511  -0.439529  0  2.068962  0
O  O64  1  0.15289082  0.21676180  0.47265846  1  0  -0.49538  0  1.854411  0  0  -0.465365  0  2.087611  0  0  -0.4935  0  2.088151  0  0  -0.226141  -0.445524  0  2.086766  0
O  O65  1  0.14144863  0.30030531  0.97576613  1  0  -0.502216  0  1.825094  0  0  -0.459364  0  2.069924  0  0  -0.487448  0  2.070581  0  0  -0.223008  -0.43956  0  2.068989  0
O  O66  1  0.16788713  0.32186592  0.18808513  1  0  -0.344604  0  1.706616  0  0  -0.331395  0  1.904543  0  0  -0.341864  0  1.90082  0  0  -0.128071  -0.324431  0  1.907216  0
O  O67  1  0.24545454  0.16591744  0.69369390  1  0  -0.335978  0  1.724405  0  0  -0.331489  0  1.908984  0  0  -0.342312  0  1.905218  0  0  -0.127434  -0.324271  0  1.911653  0
O  O68  1  0.10465922  0.82129121  0.31207182  1  0  -0.344689  0  1.707576  0  0  -0.331086  0  1.905236  0  0  -0.341554  0  1.901506  0  0  -0.12796  -0.324124  0  1.907892  0
O  O69  1  0.69672770  0.66441645  0.80624306  1  0  -0.344729  0  1.709333  0  0  -0.330747  0  1.907822  0  0  -0.341612  0  1.904089  0  0  -0.126807  -0.323507  0  1.91051  0
O  O70  1  0.79614044  0.51421027  0.23125904  1  0  -0.33206  0  1.750903  0  0  -0.306044  0  1.952165  0  0  -0.317519  0  1.948866  0  0  -0.105097  -0.298423  0  1.954526  0
O  O71  1  0.04824799  0.96654835  0.73281469  1  0  -0.320427  0  1.758506  0  0  -0.305207  0  1.945205  0  0  -0.316435  0  1.941823  0  0  -0.10679  -0.297693  0  1.947568  0
O  O72  1  0.77811285  0.01419094  0.26885094  1  0  -0.332633  0  1.752382  0  0  -0.306066  0  1.953224  0  0  -0.317605  0  1.949947  0  0  -0.105404  -0.29847  0  1.955627  0
O  O73  1  0.53172180  0.46720737  0.76712029  1  0  -0.32984  0  1.745412  0  0  -0.304784  0  1.945462  0  0  -0.316041  0  1.942138  0  0  -0.106403  -0.297258  0  1.947824  0
