# generated using pymatgen
data_CoH11C18NO4
_symmetry_space_group_name_H-M   'P 1'
_cell_length_a   11.71949497
_cell_length_b   13.17796963
_cell_length_c   13.17819904
_cell_angle_alpha   103.62770457
_cell_angle_beta   105.10786713
_cell_angle_gamma   105.10368067
_symmetry_Int_Tables_number   1
_chemical_formula_structural   CoH11C18NO4
_chemical_formula_sum   'Co4 H44 C72 N4 O16'
_cell_volume   1793.61143438
_cell_formula_units_Z   4
loop_
 _symmetry_equiv_pos_site_id
 _symmetry_equiv_pos_as_xyz
  1  'x, y, z'
loop_
 _atom_site_type_symbol
 _atom_site_label
 _atom_site_symmetry_multiplicity
 _atom_site_fract_x
 _atom_site_fract_y
 _atom_site_fract_z
 _atom_site_occupancy
 _atom_site_pbe_bader_charge
 _atom_site_pbe_bader_spin_density
 _atom_site_pbe_cm5_charge
 _atom_site_pbe_ddec_charge
 _atom_site_pbe_ddec_spin_density
 _atom_site_pbe_ddec_sum_bond_order
 _atom_site_pbe_magmom
Co  Co0  1  0.64369907  0.73843750  0.17434220  1  1.207146  2.604902  0.618091  0.762458  2.825401  2.77781  2.59
Co  Co1  1  0.14375937  0.17436347  0.73848057  1  1.202592  2.604305  0.618113  0.762774  2.82544  2.777539  2.59
Co  Co2  1  0.35630418  0.26157902  0.82562485  1  1.206802  2.604897  0.618109  0.76253  2.825333  2.777618  2.59
Co  Co3  1  0.85624311  0.82559080  0.26154408  1  1.202446  2.604308  0.618212  0.762933  2.825407  2.7776  2.59
H  H4  1  0.91234261  0.17907123  0.30097552  1  0.095513  0.000431  0.105689  0.109566  0.000228  1.028545  0.0
H  H5  1  0.41241786  0.30096357  0.17911936  1  0.095595  0.000431  0.105644  0.109445  0.000228  1.028578  0.0
H  H6  1  0.08761449  0.82090665  0.69904115  1  0.096006  0.00043  0.105704  0.109519  0.000228  1.028591  0.0
H  H7  1  0.58758190  0.69904384  0.82087683  1  0.09573  0.00043  0.105703  0.109571  0.000228  1.028559  0.0
H  H8  1  0.00878400  0.37816862  0.32440407  1  0.066583  0.000225  0.105194  0.11029  9.8e-05  0.988524  0.0
H  H9  1  0.50884447  0.32435649  0.37817685  1  0.065315  0.000224  0.105255  0.110695  9.8e-05  0.988348  0.0
H  H10  1  0.99119329  0.62180657  0.67561480  1  0.065651  0.000224  0.105208  0.11051  9.8e-05  0.988677  0.0
H  H11  1  0.49116865  0.67561724  0.62180663  1  0.065449  0.000225  0.105311  0.110683  9.8e-05  0.988491  0.0
H  H12  1  0.98299861  0.55425342  0.29972821  1  0.073778  0.00048  0.107461  0.117539  0.00029  0.991653  0.0
H  H13  1  0.48308735  0.29970905  0.55427732  1  0.073023  0.000481  0.107543  0.117701  0.00029  0.991754  0.0
H  H14  1  0.01698062  0.44574134  0.70028000  1  0.073809  0.00048  0.107517  0.117581  0.00029  0.991752  0.0
H  H15  1  0.51693548  0.70027669  0.44572623  1  0.073297  0.00048  0.107554  0.117713  0.00029  0.991774  0.0
H  H16  1  0.58582528  0.38505191  0.12659195  1  0.123842  0.000497  0.107881  0.118331  0.000271  1.01846  0.0
H  H17  1  0.08592391  0.12664270  0.38510525  1  0.124751  0.000497  0.108009  0.118448  0.00027  1.019108  0.0
H  H18  1  0.41414974  0.61493038  0.87338227  1  0.123856  0.000497  0.107959  0.118555  0.00027  1.018515  0.0
H  H19  1  0.91407799  0.87337752  0.61490626  1  0.124602  0.000497  0.108009  0.118476  0.00027  1.019029  0.0
H  H20  1  0.49394651  0.18098114  0.08621209  1  0.077217  0.000293  0.103685  0.113932  0.000117  1.016185  0.0
H  H21  1  0.99398433  0.08627809  0.18103464  1  0.098423  0.000291  0.103704  0.113826  0.000117  1.016488  0.0
H  H22  1  0.50603076  0.81898168  0.91374805  1  0.099166  0.000291  0.103671  0.11376  0.000117  1.016442  0.0
H  H23  1  0.00601614  0.91375902  0.81898759  1  0.077262  0.000293  0.103688  0.113789  0.000116  1.016239  0.0
H  H24  1  0.51907162  0.00596360  0.11205828  1  0.091465  0.000344  0.099718  0.102623  0.000208  1.025457  0.0
H  H25  1  0.01913041  0.11211549  0.00599454  1  0.091637  0.000345  0.099782  0.102735  0.000208  1.025381  0.0
H  H26  1  0.48090879  0.99401332  0.88793440  1  0.091913  0.000344  0.099707  0.10255  0.000208  1.025401  0.0
H  H27  1  0.98087755  0.88792218  0.99402131  1  0.091806  0.000344  0.099797  0.102681  0.000208  1.025223  0.0
H  H28  1  0.42666391  0.82725782  0.12055965  1  0.122014  0.000843  0.114039  0.085738  0.000263  1.036347  0.001
H  H29  1  0.92670238  0.12059255  0.82727365  1  0.121865  0.000843  0.113981  0.085791  0.000263  1.036171  0.001
H  H30  1  0.57333547  0.17275702  0.87946607  1  0.122203  0.000844  0.114076  0.085828  0.000263  1.036435  0.001
H  H31  1  0.07328827  0.87946213  0.17274975  1  0.121713  0.000843  0.11402  0.085778  0.000263  1.03628  0.001
H  H32  1  0.19084079  0.76104706  0.05877637  1  0.067935  0.000459  0.107315  0.111989  0.000181  1.002124  0.0
H  H33  1  0.69087589  0.05880245  0.76106153  1  0.067842  0.000459  0.107401  0.112085  0.000181  1.002099  0.0
H  H34  1  0.80913788  0.23894735  0.94124909  1  0.068057  0.000459  0.107319  0.112078  0.000181  1.002234  0.0
H  H35  1  0.30908920  0.94123487  0.23892004  1  0.068066  0.000458  0.107422  0.112131  0.000181  1.002323  0.0
H  H36  1  0.20081842  0.43138941  0.03976193  1  0.089055  0.000533  0.107378  0.114589  0.000109  1.016664  0.0
H  H37  1  0.70083764  0.03976033  0.43137302  1  0.088857  0.000533  0.107388  0.114591  0.000109  1.016756  0.0
H  H38  1  0.79919844  0.56859837  0.96019121  1  0.08928  0.000534  0.107264  0.114521  0.000109  1.016701  0.0
H  H39  1  0.29922187  0.96024550  0.56862559  1  0.088973  0.000534  0.107283  0.114475  0.000109  1.016464  0.0
H  H40  1  0.43307736  0.51112383  0.09876559  1  0.116772  0.00099  0.121376  0.101824  0.000309  1.000323  0.001
H  H41  1  0.93309541  0.09877147  0.51111373  1  0.116397  0.00099  0.121358  0.101809  0.000309  1.000114  0.001
H  H42  1  0.56694144  0.48888898  0.90119470  1  0.117563  0.00099  0.121389  0.101803  0.00031  1.000365  0.001
H  H43  1  0.06696129  0.90123622  0.48892177  1  0.118081  0.000987  0.121407  0.101871  0.000308  1.000268  0.001
H  H44  1  0.99616330  0.61658318  0.00233948  1  0.06853  7.1e-05  0.106942  0.106076  4.4e-05  0.999052  0.0
H  H45  1  0.49618095  0.00232818  0.61657240  1  0.068627  7.1e-05  0.106906  0.106086  4.4e-05  0.99915  0.0
H  H46  1  0.00385334  0.38342806  0.99768448  1  0.068247  7.1e-05  0.106916  0.106096  4.4e-05  0.999116  0.0
H  H47  1  0.50383732  0.99767484  0.38339334  1  0.067795  7.1e-05  0.106917  0.106064  4.4e-05  0.998924  0.0
C  C48  1  0.71761105  0.08320390  0.21047554  1  0.008356  0.007564  -0.024524  -0.039877  0.003889  4.014571  0.007
C  C49  1  0.21767037  0.21049572  0.08323887  1  0.009947  0.007567  -0.024637  -0.040122  0.003891  4.014036  0.007
C  C50  1  0.28237025  0.91678780  0.78954318  1  0.008749  0.007561  -0.024621  -0.040176  0.003886  4.01464  0.007
C  C51  1  0.78232286  0.78952971  0.91677687  1  0.008521  0.00756  -0.024488  -0.039763  0.003887  4.014541  0.007
C  C52  1  0.82119326  0.18024913  0.25473900  1  -0.088198  -0.00523  -0.07921  -0.138977  -0.005951  3.93645  -0.003
C  C53  1  0.32126040  0.25472349  0.18030355  1  -0.089056  -0.005227  -0.079241  -0.139235  -0.005949  3.936613  -0.003
C  C54  1  0.17877440  0.81974202  0.74528304  1  -0.089395  -0.005227  -0.079194  -0.138781  -0.005949  3.936246  -0.003
C  C55  1  0.67874583  0.74529685  0.81971438  1  -0.089041  -0.00523  -0.079328  -0.139499  -0.005951  3.936742  -0.003
C  C56  1  0.81054486  0.28060745  0.24025287  1  0.022329  -0.001083  -0.006562  0.073689  -0.001316  4.008741  0.0
C  C57  1  0.31059836  0.24024684  0.28066232  1  0.022437  -0.001079  -0.00661  0.073983  -0.001311  4.008608  0.0
C  C58  1  0.18943358  0.71937384  0.75974705  1  0.022328  -0.001084  -0.006568  0.073513  -0.001317  4.008333  0.0
C  C59  1  0.68941337  0.75975580  0.71934726  1  0.022791  -0.001081  -0.006679  0.073898  -0.001314  4.008178  0.0
C  C60  1  0.91643825  0.38024528  0.28175237  1  -0.071001  5.6e-05  -0.088075  -0.13131  -0.000207  3.989275  0.0
C  C61  1  0.41652083  0.28174022  0.38026872  1  -0.070119  5.5e-05  -0.088079  -0.132001  -0.000208  3.989854  0.0
C  C62  1  0.08352566  0.61975152  0.71826230  1  -0.070334  5.9e-05  -0.088077  -0.131585  -0.000204  3.989604  0.0
C  C63  1  0.58349281  0.71825816  0.61973742  1  -0.069917  5.6e-05  -0.08817  -0.131893  -0.000207  3.990071  0.0
C  C64  1  0.90273874  0.47731255  0.26843468  1  0.044113  0.000172  -0.085554  -0.09599  -0.000182  3.987771  0.0
C  C65  1  0.40283062  0.26843015  0.47733724  1  0.043931  0.000175  -0.085695  -0.095963  -0.00018  3.987525  0.0
C  C66  1  0.09722778  0.52268551  0.73156649  1  0.043674  0.000169  -0.085677  -0.095936  -0.000185  3.987808  0.0
C  C67  1  0.59716639  0.73154692  0.52266948  1  0.042235  0.000173  -0.085559  -0.095805  -0.000182  3.987333  0.0
C  C68  1  0.78193236  0.47952630  0.21411550  1  -0.070803  0.007935  -0.016886  -0.024819  0.004081  3.989674  0.007
C  C69  1  0.28201584  0.21413265  0.47956848  1  -0.073497  0.007947  -0.016808  -0.024674  0.004088  3.989012  0.007
C  C70  1  0.21803231  0.52046378  0.78586534  1  -0.07227  0.007946  -0.016891  -0.02477  0.004086  3.990015  0.007
C  C71  1  0.71798087  0.78587290  0.52044934  1  -0.071109  0.007943  -0.016829  -0.024816  0.004086  3.98875  0.007
C  C72  1  0.67759275  0.38309037  0.17051762  1  -0.019685  -0.004499  -0.078282  -0.14165  -0.005229  3.92443  -0.002
C  C73  1  0.17766447  0.17053198  0.38315157  1  -0.018857  -0.004494  -0.07839  -0.141926  -0.005222  3.92577  -0.002
C  C74  1  0.32238945  0.61687981  0.82947184  1  -0.017877  -0.004499  -0.078407  -0.142055  -0.005228  3.925098  -0.002
C  C75  1  0.82234861  0.82947783  0.61684844  1  -0.019598  -0.004496  -0.078454  -0.141903  -0.005223  3.925787  -0.002
C  C76  1  0.68928588  0.28169748  0.18110763  1  -0.068875  -0.001399  -0.006297  0.072562  -0.001617  4.000557  0.0
C  C77  1  0.18930561  0.18111591  0.28174435  1  -0.069549  -0.001399  -0.00622  0.072644  -0.001617  3.999955  0.0
C  C78  1  0.31070566  0.71827457  0.81889441  1  -0.069507  -0.001401  -0.006221  0.072838  -0.001618  4.000349  0.0
C  C79  1  0.81070062  0.81891895  0.71825912  1  -0.069632  -0.001403  -0.006177  0.072442  -0.001621  3.99988  0.0
C  C80  1  0.58479245  0.18056868  0.13467473  1  -0.002522  0.000235  -0.088676  -0.131402  -7.4e-05  3.977653  0.0
C  C81  1  0.08482867  0.13470692  0.18057973  1  -0.022818  0.000237  -0.088653  -0.131371  -7.3e-05  3.977807  0.0
C  C82  1  0.41518667  0.81940483  0.86531388  1  -0.024527  0.000238  -0.088751  -0.1314  -7.2e-05  3.977981  0.0
C  C83  1  0.91516998  0.86532485  0.81942804  1  -0.001262  0.000236  -0.088708  -0.13119  -7.3e-05  3.977037  0.0
C  C84  1  0.59850287  0.08378125  0.14887656  1  -0.108341  -8.9e-05  -0.09411  -0.106798  -0.000405  3.999305  0.0
C  C85  1  0.09857051  0.14891413  0.08380080  1  -0.108387  -8.7e-05  -0.09423  -0.106769  -0.000404  3.99964  0.0
C  C86  1  0.40147028  0.91619343  0.85112143  1  -0.1079  -9.1e-05  -0.093908  -0.106409  -0.000408  3.999128  0.0
C  C87  1  0.90141816  0.85111286  0.91620881  1  -0.107857  -9.1e-05  -0.094326  -0.106966  -0.000407  3.999367  0.0
C  C88  1  0.73159240  0.97770051  0.22355424  1  1.500809  -0.013325  0.207505  0.551415  -0.017416  4.189773  -0.011
C  C89  1  0.23164398  0.22356341  0.97772367  1  1.499506  -0.013328  0.208086  0.55279  -0.017417  4.187993  -0.011
C  C90  1  0.26842082  0.02229057  0.77645789  1  1.500187  -0.013322  0.207514  0.5517  -0.017406  4.189435  -0.011
C  C91  1  0.76838470  0.77643866  0.02227332  1  1.499653  -0.013318  0.208005  0.552684  -0.017407  4.18844  -0.011
C  C92  1  0.76853778  0.58683115  0.20674062  1  1.539534  -0.013734  0.210858  0.558896  -0.01797  4.173661  -0.012
C  C93  1  0.26863772  0.20677658  0.58690119  1  1.536874  -0.013727  0.211121  0.559168  -0.017978  4.173151  -0.012
C  C94  1  0.23142867  0.41315253  0.79328034  1  1.539206  -0.01374  0.210883  0.558726  -0.017976  4.173904  -0.012
C  C95  1  0.73136895  0.79321774  0.41310466  1  1.53561  -0.013734  0.211033  0.559196  -0.017985  4.173062  -0.012
C  C96  1  0.37139113  0.74043076  0.10187883  1  0.535988  -0.000488  0.046026  0.091385  -0.00118  3.956389  0.0
C  C97  1  0.87142329  0.10189450  0.74043398  1  0.535416  -0.000489  0.046242  0.091407  -0.001181  3.955574  0.0
C  C98  1  0.62861006  0.25957732  0.89814291  1  0.535574  -0.000492  0.046069  0.091277  -0.001184  3.956594  0.0
C  C99  1  0.12857494  0.89812998  0.25957978  1  0.535964  -0.00049  0.046207  0.091343  -0.001182  3.956106  0.0
C  C100  1  0.24110702  0.70300290  0.06817527  1  -0.050794  0.002475  -0.082358  -0.181642  0.00116  3.957531  0.002
C  C101  1  0.74112678  0.06819873  0.70300398  1  -0.050427  0.002475  -0.082691  -0.181985  0.00116  3.957315  0.002
C  C102  1  0.75889531  0.29699799  0.93182630  1  -0.050947  0.002478  -0.082409  -0.181773  0.001162  3.957473  0.002
C  C103  1  0.25887390  0.93183249  0.29698444  1  -0.051025  0.002473  -0.082622  -0.181886  0.001159  3.957259  0.002
C  C104  1  0.17421024  0.59020390  0.04547334  1  -0.081735  -0.000737  0.008671  0.145926  -0.000939  4.034907  -0.001
C  C105  1  0.67421386  0.04546992  0.59019513  1  -0.081684  -0.000741  0.008778  0.146033  -0.000943  4.034936  -0.001
C  C106  1  0.82580048  0.40979747  0.95451978  1  -0.081163  -0.000738  0.008689  0.145913  -0.00094  4.034817  -0.001
C  C107  1  0.32579734  0.95452533  0.40978622  1  -0.008172  -0.000731  0.008618  0.145706  -0.000938  4.034669  -0.001
C  C108  1  0.24567941  0.52012539  0.05756150  1  -0.069935  0.002621  -0.079023  -0.167112  0.001201  3.914388  0.002
C  C109  1  0.74570044  0.05756219  0.52011798  1  -0.069612  0.002622  -0.079057  -0.167227  0.001202  3.914408  0.002
C  C110  1  0.75432437  0.47986765  0.94239553  1  -0.070159  0.002622  -0.079034  -0.167142  0.001203  3.914509  0.002
C  C111  1  0.25432737  0.94244380  0.47987048  1  -0.069953  0.002617  -0.078953  -0.166828  0.0012  3.914208  0.002
C  C112  1  0.37570272  0.56388557  0.09059156  1  0.53262  0.00069  0.05288  0.100971  1e-06  3.919776  0.001
C  C113  1  0.87572458  0.09060359  0.56388595  1  0.531969  0.000691  0.052917  0.101058  -1e-06  3.919596  0.001
C  C114  1  0.62431368  0.43612312  0.90939918  1  0.532066  0.000692  0.052974  0.101009  3e-06  3.919924  0.001
C  C115  1  0.12430664  0.90940808  0.43613035  1  0.530701  0.000696  0.052823  0.100672  4e-06  3.919973  0.001
C  C116  1  0.03776091  0.55242739  0.01061347  1  -0.036099  0.000192  -0.074965  -0.107913  -3.5e-05  3.950227  0.0
C  C117  1  0.53776662  0.01061422  0.55241329  1  -0.036037  0.000194  -0.074928  -0.107984  -3.3e-05  3.950471  0.0
C  C118  1  0.96224532  0.44756086  0.98938267  1  0.04174  0.00018  -0.074861  -0.107728  -3.3e-05  3.950138  0.0
C  C119  1  0.46225076  0.98939941  0.44754606  1  -0.03089  0.000172  -0.074889  -0.107578  -3.6e-05  3.949661  0.0
N  N120  1  0.43848401  0.67262513  0.11305733  1  -1.239366  0.046891  -0.31684  -0.207637  0.026545  3.461598  0.036
N  N121  1  0.93852021  0.11308932  0.67263606  1  -1.238568  0.046869  -0.316828  -0.207574  0.026528  3.460947  0.036
N  N122  1  0.56153514  0.32737939  0.88693399  1  -1.239835  0.046899  -0.316871  -0.207493  0.026548  3.461589  0.036
N  N123  1  0.06149287  0.88692989  0.32737423  1  -1.23895  0.046845  -0.316772  -0.207448  0.026516  3.460895  0.036
O  O124  1  0.63261421  0.89102631  0.18278727  1  -1.124464  0.080708  -0.302137  -0.527228  0.041747  2.422884  0.074
O  O125  1  0.13264249  0.18282878  0.89105174  1  -1.123861  0.080744  -0.302563  -0.528183  0.041759  2.422854  0.074
O  O126  1  0.36739070  0.10896802  0.81721814  1  -1.124268  0.080635  -0.302066  -0.527393  0.041708  2.422702  0.074
O  O127  1  0.86735650  0.81717990  0.10896046  1  -1.124006  0.080672  -0.302478  -0.528026  0.041726  2.422774  0.074
O  O128  1  0.84096118  0.97724784  0.27299718  1  -1.130699  0.090428  -0.303296  -0.516593  0.047447  2.362008  0.08
O  O129  1  0.34102078  0.27302421  0.97730592  1  -1.13028  0.090353  -0.30327  -0.516887  0.04742  2.361457  0.08
O  O130  1  0.15905666  0.02273065  0.72698086  1  -1.129718  0.090449  -0.303362  -0.516721  0.047469  2.362165  0.08
O  O131  1  0.65901042  0.72696208  0.02269148  1  -1.129929  0.090423  -0.303352  -0.517016  0.047458  2.361638  0.08
O  O132  1  0.65803347  0.58940280  0.16514896  1  -1.124216  0.099942  -0.301815  -0.513768  0.052288  2.386938  0.088
O  O133  1  0.15812250  0.16518302  0.58945560  1  -1.12364  0.099918  -0.301889  -0.514003  0.052267  2.386537  0.088
O  O134  1  0.34194118  0.41058026  0.83485341  1  -1.124532  0.099995  -0.301737  -0.513545  0.052308  2.387183  0.088
O  O135  1  0.84188123  0.83484099  0.41054348  1  -1.123503  0.099979  -0.301857  -0.513958  0.052301  2.386717  0.088
O  O136  1  0.86815439  0.67237223  0.24435766  1  -1.133178  0.090946  -0.302209  -0.517239  0.046674  2.365508  0.083
O  O137  1  0.36827884  0.24440696  0.67242787  1  -1.129712  0.090966  -0.302471  -0.517379  0.046693  2.36579  0.083
O  O138  1  0.13182636  0.32759065  0.75560640  1  -1.1326  0.090906  -0.30225  -0.517245  0.046638  2.365525  0.083
O  O139  1  0.63174158  0.75556770  0.32756293  1  -1.129492  0.09091  -0.302287  -0.517308  0.046649  2.365825  0.083
