# generated using pymatgen
data_CdH12(C8O3)2
_symmetry_space_group_name_H-M   'P 1'
_cell_length_a   7.40799582
_cell_length_b   7.97535019
_cell_length_c   13.12435080
_cell_angle_alpha   107.72814965
_cell_angle_beta   89.78616672
_cell_angle_gamma   89.93967535
_symmetry_Int_Tables_number   1
_chemical_formula_structural   CdH12(C8O3)2
_chemical_formula_sum   'Cd2 H24 C32 O12'
_cell_volume   738.57499700
_cell_formula_units_Z   2
loop_
 _symmetry_equiv_pos_site_id
 _symmetry_equiv_pos_as_xyz
  1  'x, y, z'
loop_
 _atom_site_type_symbol
 _atom_site_label
 _atom_site_symmetry_multiplicity
 _atom_site_fract_x
 _atom_site_fract_y
 _atom_site_fract_z
 _atom_site_occupancy
 _atom_site_hle17_bader_spin_density
 _atom_site_hle17_ddec_charge
 _atom_site_hle17_ddec_spin_density
 _atom_site_hle17_ddec_sum_bond_order
 _atom_site_hle17_magmom
 _atom_site_hse06_10hf_bader_spin_density
 _atom_site_hse06_10hf_ddec_charge
 _atom_site_hse06_10hf_ddec_spin_density
 _atom_site_hse06_10hf_ddec_sum_bond_order
 _atom_site_hse06_10hf_magmom
 _atom_site_hse06_bader_spin_density
 _atom_site_hse06_ddec_charge
 _atom_site_hse06_ddec_spin_density
 _atom_site_hse06_ddec_sum_bond_order
 _atom_site_hse06_magmom
 _atom_site_pbe_bader_spin_density
 _atom_site_pbe_cm5_charge
 _atom_site_pbe_ddec_charge
 _atom_site_pbe_ddec_spin_density
 _atom_site_pbe_ddec_sum_bond_order
 _atom_site_pbe_magmom
Cd  Cd0  1  0.75006181  0.02315384  0.99982329  1  0  1.257565  0  1.577484  0  0  1.071163  0  2.018626  0  0  1.136382  0  1.957233  0  0  0.797199  1.024105  0  2.060847  0
Cd  Cd1  1  0.24994631  0.97684996  0.00017827  1  0  1.25756  0  1.577614  0  0  1.071137  0  2.018767  0  0  1.136355  0  1.957375  0  0  0.797174  1.024073  0  2.061008  0
H  H2  1  0.83160753  0.03923369  0.35613894  1  0  0.105383  0  0.964677  0  0  0.114717  0  1.026719  0  0  0.118527  0  1.023505  0  0  0.105027  0.111963  0  1.029073  0
H  H3  1  0.66806316  0.68258345  0.64412650  1  0  0.104946  0  0.964478  0  0  0.114834  0  1.025842  0  0  0.118547  0  1.022778  0  0  0.105313  0.112126  0  1.028135  0
H  H4  1  0.16839141  0.96075865  0.64385187  1  0  0.105377  0  0.964641  0  0  0.11473  0  1.026673  0  0  0.118543  0  1.023452  0  0  0.105052  0.111972  0  1.029038  0
H  H5  1  0.33193940  0.31740455  0.35587340  1  0  0.104967  0  0.964468  0  0  0.114844  0  1.025835  0  0  0.118556  0  1.022771  0  0  0.105314  0.112136  0  1.028129  0
H  H6  1  0.43135108  0.75799596  0.33060719  1  0  0.108213  0  0.974091  0  0  0.118009  0  1.03684  0  0  0.120472  0  1.037545  0  0  0.104036  0.116256  0  1.036471  0
H  H7  1  0.06833907  0.42759739  0.66894000  1  0  0.107041  0  0.975178  0  0  0.117365  0  1.037319  0  0  0.119934  0  1.037893  0  0  0.103859  0.115554  0  1.037034  0
H  H8  1  0.56865303  0.24200530  0.66939229  1  0  0.108177  0  0.974111  0  0  0.117975  0  1.036865  0  0  0.120436  0  1.03757  0  0  0.104017  0.116223  0  1.036496  0
H  H9  1  0.93164621  0.57241849  0.33106292  1  0  0.107106  0  0.975182  0  0  0.117366  0  1.037402  0  0  0.119936  0  1.037976  0  0  0.103868  0.115557  0  1.037114  0
H  H10  1  0.28616257  0.86474151  0.50338883  1  0  0.092736  0  0.953572  0  0  0.105882  0  1.009462  0  0  0.108536  0  1.007966  0  0  0.103715  0.103983  0  1.010529  0
H  H11  1  0.21378980  0.36162170  0.49625978  1  0  0.091731  0  0.955164  0  0  0.105428  0  1.010513  0  0  0.108112  0  1.008947  0  0  0.103344  0.103515  0  1.011603  0
H  H12  1  0.71383360  0.13525996  0.49660680  1  0  0.092804  0  0.953557  0  0  0.105949  0  1.009452  0  0  0.108605  0  1.007953  0  0  0.103701  0.104044  0  1.010526  0
H  H13  1  0.78619147  0.63839163  0.50374107  1  0  0.091709  0  0.955122  0  0  0.105402  0  1.010473  0  0  0.108084  0  1.008909  0  0  0.103311  0.103487  0  1.011568  0
H  H14  1  0.50025141  0.64828643  0.05129633  1  0  0.11096  0  0.948889  0  0  0.126252  0  1.012557  0  0  0.127668  0  1.011415  0  0  0.105312  0.125121  0  1.013502  0
H  H15  1  0.99955571  0.59713030  0.94861590  1  0  0.110268  0  0.949273  0  0  0.126245  0  1.011942  0  0  0.127593  0  1.010848  0  0  0.105463  0.125174  0  1.012848  0
H  H16  1  0.49976485  0.35171604  0.94870353  1  0  0.110923  0  0.948799  0  0  0.126191  0  1.012527  0  0  0.127606  0  1.011381  0  0  0.105319  0.125063  0  1.013468  0
H  H17  1  0.00045335  0.40286265  0.05139191  1  0  0.110203  0  0.949197  0  0  0.126193  0  1.011877  0  0  0.127542  0  1.010782  0  0  0.105439  0.125122  0  1.012783  0
H  H18  1  0.57035461  0.77666092  0.18192208  1  0  0.098481  0  0.949569  0  0  0.115174  0  1.013387  0  0  0.116109  0  1.012716  0  0  0.098258  0.114426  0  1.01395  0
H  H19  1  0.92888568  0.59482662  0.81805430  1  0  0.098747  0  0.949511  0  0  0.115222  0  1.013518  0  0  0.116147  0  1.012826  0  0  0.09838  0.114487  0  1.014095  0
H  H20  1  0.42964681  0.22335215  0.81808123  1  0  0.098481  0  0.949642  0  0  0.115204  0  1.013428  0  0  0.116138  0  1.01275  0  0  0.098316  0.114457  0  1.013987  0
H  H21  1  0.07111118  0.40516378  0.18195363  1  0  0.098745  0  0.94962  0  0  0.115266  0  1.013571  0  0  0.116189  0  1.012884  0  0  0.098409  0.114531  0  1.014149  0
H  H22  1  0.45330596  0.57139728  0.16428100  1  0  0.077387  0  0.978736  0  0  0.092013  0  1.049522  0  0  0.091771  0  1.05035  0  0  0.092813  0.092094  0  1.049025  0
H  H23  1  0.04677520  0.40724206  0.83548630  1  0  0.078062  0  0.977242  0  0  0.091661  0  1.049148  0  0  0.091456  0  1.049907  0  0  0.092599  0.091744  0  1.048653  0
H  H24  1  0.54670354  0.42861178  0.83572161  1  0  0.07731  0  0.978771  0  0  0.091946  0  1.049571  0  0  0.091702  0  1.050398  0  0  0.092804  0.092029  0  1.049069  0
H  H25  1  0.95323273  0.59275242  0.16451646  1  0  0.077995  0  0.977297  0  0  0.091676  0  1.049105  0  0  0.091472  0  1.049864  0  0  0.092597  0.091759  0  1.048611  0
C  C26  1  0.04519525  0.96578116  0.44726093  1  0  0.021627  0  3.812015  0  0  0.035289  0  4.051598  0  0  0.032151  0  4.077663  0  0  -0.021754  0.037209  0  4.033943  0
C  C27  1  0.45466876  0.51842634  0.55269664  1  0  0.020647  0  3.813276  0  0  0.035064  0  4.051625  0  0  0.03197  0  4.07757  0  0  -0.021665  0.036958  0  4.034046  0
C  C28  1  0.95479954  0.03421637  0.55273390  1  0  0.021683  0  3.81192  0  0  0.035448  0  4.0514  0  0  0.032308  0  4.077469  0  0  -0.021674  0.037369  0  4.033742  0
C  C29  1  0.54531774  0.48157894  0.44730573  1  0  0.02084  0  3.813033  0  0  0.035107  0  4.051499  0  0  0.032017  0  4.077435  0  0  -0.021685  0.037  0  4.033926  0
C  C30  1  0.96381038  0.97856286  0.35387829  1  0  -0.089168  0  3.711741  0  0  -0.12241  0  3.962513  0  0  -0.120019  0  3.980683  0  0  -0.082041  -0.123727  0  3.950199  0
C  C31  1  0.53578739  0.62448203  0.64620632  1  0  -0.08821  0  3.709918  0  0  -0.122007  0  3.960476  0  0  -0.119657  0  3.978715  0  0  -0.08251  -0.123275  0  3.948056  0
C  C32  1  0.03618426  0.02142275  0.64611647  1  0  -0.089144  0  3.711503  0  0  -0.122443  0  3.962273  0  0  -0.12005  0  3.980446  0  0  -0.082071  -0.123761  0  3.949955  0
C  C33  1  0.46420999  0.37551669  0.35379183  1  0  -0.088375  0  3.709911  0  0  -0.122118  0  3.96053  0  0  -0.11977  0  3.97877  0  0  -0.082541  -0.123383  0  3.948108  0
C  C34  1  0.04301356  0.91498912  0.25226229  1  0  -0.169981  0  3.746133  0  0  -0.155296  0  3.993619  0  0  -0.166689  0  4.012885  0  0  -0.030646  -0.14798  0  3.980881  0
C  C35  1  0.45620417  0.66280358  0.74773258  1  0  -0.168596  0  3.74438  0  0  -0.154136  0  3.992847  0  0  -0.165444  0  4.012025  0  0  -0.030061  -0.146837  0  3.980104  0
C  C36  1  0.95698773  0.08499766  0.74773507  1  0  -0.169931  0  3.746013  0  0  -0.155254  0  3.993503  0  0  -0.166662  0  4.012792  0  0  -0.030668  -0.147933  0  3.980749  0
C  C37  1  0.54379171  0.33719632  0.25226959  1  0  -0.16852  0  3.744404  0  0  -0.154129  0  3.992865  0  0  -0.165443  0  4.012041  0  0  -0.03008  -0.146831  0  3.980121  0
C  C38  1  0.21659534  0.83638002  0.24277029  1  0  0.2808  0  3.752995  0  0  0.261503  0  4.010236  0  0  0.27615  0  4.025348  0  0  0.095481  0.25156  0  3.999961  0
C  C39  1  0.28261449  0.59397355  0.75700270  1  0  0.279817  0  3.753173  0  0  0.260263  0  4.011493  0  0  0.274934  0  4.026656  0  0  0.095104  0.250293  0  4.001195  0
C  C40  1  0.78340887  0.16361609  0.75722513  1  0  0.280832  0  3.752834  0  0  0.261517  0  4.010041  0  0  0.276172  0  4.025149  0  0  0.095484  0.251618  0  3.999766  0
C  C41  1  0.71738145  0.40602641  0.24299796  1  0  0.27979  0  3.75325  0  0  0.260394  0  4.011356  0  0  0.275066  0  4.026521  0  0  0.095166  0.250425  0  4.001059  0
C  C42  1  0.29962333  0.82041900  0.33542039  1  0  -0.206328  0  3.766405  0  0  -0.224463  0  4.019002  0  0  -0.232402  0  4.040361  0  0  -0.110011  -0.219249  0  4.004588  0
C  C43  1  0.19991316  0.48530675  0.66425417  1  0  -0.203928  0  3.765948  0  0  -0.222113  0  4.018318  0  0  -0.230113  0  4.03968  0  0  -0.109861  -0.216893  0  4.003964  0
C  C44  1  0.70037819  0.17958368  0.66457706  1  0  -0.206315  0  3.766359  0  0  -0.224468  0  4.018992  0  0  -0.232406  0  4.040347  0  0  -0.110069  -0.219251  0  4.004567  0
C  C45  1  0.80007601  0.51470371  0.33575078  1  0  -0.203989  0  3.76606  0  0  -0.22217  0  4.018367  0  0  -0.230175  0  4.039731  0  0  -0.109832  -0.216952  0  4.004014  0
C  C46  1  0.21553530  0.88297302  0.43477886  1  0  -0.063963  0  3.73392  0  0  -0.083896  0  3.97855  0  0  -0.082314  0  3.998006  0  0  -0.08152  -0.084615  0  3.965153  0
C  C47  1  0.28428162  0.44835596  0.56496186  1  0  -0.063522  0  3.735465  0  0  -0.08451  0  3.980128  0  0  -0.082906  0  3.999584  0  0  -0.081108  -0.085241  0  3.966734  0
C  C48  1  0.78446354  0.11702839  0.56521754  1  0  -0.064017  0  3.733948  0  0  -0.083965  0  3.978543  0  0  -0.082386  0  3.998003  0  0  -0.08147  -0.08468  0  3.965141  0
C  C49  1  0.71570368  0.55165338  0.43503826  1  0  -0.063534  0  3.73545  0  0  -0.084474  0  3.980136  0  0  -0.082867  0  3.99959  0  0  -0.081132  -0.085207  0  3.966742  0
C  C50  1  0.93441572  0.93422935  0.16138541  1  0  0.664317  0  3.875311  0  0  0.612616  0  4.164006  0  0  0.649935  0  4.15536  0  0  0.201991  0.587179  0  4.169088  0
C  C51  1  0.56449673  0.77282304  0.83879900  1  0  0.665538  0  3.875532  0  0  0.61385  0  4.164086  0  0  0.651153  0  4.155456  0  0  0.202876  0.588412  0  4.169181  0
C  C52  1  0.06559109  0.06576797  0.83861257  1  0  0.664051  0  3.875474  0  0  0.612363  0  4.164159  0  0  0.649683  0  4.155516  0  0  0.201947  0.586927  0  4.169234  0
C  C53  1  0.43550588  0.22717286  0.16120246  1  0  0.665468  0  3.875435  0  0  0.613774  0  4.164014  0  0  0.65109  0  4.155362  0  0  0.202881  0.588337  0  4.169105  0
C  C54  1  0.46613983  0.68718712  0.13631049  1  0  -0.077722  0  3.578302  0  0  -0.173977  0  3.83719  0  0  -0.166829  0  3.840258  0  0  -0.14794  -0.178644  0  3.834957  0
C  C55  1  0.03342625  0.55106326  0.86355016  1  0  -0.078265  0  3.577677  0  0  -0.174057  0  3.837652  0  0  -0.166785  0  3.840683  0  0  -0.148148  -0.17883  0  3.835446  0
C  C56  1  0.53386977  0.31281941  0.86368857  1  0  -0.077594  0  3.578366  0  0  -0.173916  0  3.837263  0  0  -0.166755  0  3.840317  0  0  -0.148048  -0.178542  0  3.835039  0
C  C57  1  0.96657611  0.44892849  0.13645582  1  0  -0.078242  0  3.577754  0  0  -0.174118  0  3.837698  0  0  -0.166845  0  3.840726  0  0  -0.148204  -0.178888  0  3.835494  0
O  O58  1  0.77644751  0.99737657  0.17890016  1  0  -0.618952  0  1.978273  0  0  -0.56  0  2.212892  0  0  -0.589353  0  2.20524  0  0  -0.31176  -0.539455  0  2.217393  0
O  O59  1  0.72212676  0.81908468  0.82126359  1  0  -0.620233  0  1.979643  0  0  -0.56072  0  2.214003  0  0  -0.590145  0  2.206325  0  0  -0.312348  -0.540132  0  2.218541  0
O  O60  1  0.22356081  0.00262480  0.82109558  1  0  -0.618927  0  1.978443  0  0  -0.559902  0  2.212981  0  0  -0.589263  0  2.205344  0  0  -0.311727  -0.539359  0  2.217484  0
O  O61  1  0.27787446  0.18090988  0.17873835  1  0  -0.620194  0  1.979549  0  0  -0.560684  0  2.213919  0  0  -0.590113  0  2.206234  0  0  -0.31236  -0.540098  0  2.218459  0
O  O62  1  0.99700540  0.88424617  0.06414928  1  0  -0.706027  0  2.123713  0  0  -0.624623  0  2.391911  0  0  -0.658816  0  2.377941  0  0  -0.340567  -0.600467  0  2.400548  0
O  O63  1  0.50243674  0.81923277  0.93611266  1  0  -0.705587  0  2.121873  0  0  -0.624754  0  2.390529  0  0  -0.658853  0  2.376506  0  0  -0.340379  -0.600602  0  2.399061  0
O  O64  1  0.00300275  0.11575374  0.93584998  1  0  -0.705812  0  2.12356  0  0  -0.624507  0  2.391855  0  0  -0.658697  0  2.377884  0  0  -0.34055  -0.600348  0  2.400481  0
O  O65  1  0.49756457  0.18076580  0.06388855  1  0  -0.705582  0  2.121928  0  0  -0.624712  0  2.390548  0  0  -0.658817  0  2.376524  0  0  -0.340389  -0.600559  0  2.399078  0
O  O66  1  0.29490473  0.77655037  0.14422078  1  0  -0.256965  0  2.372965  0  0  -0.172572  0  2.611118  0  0  -0.193328  0  2.614231  0  0  -0.179216  -0.157909  0  2.608376  0
O  O67  1  0.20422026  0.63280374  0.85552827  1  0  -0.25686  0  2.372653  0  0  -0.173056  0  2.611246  0  0  -0.193936  0  2.614423  0  0  -0.179212  -0.15833  0  2.608498  0
O  O68  1  0.70510359  0.22345100  0.85577496  1  0  -0.257034  0  2.373031  0  0  -0.172544  0  2.611134  0  0  -0.193294  0  2.614231  0  0  -0.179143  -0.157993  0  2.608452  0
O  O69  1  0.79577698  0.36719747  0.14447418  1  0  -0.256772  0  2.372704  0  0  -0.173037  0  2.611312  0  0  -0.193915  0  2.614488  0  0  -0.17918  -0.158315  0  2.608567  0
