# generated using pymatgen
data_ZnH20C10S2(NO2)2
_symmetry_space_group_name_H-M   'P 1'
_cell_length_a   5.09791405
_cell_length_b   9.39143256
_cell_length_c   15.30141499
_cell_angle_alpha   110.05921481
_cell_angle_beta   90.00110349
_cell_angle_gamma   89.99890656
_symmetry_Int_Tables_number   1
_chemical_formula_structural   ZnH20C10S2(NO2)2
_chemical_formula_sum   'Zn2 H40 C20 S4 N4 O8'
_cell_volume   688.14211218
_cell_formula_units_Z   2
loop_
 _symmetry_equiv_pos_site_id
 _symmetry_equiv_pos_as_xyz
  1  'x, y, z'
loop_
 _atom_site_type_symbol
 _atom_site_label
 _atom_site_symmetry_multiplicity
 _atom_site_fract_x
 _atom_site_fract_y
 _atom_site_fract_z
 _atom_site_occupancy
 _atom_site_hle17_bader_spin_density
 _atom_site_hle17_ddec_charge
 _atom_site_hle17_ddec_spin_density
 _atom_site_hle17_ddec_sum_bond_order
 _atom_site_hle17_magmom
 _atom_site_hse06_10hf_bader_spin_density
 _atom_site_hse06_10hf_ddec_charge
 _atom_site_hse06_10hf_ddec_spin_density
 _atom_site_hse06_10hf_ddec_sum_bond_order
 _atom_site_hse06_10hf_magmom
 _atom_site_hse06_bader_spin_density
 _atom_site_hse06_ddec_charge
 _atom_site_hse06_ddec_spin_density
 _atom_site_hse06_ddec_sum_bond_order
 _atom_site_hse06_magmom
 _atom_site_pbe_bader_spin_density
 _atom_site_pbe_cm5_charge
 _atom_site_pbe_ddec_charge
 _atom_site_pbe_ddec_spin_density
 _atom_site_pbe_ddec_sum_bond_order
 _atom_site_pbe_magmom
Zn  Zn0  1  0.99924356  0.75174820  0.01589780  1  0  1.061602  0  1.718238  0  0  0.881009  0  2.162049  0  0  0.928929  0  2.109733  0  0  0.676473  0.847407  0  2.197823  0
Zn  Zn1  1  0.49924254  0.24825418  0.98409790  1  0  1.061682  0  1.718057  0  0  0.881069  0  2.161854  0  0  0.929002  0  2.109542  0  0  0.6765  0.847466  0  2.197627  0
H  H2  1  0.64581494  0.14021448  0.50891037  1  0  0.110956  0  0.995616  0  0  0.125481  0  1.069801  0  0  0.127016  0  1.069533  0  0  0.084147  0.124363  0  1.069835  0
H  H3  1  0.14580164  0.85979193  0.49109714  1  0  0.110887  0  0.995662  0  0  0.125446  0  1.069803  0  0  0.12698  0  1.069536  0  0  0.084155  0.12434  0  1.06983  0
H  H4  1  0.28961373  0.66851315  0.86196415  1  0  0.297158  0  0.907303  0  0  0.281152  0  0.975242  0  0  0.287372  0  0.970688  0  0  0.291124  0.276796  0  0.978491  0
H  H5  1  0.78961461  0.33147901  0.13802768  1  0  0.297096  0  0.907436  0  0  0.281122  0  0.975291  0  0  0.287346  0  0.970735  0  0  0.291137  0.276772  0  0.978527  0
H  H6  1  0.89415376  0.55900124  0.80519373  1  0  0.071759  0  0.937284  0  0  0.083046  0  1.001631  0  0  0.084899  0  1.000353  0  0  0.11126  0.08155  0  1.00276  0
H  H7  1  0.39417775  0.44100532  0.19480641  1  0  0.071809  0  0.93724  0  0  0.083098  0  1.001569  0  0  0.084947  0  1.000293  0  0  0.111337  0.081603  0  1.002699  0
H  H8  1  0.98168130  0.28537800  0.72927932  1  0  0.0757  0  0.956942  0  0  0.084428  0  1.036109  0  0  0.085799  0  1.035798  0  0  0.08691  0.083589  0  1.036016  0
H  H9  1  0.48170221  0.71462437  0.27072167  1  0  0.075812  0  0.956762  0  0  0.084536  0  1.035998  0  0  0.085906  0  1.03569  0  0  0.086947  0.083693  0  1.035906  0
H  H10  1  0.40222094  0.28737968  0.65450713  1  0  0.087278  0  0.937181  0  0  0.106483  0  0.995306  0  0  0.107221  0  0.995923  0  0  0.095426  0.105949  0  0.994939  0
H  H11  1  0.90224462  0.71260938  0.34549940  1  0  0.087244  0  0.937162  0  0  0.106477  0  0.995277  0  0  0.107215  0  0.995896  0  0  0.095388  0.105916  0  0.994943  0
H  H12  1  0.79939681  0.43810163  0.61823539  1  0  0.106947  0  0.985572  0  0  0.123323  0  1.052815  0  0  0.124642  0  1.053494  0  0  0.083851  0.122459  0  1.052178  0
H  H13  1  0.29938659  0.56189788  0.38176568  1  0  0.106921  0  0.985547  0  0  0.123292  0  1.052809  0  0  0.124612  0  1.053488  0  0  0.08385  0.122428  0  1.052171  0
H  H14  1  0.61605905  0.94272063  0.06537330  1  0  0.316604  0  0.918439  0  0  0.299191  0  0.982632  0  0  0.306214  0  0.97771  0  0  0.293232  0.294144  0  0.98629  0
H  H15  1  0.11607046  0.05727131  0.93462367  1  0  0.316578  0  0.918419  0  0  0.299132  0  0.982654  0  0  0.30616  0  0.977727  0  0  0.293228  0.294089  0  0.986308  0
H  H16  1  0.78638742  0.14471178  0.18762182  1  0  0.046748  0  0.941607  0  0  0.055038  0  1.012659  0  0  0.056944  0  1.011063  0  0  0.099821  0.05347  0  1.014125  0
H  H17  1  0.28640692  0.85528490  0.81237154  1  0  0.046736  0  0.941633  0  0  0.055034  0  1.012621  0  0  0.056937  0  1.011026  0  0  0.099808  0.053468  0  1.014084  0
H  H18  1  0.10675369  0.89215241  0.22067894  1  0  0.092424  0  0.964086  0  0  0.107665  0  1.027294  0  0  0.109786  0  1.026267  0  0  0.094511  0.105832  0  1.028558  0
H  H19  1  0.60674467  0.10785422  0.77932286  1  0  0.092509  0  0.96399  0  0  0.107722  0  1.027239  0  0  0.109838  0  1.026211  0  0  0.094524  0.105889  0  1.0285  0
H  H20  1  0.11448743  0.23040333  0.34216843  1  0  0.076457  0  0.958818  0  0  0.090199  0  1.026962  0  0  0.091329  0  1.027244  0  0  0.084748  0.089271  0  1.026806  0
H  H21  1  0.61446235  0.76960534  0.65782720  1  0  0.076513  0  0.958791  0  0  0.090257  0  1.026911  0  0  0.091375  0  1.027205  0  0  0.084783  0.08933  0  1.026754  0
H  H22  1  0.46401035  0.29297472  0.49370123  1  0  0.103408  0  0.993871  0  0  0.121855  0  1.058188  0  0  0.122962  0  1.058958  0  0  0.082627  0.121  0  1.057496  0
H  H23  1  0.96399594  0.70702954  0.50629822  1  0  0.103387  0  0.993844  0  0  0.121834  0  1.058192  0  0  0.122942  0  1.058962  0  0  0.082631  0.12098  0  1.057502  0
H  H24  1  0.34175628  0.56096524  0.92554272  1  0  0.307206  0  0.915555  0  0  0.292236  0  0.976082  0  0  0.298307  0  0.972611  0  0  0.293683  0.287833  0  0.978673  0
H  H25  1  0.84176177  0.43902670  0.07445085  1  0  0.307254  0  0.915403  0  0  0.292281  0  0.975919  0  0  0.298357  0  0.972441  0  0  0.293678  0.287877  0  0.978519  0
H  H26  1  0.23733911  0.29353720  0.80849248  1  0  0.078484  0  0.962503  0  0  0.096887  0  1.02702  0  0  0.097392  0  1.027733  0  0  0.096572  0.096503  0  1.026677  0
H  H27  1  0.73737001  0.70646727  0.19151499  1  0  0.07845  0  0.962569  0  0  0.096892  0  1.027072  0  0  0.097392  0  1.027792  0  0  0.09657  0.09654  0  1.026686  0
H  H28  1  0.51695542  0.44334941  0.74898405  1  0  0.08796  0  0.949434  0  0  0.106557  0  1.009831  0  0  0.107118  0  1.01027  0  0  0.097521  0.106038  0  1.009733  0
H  H29  1  0.01696361  0.55662698  0.25102463  1  0  0.087943  0  0.949479  0  0  0.10657  0  1.009856  0  0  0.107137  0  1.010279  0  0  0.097521  0.106051  0  1.009754  0
H  H30  1  0.03554190  0.30895698  0.54561757  1  0  0.116044  0  0.968418  0  0  0.134911  0  1.030731  0  0  0.136111  0  1.031526  0  0  0.090626  0.134424  0  1.029466  0
H  H31  1  0.53553154  0.69104406  0.45438471  1  0  0.116048  0  0.968471  0  0  0.13491  0  1.030779  0  0  0.13611  0  1.031575  0  0  0.090623  0.134424  0  1.029512  0
H  H32  1  0.95522361  0.47969610  0.52564828  1  0  0.110213  0  0.985833  0  0  0.126691  0  1.053867  0  0  0.128091  0  1.054219  0  0  0.08648  0.125921  0  1.053156  0
H  H33  1  0.45522256  0.52030712  0.47435557  1  0  0.110215  0  0.985796  0  0  0.126688  0  1.053809  0  0  0.128087  0  1.054162  0  0  0.086478  0.125918  0  1.053096  0
H  H34  1  0.63161338  0.86800837  0.14687043  1  0  0.296424  0  0.897783  0  0  0.289027  0  0.950931  0  0  0.294548  0  0.947651  0  0  0.296283  0.284993  0  0.953464  0
H  H35  1  0.13160335  0.13197915  0.85312301  1  0  0.296383  0  0.897811  0  0  0.288979  0  0.950967  0  0  0.294503  0  0.947685  0  0  0.296242  0.284949  0  0.953492  0
H  H36  1  0.84234167  0.99262278  0.28933046  1  0  0.071698  0  0.949502  0  0  0.087931  0  1.014872  0  0  0.088949  0  1.015237  0  0  0.088492  0.087114  0  1.014726  0
H  H37  1  0.34232980  0.00738654  0.71067366  1  0  0.071698  0  0.949477  0  0  0.087931  0  1.014849  0  0  0.088945  0  1.015211  0  0  0.088504  0.087112  0  1.014704  0
H  H38  1  0.37453154  0.13415791  0.26853195  1  0  0.085227  0  0.947712  0  0  0.101358  0  1.010091  0  0  0.102289  0  1.01078  0  0  0.091275  0.100569  0  1.009848  0
H  H39  1  0.87451920  0.86584148  0.73146556  1  0  0.08523  0  0.947718  0  0  0.101358  0  1.010114  0  0  0.102289  0  1.0108  0  0  0.091299  0.100569  0  1.009869  0
H  H40  1  0.70813948  0.19510705  0.41035421  1  0  0.1132  0  0.972805  0  0  0.132404  0  1.035933  0  0  0.133277  0  1.037085  0  0  0.086483  0.131593  0  1.035414  0
H  H41  1  0.20811828  0.80489357  0.58965261  1  0  0.113158  0  0.972727  0  0  0.13234  0  1.035896  0  0  0.133211  0  1.037052  0  0  0.086484  0.131534  0  1.035381  0
C  C42  1  0.01033802  0.49821725  0.84211286  1  0  0.049609  0  3.634448  0  0  0.030999  0  3.874386  0  0  0.030051  0  3.888039  0  0  -0.00714  0.031675  0  3.864904  0
C  C43  1  0.51035207  0.50178772  0.15788634  1  0  0.04964  0  3.634304  0  0  0.031126  0  3.874212  0  0  0.030185  0  3.887866  0  0  -0.007191  0.03179  0  3.86474  0
C  C44  1  0.34104239  0.39344321  0.70870288  1  0  -0.136714  0  3.662575  0  0  -0.173549  0  3.928997  0  0  -0.172802  0  3.940358  0  0  -0.152758  -0.174112  0  3.921327  0
C  C45  1  0.84105744  0.60654823  0.29130302  1  0  -0.136748  0  3.662406  0  0  -0.173615  0  3.928896  0  0  -0.172872  0  3.940263  0  0  -0.152778  -0.174162  0  3.921231  0
C  C46  1  0.13108080  0.06552855  0.10362789  1  0  0.638443  0  3.855383  0  0  0.588385  0  4.157471  0  0  0.621156  0  4.150731  0  0  0.203915  0.566153  0  4.161339  0
C  C47  1  0.63109630  0.93446359  0.89636841  1  0  0.638326  0  3.855664  0  0  0.588296  0  4.157604  0  0  0.621094  0  4.150839  0  0  0.203865  0.566063  0  4.161476  0
C  C48  1  0.01132282  0.00390429  0.24713877  1  0  -0.154419  0  3.670639  0  0  -0.192321  0  3.918104  0  0  -0.194268  0  3.931575  0  0  -0.168507  -0.190729  0  3.90907  0
C  C49  1  0.51132101  0.99610187  0.75286131  1  0  -0.154477  0  3.670747  0  0  -0.192437  0  3.918226  0  0  -0.194359  0  3.93166  0  0  -0.168548  -0.190846  0  3.909194  0
C  C50  1  0.55513807  0.18245807  0.45755688  1  0  -0.333764  0  3.697412  0  0  -0.402926  0  3.946705  0  0  -0.404465  0  3.955083  0  0  -0.240526  -0.401656  0  3.941016  0
C  C51  1  0.05512199  0.81754445  0.54244627  1  0  -0.333617  0  3.69722  0  0  -0.402808  0  3.946553  0  0  -0.404347  0  3.954931  0  0  -0.240542  -0.401567  0  3.940869  0
C  C52  1  0.31269337  0.54110633  0.09318232  1  0  0.65134  0  3.814104  0  0  0.593975  0  4.121002  0  0  0.628339  0  4.112694  0  0  0.214868  0.570762  0  4.12573  0
C  C53  1  0.81268914  0.45890698  0.90682137  1  0  0.651487  0  3.814119  0  0  0.594305  0  4.120742  0  0  0.628682  0  4.112423  0  0  0.215022  0.571086  0  4.125482  0
C  C54  1  0.13612814  0.35901802  0.77140042  1  0  -0.14917  0  3.702881  0  0  -0.197698  0  3.964037  0  0  -0.198643  0  3.977599  0  0  -0.173136  -0.196797  0  3.954394  0
C  C55  1  0.63615113  0.64098457  0.22860115  1  0  -0.149214  0  3.702525  0  0  -0.197926  0  3.963928  0  0  -0.198859  0  3.97748  0  0  -0.173154  -0.197025  0  3.954254  0
C  C56  1  0.98349531  0.42878832  0.57970219  1  0  -0.323073  0  3.659857  0  0  -0.388434  0  3.901224  0  0  -0.390451  0  3.910392  0  0  -0.237646  -0.387009  0  3.894146  0
C  C57  1  0.48348575  0.57121418  0.42030078  1  0  -0.323075  0  3.659673  0  0  -0.388402  0  3.901031  0  0  -0.39042  0  3.910198  0  0  -0.237628  -0.386976  0  3.893949  0
C  C58  1  0.90424423  0.04014186  0.16320942  1  0  0.065644  0  3.612144  0  0  0.045693  0  3.857151  0  0  0.045114  0  3.870373  0  0  -0.00537  0.04606  0  3.848013  0
C  C59  1  0.40425044  0.95985573  0.83678764  1  0  0.065449  0  3.612398  0  0  0.045659  0  3.857049  0  0  0.045075  0  3.870257  0  0  -0.005446  0.046024  0  3.847909  0
C  C60  1  0.20488376  0.11844974  0.30864117  1  0  -0.137065  0  3.671255  0  0  -0.173665  0  3.934437  0  0  -0.173846  0  3.946732  0  0  -0.15655  -0.173548  0  3.926312  0
C  C61  1  0.70486938  0.88155482  0.69135597  1  0  -0.137096  0  3.671242  0  0  -0.173681  0  3.934399  0  0  -0.173859  0  3.946693  0  0  -0.156584  -0.173563  0  3.926266  0
S  S62  1  0.24864108  0.52883718  0.65341242  1  0  -0.030463  0  2.377052  0  0  -0.009039  0  2.735079  0  0  -0.012964  0  2.733862  0  0  -0.027791  -0.005807  0  2.735379  0
S  S63  1  0.74863021  0.47115837  0.34659263  1  0  -0.030402  0  2.376858  0  0  -0.008945  0  2.734878  0  0  -0.01288  0  2.73368  0  0  -0.027749  -0.00571  0  2.735166  0
S  S64  1  0.31750580  0.04240525  0.39635449  1  0  -0.033136  0  2.373585  0  0  -0.010701  0  2.732343  0  0  -0.014635  0  2.731459  0  0  -0.040933  -0.00842  0  2.732344  0
S  S65  1  0.81748456  0.95760011  0.60364568  1  0  -0.03312  0  2.373525  0  0  -0.010691  0  2.732306  0  0  -0.014624  0  2.731416  0  0  -0.04091  -0.008412  0  2.732316  0
N  N66  1  0.74591922  0.90980801  0.10629128  1  0  -0.648771  0  3.110204  0  0  -0.597431  0  3.367229  0  0  -0.616209  0  3.362604  0  0  -0.625709  -0.584423  0  3.370345  0
N  N67  1  0.24591848  0.09018593  0.89370497  1  0  -0.648636  0  3.110167  0  0  -0.597319  0  3.367161  0  0  -0.616095  0  3.362529  0  0  -0.625639  -0.58431  0  3.370272  0
N  N68  1  0.19776878  0.61160155  0.89954549  1  0  -0.639172  0  3.119291  0  0  -0.583112  0  3.370741  0  0  -0.601807  0  3.366969  0  0  -0.625774  -0.57008  0  3.373043  0
N  N69  1  0.69776875  0.38839947  0.10045033  1  0  -0.639243  0  3.119252  0  0  -0.583193  0  3.370743  0  0  -0.601905  0  3.366975  0  0  -0.62577  -0.570161  0  3.373048  0
O  O70  1  0.22413484  0.67525186  0.11614722  1  0  -0.625912  0  2.011621  0  0  -0.556697  0  2.268781  0  0  -0.58279  0  2.256747  0  0  -0.311469  -0.538481  0  2.276463  0
O  O71  1  0.72414779  0.32475333  0.88385651  1  0  -0.626042  0  2.011708  0  0  -0.556922  0  2.268828  0  0  -0.583015  0  2.256783  0  0  -0.311568  -0.538698  0  2.276509  0
O  O72  1  0.73855352  0.56750681  0.97891319  1  0  -0.636163  0  2.082804  0  0  -0.560687  0  2.337115  0  0  -0.589049  0  2.326352  0  0  -0.314765  -0.540974  0  2.343983  0
O  O73  1  0.23856050  0.43250281  0.02108481  1  0  -0.636128  0  2.082748  0  0  -0.560574  0  2.337091  0  0  -0.588909  0  2.326306  0  0  -0.31472  -0.540854  0  2.343947  0
O  O74  1  0.22633293  0.94649905  0.04154952  1  0  -0.65292  0  2.060609  0  0  -0.571142  0  2.310305  0  0  -0.600163  0  2.299111  0  0  -0.321517  -0.551052  0  2.317443  0
O  O75  1  0.72633777  0.05349478  0.95845069  1  0  -0.652853  0  2.060412  0  0  -0.571041  0  2.31  0  0  -0.600136  0  2.298873  0  0  -0.321518  -0.550965  0  2.317159  0
O  O76  1  0.21549071  0.19767014  0.12030078  1  0  -0.617843  0  1.923324  0  0  -0.568685  0  2.166148  0  0  -0.591931  0  2.156144  0  0  -0.320809  -0.552543  0  2.172503  0
O  O77  1  0.71551427  0.80233099  0.87969174  1  0  -0.617755  0  1.923618  0  0  -0.568637  0  2.166433  0  0  -0.591882  0  2.156414  0  0  -0.32076  -0.552495  0  2.172793  0
