# generated using pymatgen
data_CoH8C13NO5
_symmetry_space_group_name_H-M   'P 1'
_cell_length_a   7.05460166
_cell_length_b   9.84175336
_cell_length_c   12.29080661
_cell_angle_alpha   88.35419875
_cell_angle_beta   74.10479846
_cell_angle_gamma   84.90493111
_symmetry_Int_Tables_number   1
_chemical_formula_structural   CoH8C13NO5
_chemical_formula_sum   'Co2 H16 C26 N2 O10'
_cell_volume   817.46654915
_cell_formula_units_Z   2
loop_
 _symmetry_equiv_pos_site_id
 _symmetry_equiv_pos_as_xyz
  1  'x, y, z'
loop_
 _atom_site_type_symbol
 _atom_site_label
 _atom_site_symmetry_multiplicity
 _atom_site_fract_x
 _atom_site_fract_y
 _atom_site_fract_z
 _atom_site_occupancy
 _atom_site_pbe_bader_charge
 _atom_site_pbe_bader_spin_density
 _atom_site_pbe_cm5_charge
 _atom_site_pbe_ddec_charge
 _atom_site_pbe_ddec_spin_density
 _atom_site_pbe_ddec_sum_bond_order
 _atom_site_pbe_magmom
Co  Co0  1  0.99999565  0.50000324  0.50000411  1  1.371344  2.552186  0.675381  1.059836  2.773232  2.468899  2.54
Co  Co1  1  0.49999492  0.50000120  0.49999824  1  1.387212  2.587596  0.687436  1.0777  2.813148  2.468953  2.574
H  H2  1  0.89108237  0.15943950  0.63139945  1  0.079791  0.000342  0.10071  0.101659  0.000101  1.027301  0.0
H  H3  1  0.50048209  0.09345505  0.62930120  1  0.063111  0.000516  0.099407  0.102597  0.000201  1.015778  0.0
H  H4  1  0.41112261  0.28458956  0.08532176  1  0.068714  -9.2e-05  0.114952  0.120292  -0.000259  0.996157  0.0
H  H5  1  0.30390845  0.29662298  0.29575728  1  0.173653  -6e-06  0.138732  0.130543  -0.000151  0.998053  0.0
H  H6  1  0.47709223  0.84060984  0.63120180  1  0.085977  0.000285  0.100405  0.100969  6.4e-05  1.029901  0.0
H  H7  1  0.86945608  0.90650672  0.62965027  1  0.067831  0.000487  0.09936  0.102128  0.000177  1.015465  0.0
H  H8  1  0.50338454  0.71566833  0.08465188  1  0.054414  -0.000122  0.115251  0.120267  -0.000278  0.99624  0.0
H  H9  1  0.40030333  0.70390954  0.29508649  1  0.170154  6.7e-05  0.138576  0.130546  -8.8e-05  0.998353  0.0
H  H10  1  0.10892268  0.84051902  0.36861565  1  0.079359  0.000342  0.100717  0.101806  0.0001  1.027079  0.0
H  H11  1  0.49953161  0.90649430  0.37070186  1  0.064432  0.000516  0.099373  0.102436  0.000201  1.015932  0.0
H  H12  1  0.58889075  0.71541382  0.91472411  1  0.068364  -9.2e-05  0.114882  0.120214  -0.000259  0.996093  0.0
H  H13  1  0.69603846  0.70349873  0.70429424  1  0.173338  -6e-06  0.138696  0.130599  -0.000151  0.997984  0.0
H  H14  1  0.52291794  0.15933850  0.36878403  1  0.085904  0.000285  0.100423  0.100934  6.5e-05  1.030065  0.0
H  H15  1  0.13055439  0.09345080  0.37034455  1  0.0684  0.000486  0.099255  0.101969  0.000177  1.01573  0.0
H  H16  1  0.49667752  0.28432595  0.91529978  1  0.05471  -0.000122  0.115156  0.12022  -0.000279  0.996359  0.0
H  H17  1  0.59971457  0.29620920  0.70485508  1  0.171188  6.7e-05  0.138687  0.130758  -8.8e-05  0.998278  0.0
C  C18  1  0.19539965  0.14191758  0.63298700  1  -0.020983  0.008651  -0.01913  -0.032588  0.004482  3.954444  0.007
C  C19  1  0.01616762  0.08849749  0.63599899  1  -0.005051  0.001597  -0.088904  -0.09826  0.00076  3.985007  0.001
C  C20  1  0.36004201  0.05179344  0.63510162  1  -0.00326  0.001937  -0.090381  -0.103107  0.00083  3.994942  0.001
C  C21  1  0.21633226  0.29176379  0.61316946  1  1.557615  0.004521  0.216897  0.597718  0.002959  4.156084  0.003
C  C22  1  0.41140748  0.38144987  0.12564236  1  0.072464  -0.006143  -0.076234  -0.153622  -0.006852  3.967627  -0.004
C  C23  1  0.35385363  0.38293766  0.24196621  1  0.346203  0.016712  0.056565  0.000361  0.008688  3.840562  0.012
C  C24  1  0.17105786  0.85806931  0.63333450  1  -0.02344  0.009623  -0.018989  -0.033435  0.00495  3.957106  0.008
C  C25  1  0.34760247  0.91152319  0.63595640  1  -0.089538  0.000774  -0.089143  -0.097179  0.000155  3.988412  0.001
C  C26  1  0.00439494  0.94814588  0.63542332  1  -0.071961  0.000843  -0.090425  -0.101649  7.3e-05  3.993415  0.001
C  C27  1  0.17060798  0.70825119  0.61320706  1  1.573222  0.002152  0.215121  0.595586  0.000855  4.162795  0.002
C  C28  1  0.46265023  0.61885192  0.12527809  1  0.071551  -0.006598  -0.076365  -0.152235  -0.007396  3.965363  -0.005
C  C29  1  0.40412688  0.61742525  0.24159354  1  0.346749  0.016589  0.055738  -0.00141  0.008539  3.839917  0.012
C  C30  1  0.80461039  0.85804809  0.36701470  1  -0.020993  0.008647  -0.019042  -0.032403  0.00448  3.9546  0.007
C  C31  1  0.98384113  0.91146614  0.36400726  1  -0.005434  0.0016  -0.08878  -0.098385  0.000762  3.98469  0.001
C  C32  1  0.63996816  0.94816408  0.36489799  1  -0.003762  0.001941  -0.090435  -0.102939  0.000832  3.995332  0.001
C  C33  1  0.78366503  0.70820904  0.38681430  1  1.55821  0.004529  0.216705  0.597513  0.002968  4.156472  0.003
C  C34  1  0.58859649  0.61858007  0.87436629  1  0.072367  -0.006137  -0.076117  -0.153436  -0.006847  3.967149  -0.004
C  C35  1  0.64613125  0.61713716  0.75803956  1  0.346287  0.016709  0.05658  0.000201  0.008686  3.840771  0.012
C  C36  1  0.82894013  0.14189840  0.36667161  1  -0.022657  0.00963  -0.019012  -0.033439  0.004953  3.957048  0.008
C  C37  1  0.65240658  0.08843330  0.36404297  1  -0.090078  0.000772  -0.089187  -0.097278  0.000153  3.988795  0.001
C  C38  1  0.99560811  0.05181979  0.36457795  1  -0.073008  0.00084  -0.090351  -0.101351  7e-05  3.993503  0.001
C  C39  1  0.82936287  0.29172569  0.38681027  1  1.573432  0.002143  0.214994  0.595198  0.000849  4.162801  0.002
C  C40  1  0.53735997  0.38117395  0.87471135  1  0.071125  -0.006605  -0.076266  -0.15215  -0.007403  3.965599  -0.005
C  C41  1  0.59586708  0.38264653  0.75839750  1  0.345774  0.016592  0.055768  -0.001519  0.008541  3.840358  0.012
C  C42  1  0.46897649  0.50008771  0.06175427  1  -0.045116  0.010594  0.002801  0.07861  0.005585  4.002709  0.007
C  C43  1  0.53104256  0.49993101  0.93824360  1  0.091262  0.01059  0.00281  0.078576  0.005585  4.002483  0.007
N  N44  1  0.35098867  0.50017077  0.29844017  1  -0.637915  -0.009086  -0.10984  0.341353  -0.014496  3.847406  -0.012
N  N45  1  0.64900714  0.49990406  0.70155906  1  -0.638053  -0.009088  -0.11002  0.341199  -0.014498  3.848142  -0.012
O  O46  1  0.05978754  0.36953109  0.61816620  1  -1.150242  0.075355  -0.319736  -0.576003  0.038533  2.386011  0.062
O  O47  1  0.39170946  0.32911252  0.58865060  1  -1.150836  0.073703  -0.308127  -0.577394  0.038418  2.387411  0.064
O  O48  1  0.32312110  0.63162095  0.61787674  1  -1.164584  0.070401  -0.318049  -0.579771  0.036207  2.388818  0.059
O  O49  1  0.01921434  0.67043012  0.58799801  1  -1.157578  0.072291  -0.310819  -0.576932  0.037878  2.382823  0.062
O  O50  1  0.94020685  0.63043969  0.38182373  1  -1.150608  0.07537  -0.319648  -0.576026  0.038539  2.386161  0.062
O  O51  1  0.60828787  0.67086644  0.41131293  1  -1.15126  0.073724  -0.30808  -0.577382  0.038422  2.387558  0.064
O  O52  1  0.67685278  0.36835288  0.38213047  1  -1.164354  0.070403  -0.317924  -0.579589  0.036208  2.388669  0.059
O  O53  1  0.98073286  0.32955286  0.41204088  1  -1.157458  0.072272  -0.310782  -0.576677  0.03787  2.382795  0.062
O  O54  1  0.29577662  0.49986623  0.41127175  1  -0.657962  0.084707  -0.219822  -0.507903  0.046879  2.418821  0.075
O  O55  1  0.70422434  0.50014637  0.58872719  1  -0.658029  0.084707  -0.219774  -0.507723  0.046877  2.418928  0.075
