# generated using pymatgen
data_InH5C4NClO4
_symmetry_space_group_name_H-M   'P 1'
_cell_length_a   5.94488927
_cell_length_b   8.90005864
_cell_length_c   13.66428194
_cell_angle_alpha   89.99959688
_cell_angle_beta   89.99820697
_cell_angle_gamma   89.99960512
_symmetry_Int_Tables_number   1
_chemical_formula_structural   InH5C4NClO4
_chemical_formula_sum   'In4 H20 C16 N4 Cl4 O16'
_cell_volume   722.97528718
_cell_formula_units_Z   4
loop_
 _symmetry_equiv_pos_site_id
 _symmetry_equiv_pos_as_xyz
  1  'x, y, z'
loop_
 _atom_site_type_symbol
 _atom_site_label
 _atom_site_symmetry_multiplicity
 _atom_site_fract_x
 _atom_site_fract_y
 _atom_site_fract_z
 _atom_site_occupancy
 _atom_site_pbe_bader_charge
 _atom_site_pbe_bader_spin_density
 _atom_site_pbe_cm5_charge
 _atom_site_pbe_ddec_charge
 _atom_site_pbe_ddec_spin_density
 _atom_site_pbe_ddec_sum_bond_order
 _atom_site_pbe_magmom
In  In0  1  0.39651496  0.75000215  0.81797335  1  1.817585  0  0.696356  1.312384  0  2.757871  0
In  In1  1  0.89652921  0.25001130  0.68199966  1  1.817337  0  0.696332  1.312464  0  2.757962  0
In  In2  1  0.10349566  0.75000159  0.31801117  1  1.81744  0  0.696341  1.31247  0  2.757955  0
In  In3  1  0.60345945  0.25000063  0.18202503  1  1.817414  0  0.696392  1.312471  0  2.757492  0
H  H4  1  0.13508873  0.74999252  0.64032794  1  0.471577  0  0.308873  0.263584  0  0.933256  0
H  H5  1  0.63508110  0.25000051  0.85967112  1  0.471596  0  0.308925  0.263706  0  0.933303  0
H  H6  1  0.36491517  0.75000001  0.14032434  1  0.471619  0  0.308853  0.263598  0  0.933411  0
H  H7  1  0.86492436  0.24999453  0.35965435  1  0.421759  0  0.308901  0.263716  0  0.933109  0
H  H8  1  0.47462037  0.63556121  0.53524135  1  0.106591  0  0.115847  0.133132  0  1.008147  0
H  H9  1  0.97460669  0.36443398  0.96475114  1  0.106568  0  0.11576  0.132976  0  1.008051  0
H  H10  1  0.02540160  0.86444145  0.03525059  1  0.106786  0  0.115795  0.133024  0  1.007992  0
H  H11  1  0.52539921  0.13557004  0.46475368  1  0.106669  0  0.115833  0.133073  0  1.008184  0
H  H12  1  0.52540450  0.36442920  0.46475484  1  0.106689  0  0.115796  0.133014  0  1.008079  0
H  H13  1  0.02540808  0.63556430  0.03524798  1  0.106762  0  0.115785  0.133012  0  1.008006  0
H  H14  1  0.97459299  0.13556694  0.96475584  1  0.106679  0  0.115757  0.133  0  1.007977  0
H  H15  1  0.47460547  0.86443386  0.53523812  1  0.106549  0  0.115839  0.133111  0  1.008198  0
H  H16  1  0.25610855  0.53316789  0.59020843  1  0.130826  0  0.116803  0.126868  0  1.01437  0
H  H17  1  0.75609607  0.46682920  0.90978322  1  0.130755  0  0.116867  0.127008  0  1.014325  0
H  H18  1  0.24389410  0.96683251  0.09022563  1  0.130789  0  0.116832  0.12692  0  1.014242  0
H  H19  1  0.74390727  0.03318044  0.40979340  1  0.130846  0  0.116875  0.127033  0  1.014385  0
H  H20  1  0.74391464  0.46681466  0.40978411  1  0.130864  0  0.116888  0.12706  0  1.01425  0
H  H21  1  0.24389347  0.53316571  0.09022760  1  0.130839  0  0.116797  0.126896  0  1.01411  0
H  H22  1  0.75609880  0.03317363  0.90978373  1  0.130757  0  0.116862  0.127027  0  1.01434  0
H  H23  1  0.25609236  0.96682234  0.59020792  1  0.130792  0  0.116838  0.126994  0  1.014335  0
C  C24  1  0.56248307  0.52661906  0.66851942  1  1.579997  0  0.237376  0.635922  0  4.126451  0
C  C25  1  0.06248642  0.47338097  0.83147473  1  1.579512  0  0.237326  0.635808  0  4.12549  0
C  C26  1  0.93751041  0.97337616  0.16852822  1  1.579763  0  0.237343  0.635824  0  4.125722  0
C  C27  1  0.43753788  0.02661924  0.33149125  1  1.580954  0  0.23731  0.635966  0  4.126622  0
C  C28  1  0.43753170  0.47337697  0.33149068  1  1.580752  0  0.237281  0.635868  0  4.126706  0
C  C29  1  0.93749640  0.52663191  0.16852659  1  1.579816  0  0.237294  0.635755  0  4.125714  0
C  C30  1  0.06248082  0.02662099  0.83147895  1  1.579409  0  0.237309  0.63577  0  4.125874  0
C  C31  1  0.56247857  0.97337904  0.66851446  1  1.580934  0  0.237282  0.63587  0  4.126379  0
C  C32  1  0.39460290  0.61090421  0.60581942  1  0.257295  0  -0.072081  -0.217384  0  3.884904  0
C  C33  1  0.89457576  0.38907891  0.89417557  1  0.257391  0  -0.072033  -0.217199  0  3.884662  0
C  C34  1  0.10541371  0.88908496  0.10582814  1  0.257355  0  -0.072006  -0.217094  0  3.884599  0
C  C35  1  0.60540522  0.11089815  0.39417950  1  0.257104  0  -0.072055  -0.217377  0  3.885166  0
C  C36  1  0.60540851  0.38909520  0.39417751  1  0.25697  0  -0.072025  -0.217208  0  3.884619  0
C  C37  1  0.10540874  0.61092274  0.10582794  1  0.257079  0  -0.071979  -0.217155  0  3.884431  0
C  C38  1  0.89457583  0.11091782  0.89417903  1  0.25731  0  -0.072032  -0.217204  0  3.884718  0
C  C39  1  0.39458937  0.88908664  0.60581596  1  0.25726  0  -0.072058  -0.217439  0  3.88507  0
N  N40  1  0.30550866  0.75000008  0.65084185  1  -1.114087  0  -0.449793  -0.29378  0  3.466047  0
N  N41  1  0.80549510  0.24999909  0.84915356  1  -1.114177  0  -0.449837  -0.29416  0  3.466376  0
N  N42  1  0.19450117  0.75000032  0.15084556  1  -1.114188  0  -0.449822  -0.294044  0  3.466356  0
N  N43  1  0.69449434  0.24999371  0.34914995  1  -1.064088  0  -0.449827  -0.294139  0  3.465842  0
Cl  Cl44  1  0.59930847  0.75000289  0.97333623  1  -0.63339  0  -0.228339  -0.458136  0  1.047868  0
Cl  Cl45  1  0.09933102  0.24999364  0.52665232  1  -0.633251  0  -0.228268  -0.458069  0  1.048099  0
Cl  Cl46  1  0.90068544  0.75000914  0.47335705  1  -0.633285  0  -0.228221  -0.458016  0  1.048148  0
Cl  Cl47  1  0.40066257  0.24999314  0.02666216  1  -0.633234  0  -0.228344  -0.458132  0  1.04774  0
O  O48  1  0.60948124  0.56918723  0.75500279  1  -1.177655  0  -0.280423  -0.550788  0  2.304871  0
O  O49  1  0.10948832  0.43080140  0.74498270  1  -1.177314  0  -0.280431  -0.5508  0  2.304387  0
O  O50  1  0.89051577  0.93080236  0.25501771  1  -1.177529  0  -0.280424  -0.550788  0  2.304394  0
O  O51  1  0.39051731  0.06917073  0.24500602  1  -1.17733  0  -0.280458  -0.55082  0  2.30463  0
O  O52  1  0.39051167  0.43083240  0.24500438  1  -1.177361  0  -0.280439  -0.550817  0  2.30472  0
O  O53  1  0.89051132  0.56921373  0.25501862  1  -1.177505  0  -0.280356  -0.550752  0  2.304373  0
O  O54  1  0.10948723  0.06919704  0.74499020  1  -1.177109  0  -0.280367  -0.550703  0  2.304431  0
O  O55  1  0.60948737  0.93080507  0.75499968  1  -1.177606  0  -0.280398  -0.550792  0  2.304762  0
O  O56  1  0.64898989  0.41200506  0.62768665  1  -1.167881  0  -0.281086  -0.539802  0  2.33242  0
O  O57  1  0.14899543  0.58799129  0.87229614  1  -1.167675  0  -0.281067  -0.539776  0  2.332445  0
O  O58  1  0.85099616  0.08798665  0.12770226  1  -1.168011  0  -0.281109  -0.539896  0  2.332426  0
O  O59  1  0.35103630  0.91200232  0.37230588  1  -1.169  0  -0.281042  -0.539793  0  2.332576  0
O  O60  1  0.35102320  0.58798760  0.37231101  1  -1.16872  0  -0.281074  -0.539816  0  2.332729  0
O  O61  1  0.85097393  0.41203058  0.12770005  1  -1.168029  0  -0.281101  -0.53978  0  2.332442  0
O  O62  1  0.14899171  0.91200938  0.87230637  1  -1.167733  0  -0.281083  -0.539825  0  2.332436  0
O  O63  1  0.64899025  0.08799146  0.62768885  1  -1.16883  0  -0.28109  -0.539842  0  2.332548  0
