# generated using pymatgen
data_CoPH9C9N2O3
_symmetry_space_group_name_H-M   'P 1'
_cell_length_a   9.31345227
_cell_length_b   9.90200859
_cell_length_c   12.93050825
_cell_angle_alpha   94.57477696
_cell_angle_beta   110.90155600
_cell_angle_gamma   89.97283815
_symmetry_Int_Tables_number   1
_chemical_formula_structural   CoPH9C9N2O3
_chemical_formula_sum   'Co4 P4 H36 C36 N8 O12'
_cell_volume   1109.95416249
_cell_formula_units_Z   4
loop_
 _symmetry_equiv_pos_site_id
 _symmetry_equiv_pos_as_xyz
  1  'x, y, z'
loop_
 _atom_site_type_symbol
 _atom_site_label
 _atom_site_symmetry_multiplicity
 _atom_site_fract_x
 _atom_site_fract_y
 _atom_site_fract_z
 _atom_site_occupancy
 _atom_site_pbe_cm5_charge
 _atom_site_pbe_ddec_charge
 _atom_site_pbe_ddec_spin_density
 _atom_site_pbe_ddec_sum_bond_order
 _atom_site_pbe_magmom
Co  Co0  1  0.33378566  0.39194085  0.52732896  1  0.689931  0.987797  2.908196  2.462472  2.537
Co  Co1  1  0.80556308  0.10906215  0.47149694  1  0.68979  0.991081  -2.839706  2.454728  -2.542
Co  Co2  1  0.66725095  0.60846225  0.47174986  1  0.689532  0.989996  -2.841612  2.458864  -2.544
Co  Co3  1  0.19367515  0.89212465  0.52691829  1  0.657395  0.91634  -0.967769  2.55997  -0.874
P  P4  1  0.14484896  0.19010256  0.62212231  1  0.286422  1.204433  0.003831  5.515092  0.001
P  P5  1  0.52241036  0.31120338  0.37697350  1  0.284653  1.204782  -0.006905  5.520608  -0.006
P  P6  1  0.85696349  0.81035830  0.37660663  1  0.28511  1.20628  -0.016552  5.514811  -0.012
P  P7  1  0.47662718  0.68838972  0.62187739  1  0.28465  1.203528  -0.003078  5.518754  0.0
H  H8  1  0.12028601  0.22742195  0.72228986  1  0.079127  -0.130449  0.006178  0.989606  0.007
H  H9  1  0.39863088  0.27097163  0.27753096  1  0.07812  -0.131413  -0.004058  0.989636  -0.004
H  H10  1  0.87966687  0.77130554  0.27604192  1  0.078398  -0.131451  -0.003366  0.989363  -0.004
H  H11  1  0.59891795  0.73021921  0.72175149  1  0.077309  -0.132928  0.000578  0.991755  0.0
H  H12  1  0.96071405  0.36784688  0.41322250  1  0.137481  0.121421  0.000223  1.041354  0.0
H  H13  1  0.54735734  0.13208471  0.58673620  1  0.13797  0.122534  -0.000507  1.040051  -0.001
H  H14  1  0.03970768  0.63236430  0.58662620  1  0.137741  0.122365  -0.000137  1.040934  0.0
H  H15  1  0.45195952  0.86783445  0.41517348  1  0.138112  0.123858  6.6e-05  1.039666  0.0
H  H16  1  0.29772634  0.56244267  0.32431277  1  0.118775  0.115685  0.000778  1.040722  0.001
H  H17  1  0.97328874  0.93820423  0.67501792  1  0.118939  0.115081  -0.000389  1.039107  -0.001
H  H18  1  0.70217102  0.43794832  0.67527316  1  0.11865  0.115969  -0.000717  1.040611  -0.001
H  H19  1  0.02628118  0.06220008  0.32590962  1  0.119189  0.117167  -0.000244  1.041949  -0.001
H  H20  1  0.01142417  0.58802054  0.15902265  1  0.123223  0.124112  0.000283  1.004728  0.0
H  H21  1  0.85149690  0.91222740  0.84057123  1  0.123424  0.124735  -0.000309  1.004059  0.0
H  H22  1  0.98830241  0.41216367  0.84064647  1  0.123338  0.124694  -0.000272  1.00484  0.0
H  H23  1  0.14821015  0.08679033  0.16017732  1  0.123298  0.124284  -0.000241  1.005363  0.0
H  H24  1  0.72613448  0.57029378  0.21675865  1  0.110585  0.099131  7.7e-05  1.016494  0.0
H  H25  1  0.50897212  0.92975431  0.78382284  1  0.110561  0.098147  0.000124  1.015465  0.0
H  H26  1  0.27385382  0.42987181  0.78329320  1  0.110476  0.098905  2.9e-05  1.016797  0.0
H  H27  1  0.49008031  0.06985757  0.21702988  1  0.110265  0.098313  0.00021  1.017429  0.0
H  H28  1  0.72309650  0.40607180  0.25804971  1  0.11881  0.112892  6e-06  1.006841  0.0
H  H29  1  0.46478396  0.09400058  0.74257195  1  0.119346  0.113805  -0.000131  1.004757  0.0
H  H30  1  0.27707916  0.59395890  0.74199967  1  0.119152  0.113463  -0.000184  1.006053  0.0
H  H31  1  0.53465247  0.90548068  0.25791250  1  0.119392  0.113678  5e-05  1.003434  0.0
H  H32  1  0.69010422  0.61473733  0.03579615  1  0.098785  0.098233  -5e-06  1.005239  0.0
H  H33  1  0.65413785  0.88520649  0.96458859  1  0.098592  0.098102  1.5e-05  1.005604  0.0
H  H34  1  0.30987523  0.38529859  0.96414413  1  0.098792  0.098255  3e-05  1.00544  0.0
H  H35  1  0.34566561  0.11475393  0.03609818  1  0.098679  0.098531  -1.5e-05  1.004856  0.0
H  H36  1  0.79339867  0.20640117  0.22601183  1  0.103341  0.108169  9.4e-05  1.031422  0.0
H  H37  1  0.56722015  0.29363364  0.77426412  1  0.103605  0.108151  -4.3e-05  1.029792  0.0
H  H38  1  0.20726837  0.79392108  0.77431149  1  0.10351  0.108267  -6.6e-05  1.030756  0.0
H  H39  1  0.43253189  0.70606870  0.22592640  1  0.103771  0.108433  -1.8e-05  1.029252  0.0
H  H40  1  0.59959240  0.53502948  0.83360754  1  0.099478  0.1036  -1.7e-05  1.030277  0.0
H  H41  1  0.76615773  0.96492064  0.16665530  1  0.09931  0.103155  0.000131  1.031664  0.0
H  H42  1  0.40057837  0.46469011  0.16634335  1  0.098936  0.102804  -1.5e-05  1.030842  0.0
H  H43  1  0.23465702  0.03544385  0.83403821  1  0.098967  0.101234  0.000295  1.030867  0.0
C  C44  1  0.01408515  0.42549012  0.36775513  1  0.144646  0.098466  0.001089  3.88814  0.002
C  C45  1  0.64601637  0.07450530  0.63202232  1  0.144375  0.09761  -0.001051  3.889239  -0.002
C  C46  1  0.98623995  0.57471808  0.63206456  1  0.144603  0.098075  -0.000876  3.889367  -0.002
C  C47  1  0.35374798  0.92578794  0.36958893  1  0.144576  0.09514  0.00308  3.875922  0.004
C  C48  1  0.18464456  0.52738766  0.31814252  1  -0.00287  -0.028514  0.001307  4.012551  0.001
C  C49  1  0.86619856  0.97311499  0.68120455  1  -0.004186  -0.03121  -0.000859  4.012857  -0.001
C  C50  1  0.81532957  0.47276007  0.68137714  1  -0.003153  -0.028993  -0.000959  4.012059  -0.001
C  C51  1  0.13348023  0.02762161  0.31992309  1  -0.003313  -0.032413  -0.002854  4.007528  -0.003
C  C52  1  0.04420691  0.54059862  0.23641145  1  -0.002688  -0.110305  0.002921  3.935291  0.004
C  C53  1  0.80711947  0.95957460  0.76313177  1  -0.002013  -0.109908  -0.002813  3.933581  -0.004
C  C54  1  0.95568228  0.45956425  0.76324497  1  -0.003399  -0.111929  -0.002622  3.937205  -0.004
C  C55  1  0.19251228  0.04003799  0.23786360  1  -0.002294  -0.109893  -0.001423  3.938267  -0.002
C  C56  1  0.77052777  0.46840508  0.21081632  1  -0.050745  -0.121971  0.000343  3.893092  0.001
C  C57  1  0.55917855  0.03159351  0.78953606  1  -0.04951  -0.120413  -0.000529  3.891356  -0.001
C  C58  1  0.22950722  0.53174631  0.78922196  1  -0.050566  -0.121797  -0.000375  3.892269  -0.001
C  C59  1  0.44004950  0.96797373  0.21129352  1  -0.050483  -0.120422  6.1e-05  3.890808  0.0
C  C60  1  0.72297147  0.41507616  0.09066771  1  -0.014162  0.040611  -6.5e-05  3.958889  0.0
C  C61  1  0.63186193  0.08485535  0.90963646  1  -0.014319  0.039937  0.000112  3.960591  0.0
C  C62  1  0.27695616  0.58496679  0.90938878  1  -0.014164  0.040821  -7.7e-05  3.959029  0.0
C  C63  1  0.36746463  0.91501506  0.09100983  1  -0.01394  0.039863  -4e-05  3.957165  0.0
C  C64  1  0.68435722  0.50642385  0.01020057  1  -0.093836  -0.1395  0.000309  4.022051  0.0
C  C65  1  0.67395141  0.99352495  0.99009533  1  -0.093696  -0.139772  -0.000255  4.023041  0.0
C  C66  1  0.31555026  0.49356442  0.98979553  1  -0.093858  -0.139566  -0.000195  4.022222  0.0
C  C67  1  0.32579106  0.00643147  0.01055070  1  -0.09329  -0.139809  -0.00018  4.02058  0.0
C  C68  1  0.71117541  0.27269001  0.05841620  1  -0.007893  0.027208  9.3e-05  3.966777  0.0
C  C69  1  0.65268893  0.22724121  0.94185371  1  -0.008077  0.026503  -7.9e-05  3.967079  0.0
C  C70  1  0.28870875  0.72730621  0.94180329  1  -0.007521  0.027684  -6e-05  3.967113  0.0
C  C71  1  0.34685603  0.77266386  0.05842961  1  -0.008381  0.026407  -0.000119  3.96572  0.0
C  C72  1  0.75186452  0.17440414  0.13752390  1  -0.090499  -0.126678  -0.000119  3.96095  0.0
C  C73  1  0.61431750  0.32556573  0.86276438  1  -0.090611  -0.126253  0.000206  3.958577  0.0
C  C74  1  0.24848451  0.82573979  0.86282932  1  -0.090843  -0.127855  -0.000264  3.961813  0.0
C  C75  1  0.38544094  0.67421872  0.13739958  1  -0.090318  -0.126694  -0.000119  3.959279  0.0
C  C76  1  0.63163212  0.46216809  0.89623898  1  -0.09466  -0.074832  -6.8e-05  4.027651  0.0
C  C77  1  0.73549321  0.03780651  0.10403715  1  -0.095587  -0.075239  7.9e-05  4.028678  0.0
C  C78  1  0.36834106  0.53766200  0.10378756  1  -0.09416  -0.073803  -0.000146  4.02693  0.0
C  C79  1  0.26483891  0.96229573  0.89650558  1  -0.095143  -0.073522  7.1e-05  4.027173  0.0
N  N80  1  0.16469925  0.45453175  0.39950772  1  -0.371306  -0.35716  0.035114  3.706581  0.04
N  N81  1  0.76502484  0.04586446  0.59995725  1  -0.370503  -0.357094  -0.033974  3.705938  -0.041
N  N82  1  0.83559186  0.54557327  0.60005325  1  -0.371498  -0.358609  -0.034182  3.705925  -0.041
N  N83  1  0.23452782  0.95516293  0.40139313  1  -0.36953  -0.335185  -0.005301  3.731043  -0.005
N  N84  1  0.93792480  0.47569945  0.26904898  1  -0.239109  0.051518  0.000652  3.759285  0.001
N  N85  1  0.66824687  0.02414007  0.73073785  1  -0.239212  0.051631  -0.000929  3.760547  -0.002
N  N86  1  0.06214602  0.52450983  0.73081727  1  -0.238932  0.051838  -0.00061  3.759928  -0.001
N  N87  1  0.33118167  0.97526166  0.27037229  1  -0.239023  0.049387  0.000269  3.762641  0.0
O  O88  1  0.28121736  0.27830931  0.62460759  1  -0.38063  -0.724381  0.038661  2.406377  0.049
O  O89  1  0.65820863  0.22480084  0.37491648  1  -0.38191  -0.727424  -0.038844  2.402021  -0.052
O  O90  1  0.71964028  0.72412143  0.37547229  1  -0.382415  -0.728955  -0.0492  2.401766  -0.069
O  O91  1  0.33916534  0.77340772  0.62189011  1  -0.377997  -0.713794  -0.035396  2.404899  -0.055
O  O92  1  0.99645002  0.21727569  0.52551367  1  -0.375536  -0.735641  -0.047853  2.416037  -0.066
O  O93  1  0.47142467  0.28308554  0.47428384  1  -0.376387  -0.736387  0.047984  2.413771  0.064
O  O94  1  0.00573750  0.78037702  0.47211013  1  -0.371698  -0.720977  -0.023188  2.415397  -0.039
O  O95  1  0.52920078  0.71588415  0.52517378  1  -0.376718  -0.73559  -0.047253  2.415855  -0.066
O  O96  1  0.18270289  0.03902961  0.63052500  1  -0.37308  -0.718356  0.017735  2.426454  0.039
O  O97  1  0.54808380  0.46241369  0.36747091  1  -0.379314  -0.738854  -0.046623  2.423932  -0.064
O  O98  1  0.82217091  0.96182101  0.36869264  1  -0.379189  -0.740721  -0.049584  2.427965  -0.068
O  O99  1  0.45228329  0.53715287  0.63233023  1  -0.378967  -0.737446  0.044163  2.425015  0.057
