# generated using pymatgen
data_ZnH6C4(NO)4
_symmetry_space_group_name_H-M   'P 1'
_cell_length_a   6.34602300
_cell_length_b   7.13727826
_cell_length_c   18.58119345
_cell_angle_alpha   90.00022904
_cell_angle_beta   90.00005205
_cell_angle_gamma   108.20182010
_symmetry_Int_Tables_number   1
_chemical_formula_structural   ZnH6C4(NO)4
_chemical_formula_sum   'Zn4 H24 C16 N16 O16'
_cell_volume   799.49208315
_cell_formula_units_Z   4
loop_
 _symmetry_equiv_pos_site_id
 _symmetry_equiv_pos_as_xyz
  1  'x, y, z'
loop_
 _atom_site_type_symbol
 _atom_site_label
 _atom_site_symmetry_multiplicity
 _atom_site_fract_x
 _atom_site_fract_y
 _atom_site_fract_z
 _atom_site_occupancy
 _atom_site_hle17_bader_spin_density
 _atom_site_hle17_ddec_charge
 _atom_site_hle17_ddec_spin_density
 _atom_site_hle17_ddec_sum_bond_order
 _atom_site_hle17_magmom
 _atom_site_hse06_10hf_bader_spin_density
 _atom_site_hse06_10hf_ddec_charge
 _atom_site_hse06_10hf_ddec_spin_density
 _atom_site_hse06_10hf_ddec_sum_bond_order
 _atom_site_hse06_10hf_magmom
 _atom_site_hse06_bader_spin_density
 _atom_site_hse06_ddec_charge
 _atom_site_hse06_ddec_spin_density
 _atom_site_hse06_ddec_sum_bond_order
 _atom_site_hse06_magmom
 _atom_site_pbe_bader_spin_density
 _atom_site_pbe_cm5_charge
 _atom_site_pbe_ddec_charge
 _atom_site_pbe_ddec_spin_density
 _atom_site_pbe_ddec_sum_bond_order
 _atom_site_pbe_magmom
Zn  Zn0  1  0.51368720  0.72910042  0.29247378  1  0  1.127272  0  1.814003  0  0  0.948364  0  2.29728  0  0  0.992723  0  2.238719  0  0  0.674429  0.916965  0  2.338148  0
Zn  Zn1  1  0.98629890  0.27090448  0.79247690  1  0  1.127377  0  1.813812  0  0  0.948505  0  2.297062  0  0  0.992864  0  2.238521  0  0  0.674457  0.917114  0  2.337935  0
Zn  Zn2  1  0.48630131  0.27091223  0.70752588  1  0  1.127328  0  1.813873  0  0  0.948456  0  2.297127  0  0  0.992809  0  2.238587  0  0  0.674456  0.917052  0  2.33799  0
Zn  Zn3  1  0.01368980  0.72908297  0.20752437  1  0  1.127356  0  1.813897  0  0  0.948484  0  2.297131  0  0  0.992842  0  2.238588  0  0  0.674503  0.917083  0  2.33799  0
H  H4  1  0.82725898  0.98538723  0.24034443  1  0  0.413933  0  0.881177  0  0  0.386374  0  0.941496  0  0  0.396121  0  0.927149  0  0  0.287398  0.379416  0  0.951745  0
H  H5  1  0.67273194  0.01461399  0.74034815  1  0  0.413973  0  0.881172  0  0  0.386412  0  0.941457  0  0  0.396161  0  0.927106  0  0  0.287424  0.379457  0  0.951703  0
H  H6  1  0.17273828  0.01461492  0.75965253  1  0  0.413944  0  0.881198  0  0  0.3864  0  0.941473  0  0  0.39615  0  0.927121  0  0  0.287424  0.379444  0  0.95172  0
H  H7  1  0.32724596  0.98538695  0.25965043  1  0  0.413926  0  0.881192  0  0  0.386366  0  0.941508  0  0  0.396113  0  0.927161  0  0  0.287394  0.379409  0  0.951757  0
H  H8  1  0.90338989  0.91060986  0.35115212  1  0  0.336926  0  0.921232  0  0  0.319029  0  0.982114  0  0  0.327129  0  0.975507  0  0  0.296296  0.313225  0  0.986917  0
H  H9  1  0.59661599  0.08939698  0.85115808  1  0  0.337049  0  0.921153  0  0  0.319093  0  0.9821  0  0  0.327188  0  0.975505  0  0  0.296363  0.313288  0  0.986902  0
H  H10  1  0.09660786  0.08938932  0.64884538  1  0  0.336955  0  0.921241  0  0  0.319064  0  0.982112  0  0  0.327164  0  0.975504  0  0  0.296311  0.313256  0  0.986912  0
H  H11  1  0.40339333  0.91060797  0.14884750  1  0  0.336959  0  0.921287  0  0  0.319061  0  0.982161  0  0  0.327158  0  0.97556  0  0  0.2963  0.313252  0  0.986962  0
H  H12  1  0.03919394  0.00035325  0.43482191  1  0  0.324881  0  0.945104  0  0  0.295426  0  1.026775  0  0  0.305102  0  1.018568  0  0  0.290819  0.288696  0  1.032308  0
H  H13  1  0.46081921  0.99964892  0.93482615  1  0  0.324849  0  0.94513  0  0  0.295399  0  1.026775  0  0  0.305073  0  1.01857  0  0  0.29081  0.288669  0  1.032307  0
H  H14  1  0.96081851  0.99965165  0.56517667  1  0  0.32482  0  0.945238  0  0  0.295402  0  1.026845  0  0  0.305077  0  1.018641  0  0  0.290813  0.28867  0  1.032376  0
H  H15  1  0.53917998  0.00034134  0.06517889  1  0  0.324693  0  0.945272  0  0  0.295314  0  1.026837  0  0  0.304988  0  1.018636  0  0  0.290772  0.288582  0  1.032369  0
H  H16  1  0.52252832  0.77631537  0.60682768  1  0  0.082113  0  0.933462  0  0  0.088064  0  1.0011  0  0  0.091236  0  0.996296  0  0  0.114711  0.085653  0  1.004575  0
H  H17  1  0.97750026  0.22367772  0.10682661  1  0  0.082285  0  0.93366  0  0  0.088274  0  1.001256  0  0  0.091441  0  0.996436  0  0  0.114872  0.08587  0  1.004722  0
H  H18  1  0.47748239  0.22367621  0.39317682  1  0  0.08222  0  0.933596  0  0  0.088178  0  1.001191  0  0  0.091338  0  0.996398  0  0  0.114838  0.085778  0  1.004662  0
H  H19  1  0.02253614  0.77631943  0.89317412  1  0  0.082351  0  0.933617  0  0  0.088284  0  1.001258  0  0  0.091452  0  0.99646  0  0  0.114859  0.085879  0  1.004732  0
H  H20  1  0.17051293  0.59693606  0.54212390  1  0  0.124797  0  0.965747  0  0  0.133059  0  1.027532  0  0  0.136923  0  1.026598  0  0  0.107209  0.130335  0  1.028291  0
H  H21  1  0.32951391  0.40308028  0.04212467  1  0  0.124792  0  0.965535  0  0  0.13301  0  1.027414  0  0  0.136873  0  1.02648  0  0  0.107171  0.130321  0  1.028137  0
H  H22  1  0.82950374  0.40307174  0.45787630  1  0  0.124822  0  0.965516  0  0  0.133037  0  1.027388  0  0  0.136904  0  1.026446  0  0  0.107209  0.130314  0  1.028153  0
H  H23  1  0.67050904  0.59692743  0.95787068  1  0  0.124849  0  0.965567  0  0  0.133041  0  1.027472  0  0  0.136903  0  1.026541  0  0  0.107194  0.130341  0  1.028212  0
H  H24  1  0.18725426  0.58958549  0.40492011  1  0  0.085043  0  0.947927  0  0  0.094714  0  1.012478  0  0  0.097292  0  1.008444  0  0  0.118853  0.092773  0  1.015313  0
H  H25  1  0.31273588  0.41043146  0.90492340  1  0  0.085102  0  0.947794  0  0  0.094741  0  1.012392  0  0  0.09735  0  1.008319  0  0  0.118905  0.092802  0  1.015221  0
H  H26  1  0.81274571  0.41042403  0.59507793  1  0  0.085135  0  0.947863  0  0  0.094753  0  1.012471  0  0  0.097372  0  1.008387  0  0  0.118894  0.09281  0  1.015302  0
H  H27  1  0.68723623  0.58956660  0.09507518  1  0  0.085109  0  0.947875  0  0  0.094764  0  1.012446  0  0  0.097353  0  1.008399  0  0  0.118896  0.092821  0  1.015281  0
C  C28  1  0.51878393  0.76613501  0.54809948  1  0  0.21839  0  3.703323  0  0  0.179982  0  3.970785  0  0  0.195294  0  3.982416  0  0  0.068346  0.17027  0  3.962647  0
C  C29  1  0.98122993  0.23388275  0.04810273  1  0  0.218042  0  3.703257  0  0  0.179493  0  3.970844  0  0  0.194822  0  3.982459  0  0  0.068089  0.169773  0  3.96272  0
C  C30  1  0.48122189  0.23388184  0.45189964  1  0  0.218057  0  3.703541  0  0  0.179639  0  3.970991  0  0  0.19496  0  3.98261  0  0  0.068121  0.169918  0  3.962869  0
C  C31  1  0.01877402  0.76611190  0.95189585  1  0  0.21806  0  3.703497  0  0  0.179649  0  3.970949  0  0  0.194961  0  3.982573  0  0  0.068147  0.169931  0  3.962828  0
C  C32  1  0.32174431  0.66623287  0.51231534  1  0  -0.223612  0  3.743034  0  0  -0.243357  0  4.013148  0  0  -0.258106  0  4.034835  0  0  -0.11224  -0.233987  0  3.998512  0
C  C33  1  0.17827014  0.33377142  0.01231811  1  0  -0.223409  0  3.742743  0  0  -0.243061  0  4.012891  0  0  -0.257812  0  4.034581  0  0  -0.112134  -0.233732  0  3.998248  0
C  C34  1  0.67826435  0.33376171  0.48768324  1  0  -0.223373  0  3.742833  0  0  -0.243093  0  4.012961  0  0  -0.257839  0  4.034645  0  0  -0.112168  -0.233735  0  3.998348  0
C  C35  1  0.82173966  0.66623055  0.98768423  1  0  -0.223546  0  3.743016  0  0  -0.24324  0  4.013156  0  0  -0.25799  0  4.034849  0  0  -0.112173  -0.233895  0  3.998512  0
C  C36  1  0.33202568  0.66202111  0.43802086  1  0  0.198652  0  3.715637  0  0  0.160316  0  3.971379  0  0  0.174849  0  3.986136  0  0  0.059743  0.151146  0  3.96087  0
C  C37  1  0.16797387  0.33797832  0.93802722  1  0  0.198544  0  3.715693  0  0  0.160216  0  3.971462  0  0  0.174725  0  3.986219  0  0  0.059721  0.151048  0  3.960956  0
C  C38  1  0.66797206  0.33797806  0.56197557  1  0  0.198438  0  3.715811  0  0  0.160134  0  3.971535  0  0  0.174637  0  3.98629  0  0  0.059696  0.150968  0  3.961019  0
C  C39  1  0.83202539  0.66201639  0.06197835  1  0  0.198487  0  3.71589  0  0  0.16021  0  3.971603  0  0  0.174732  0  3.986367  0  0  0.059719  0.151041  0  3.961092  0
C  C40  1  0.70910554  0.83998607  0.44068020  1  0  0.63764  0  3.818083  0  0  0.591613  0  4.087052  0  0  0.617951  0  4.096542  0  0  0.349585  0.574075  0  4.080073  0
C  C41  1  0.79089349  0.16001012  0.94068578  1  0  0.637859  0  3.818137  0  0  0.591816  0  4.087114  0  0  0.618153  0  4.096605  0  0  0.349818  0.574277  0  4.080136  0
C  C42  1  0.29090107  0.16001150  0.55931569  1  0  0.637787  0  3.817816  0  0  0.591728  0  4.086809  0  0  0.618065  0  4.0963  0  0  0.349724  0.574187  0  4.079829  0
C  C43  1  0.20910565  0.83997570  0.05931172  1  0  0.637813  0  3.817517  0  0  0.591733  0  4.08662  0  0  0.618072  0  4.09611  0  0  0.349685  0.574193  0  4.079639  0
N  N44  1  0.52189517  0.74733983  0.40171435  1  0  -0.510774  0  3.195992  0  0  -0.422618  0  3.478691  0  0  -0.44999  0  3.487374  0  0  -0.347804  -0.404281  0  3.472468  0
N  N45  1  0.97810388  0.25267811  0.90171906  1  0  -0.510954  0  3.195932  0  0  -0.422826  0  3.478704  0  0  -0.450205  0  3.487404  0  0  -0.347938  -0.40449  0  3.472482  0
N  N46  1  0.47810697  0.25267559  0.59828476  1  0  -0.510787  0  3.196015  0  0  -0.422615  0  3.478706  0  0  -0.449992  0  3.487409  0  0  -0.347851  -0.404275  0  3.472473  0
N  N47  1  0.02189284  0.74732257  0.09828275  1  0  -0.510727  0  3.195997  0  0  -0.422677  0  3.478861  0  0  -0.450053  0  3.487556  0  0  -0.347858  -0.404339  0  3.47263  0
N  N48  1  0.70853737  0.85261319  0.51380414  1  0  -0.462161  0  3.032974  0  0  -0.402516  0  3.282447  0  0  -0.423954  0  3.294207  0  0  -0.317766  -0.38834  0  3.274164  0
N  N49  1  0.79148379  0.14738180  0.01380721  1  0  -0.462107  0  3.03282  0  0  -0.402366  0  3.282303  0  0  -0.423806  0  3.294063  0  0  -0.317805  -0.38819  0  3.27402  0
N  N50  1  0.29147496  0.14738282  0.48619498  1  0  -0.462131  0  3.033049  0  0  -0.402446  0  3.282511  0  0  -0.423885  0  3.29427  0  0  -0.317762  -0.388271  0  3.274236  0
N  N51  1  0.20853156  0.85260526  0.98618922  1  0  -0.462136  0  3.032651  0  0  -0.402423  0  3.282123  0  0  -0.423861  0  3.293882  0  0  -0.317792  -0.388247  0  3.273844  0
N  N52  1  0.89993940  0.92022259  0.40619596  1  0  -0.675102  0  3.101635  0  0  -0.6327  0  3.335328  0  0  -0.656891  0  3.330997  0  0  -0.56201  -0.615804  0  3.337663  0
N  N53  1  0.60006891  0.07978193  0.90620190  1  0  -0.67524  0  3.101692  0  0  -0.63281  0  3.335577  0  0  -0.657  0  3.331254  0  0  -0.562161  -0.615916  0  3.337914  0
N  N54  1  0.10006202  0.07977801  0.59380316  1  0  -0.675145  0  3.101506  0  0  -0.63273  0  3.335162  0  0  -0.656924  0  3.330832  0  0  -0.562078  -0.615832  0  3.337494  0
N  N55  1  0.39993559  0.92021419  0.09380475  1  0  -0.675087  0  3.101609  0  0  -0.632698  0  3.335266  0  0  -0.656895  0  3.330945  0  0  -0.561996  -0.615799  0  3.337598  0
N  N56  1  0.32681041  0.37284392  0.21884903  1  0  0.70001  0  4.133016  0  0  0.722998  0  4.436323  0  0  0.751441  0  4.443198  0  0  0.102565  0.705725  0  4.430796  0
N  N57  1  0.17318615  0.62716171  0.71884938  1  0  0.700016  0  4.132763  0  0  0.722944  0  4.43611  0  0  0.751386  0  4.44298  0  0  0.102591  0.705684  0  4.430586  0
N  N58  1  0.67318432  0.62716419  0.78115170  1  0  0.700065  0  4.132933  0  0  0.72293  0  4.436352  0  0  0.751372  0  4.443227  0  0  0.102628  0.70567  0  4.430828  0
N  N59  1  0.82680744  0.37283901  0.28115135  1  0  0.700096  0  4.132965  0  0  0.722973  0  4.436372  0  0  0.751417  0  4.443239  0  0  0.102653  0.705708  0  4.430847  0
O  O60  1  0.81020289  0.84840183  0.25288335  1  0  -0.978384  0  1.932903  0  0  -0.877495  0  2.232089  0  0  -0.907219  0  2.191015  0  0  -0.584804  -0.856103  0  2.260575  0
O  O61  1  0.68978342  0.15159961  0.75288620  1  0  -0.978475  0  1.932917  0  0  -0.877561  0  2.232036  0  0  -0.907279  0  2.190961  0  0  -0.584835  -0.856175  0  2.260526  0
O  O62  1  0.18978442  0.15159898  0.74711416  1  0  -0.978393  0  1.932895  0  0  -0.87754  0  2.232068  0  0  -0.907267  0  2.190996  0  0  -0.584814  -0.856153  0  2.26056  0
O  O63  1  0.31020546  0.84840118  0.24711400  1  0  -0.978383  0  1.933043  0  0  -0.877457  0  2.232193  0  0  -0.907173  0  2.19112  0  0  -0.584769  -0.856063  0  2.260677  0
O  O64  1  0.37542076  0.43234519  0.28528508  1  0  -0.526703  0  1.834619  0  0  -0.494139  0  2.098309  0  0  -0.515218  0  2.086582  0  0  -0.21734  -0.480041  0  2.106025  0
O  O65  1  0.12457149  0.56765689  0.78528586  1  0  -0.526739  0  1.83439  0  0  -0.49413  0  2.098093  0  0  -0.515214  0  2.086374  0  0  -0.21733  -0.480041  0  2.105811  0
O  O66  1  0.62458180  0.56766281  0.71471404  1  0  -0.526687  0  1.834407  0  0  -0.494166  0  2.098249  0  0  -0.515249  0  2.08653  0  0  -0.217393  -0.480075  0  2.105962  0
O  O67  1  0.87540575  0.43233369  0.21471326  1  0  -0.526838  0  1.834531  0  0  -0.494235  0  2.098263  0  0  -0.515316  0  2.086535  0  0  -0.217459  -0.480139  0  2.105976  0
O  O68  1  0.22883357  0.19399182  0.20857667  1  0  -0.430157  0  1.798188  0  0  -0.418722  0  2.020089  0  0  -0.431973  0  2.012123  0  0  -0.165223  -0.410413  0  2.025635  0
O  O69  1  0.27116345  0.80601517  0.70857893  1  0  -0.43017  0  1.798216  0  0  -0.418737  0  2.02017  0  0  -0.431988  0  2.012207  0  0  -0.165251  -0.410435  0  2.025716  0
O  O70  1  0.77116585  0.80601623  0.79142460  1  0  -0.43029  0  1.798243  0  0  -0.418744  0  2.02015  0  0  -0.431994  0  2.012182  0  0  -0.165252  -0.410443  0  2.025698  0
O  O71  1  0.72882911  0.19398705  0.29142503  1  0  -0.430251  0  1.798206  0  0  -0.418729  0  2.020102  0  0  -0.431968  0  2.012127  0  0  -0.165235  -0.410423  0  2.02565  0
O  O72  1  0.37925906  0.49710820  0.16912521  1  0  -0.442754  0  1.784776  0  0  -0.428437  0  2.007069  0  0  -0.442742  0  2.000885  0  0  -0.162788  -0.419352  0  2.011141  0
O  O73  1  0.12073660  0.50289535  0.66912481  1  0  -0.442782  0  1.784732  0  0  -0.42842  0  2.007012  0  0  -0.442739  0  2.000854  0  0  -0.162799  -0.419326  0  2.01104  0
O  O74  1  0.62072156  0.50290012  0.83087607  1  0  -0.442783  0  1.784842  0  0  -0.428378  0  2.007141  0  0  -0.442678  0  2.000952  0  0  -0.162797  -0.419289  0  2.011183  0
O  O75  1  0.87926952  0.49710519  0.33087323  1  0  -0.442739  0  1.784873  0  0  -0.428373  0  2.007165  0  0  -0.442718  0  2.001052  0  0  -0.162785  -0.419284  0  2.011218  0
