# generated using pymatgen
data_Hf3H36C45(S5O8)2
_symmetry_space_group_name_H-M   'P 1'
_cell_length_a   11.47152641
_cell_length_b   20.38065496
_cell_length_c   33.58903656
_cell_angle_alpha   90.50960307
_cell_angle_beta   98.10674421
_cell_angle_gamma   90.23056647
_symmetry_Int_Tables_number   1
_chemical_formula_structural   Hf3H36C45(S5O8)2
_chemical_formula_sum   'Hf6 H72 C90 S20 O32'
_cell_volume   7774.13065896
_cell_formula_units_Z   2
loop_
 _symmetry_equiv_pos_site_id
 _symmetry_equiv_pos_as_xyz
  1  'x, y, z'
loop_
 _atom_site_type_symbol
 _atom_site_label
 _atom_site_symmetry_multiplicity
 _atom_site_fract_x
 _atom_site_fract_y
 _atom_site_fract_z
 _atom_site_occupancy
 _atom_site_pbe_bader_charge
 _atom_site_pbe_bader_spin_density
 _atom_site_pbe_cm5_charge
 _atom_site_pbe_ddec_charge
 _atom_site_pbe_ddec_spin_density
 _atom_site_pbe_ddec_sum_bond_order
 _atom_site_pbe_magmom
Hf  Hf0  1  0.98677402  0.08163692  0.95493193  1  2.614487  0  1.475952  2.119515  0  3.331304  0
Hf  Hf1  1  0.04157245  0.88494745  0.03840743  1  2.615089  0  1.469208  2.121075  0  3.316238  0
Hf  Hf2  1  0.84163973  0.92905370  0.95240688  1  2.626313  0  1.443873  2.174117  0  3.354455  0
Hf  Hf3  1  0.18509115  0.03721331  0.03928078  1  2.617316  0  1.454216  2.141374  0  3.332605  0
Hf  Hf4  1  0.87550364  0.02950990  0.04110316  1  2.615125  0  1.435432  2.16247  0  3.298449  0
Hf  Hf5  1  0.15174048  0.93696655  0.95266281  1  2.600564  0  1.441615  2.138322  0  3.32125  0
H  H6  1  0.01702092  0.13928601  0.03235960  1  0.605737  0  0.338488  0.419844  0  0.851802  0
H  H7  1  0.79049466  0.90156761  0.03143114  1  0.604991  0  0.327546  0.403516  0  0.879521  0
H  H8  1  0.27986748  0.91326188  0.03028877  1  0.618314  0  0.344272  0.433678  0  0.827548  0
H  H9  1  0.96776056  0.97882678  0.89370274  1  0.617775  0  0.333387  0.413865  0  0.862974  0
H  H10  1  0.63979477  0.99468305  0.04151207  1  0.612732  0  0.320519  0.398006  0  0.888171  0
H  H11  1  0.80374443  0.84631936  0.88558051  1  0.600353  0  0.30599  0.396049  0  0.901815  0
H  H12  1  0.10982429  0.82461602  0.90497743  1  0.595147  0  0.323731  0.404629  0  0.883851  0
H  H13  1  0.92706107  0.07606786  0.11823750  1  0.572385  0  0.305565  0.383352  0  0.917933  0
H  H14  1  0.18725101  0.14149387  0.09469253  1  0.620999  0  0.3276  0.405798  0  0.875608  0
H  H15  1  0.39983359  0.07210916  0.02642531  1  0.60806  0  0.302473  0.39401  0  0.908551  0
H  H16  1  0.36412347  0.98901096  0.99227580  1  0.646881  0  0.288555  0.404083  0  0.935901  0
H  H17  1  0.79733285  0.99453760  0.11385534  1  0.590937  0  0.298049  0.382935  0  0.920489  0
H  H18  1  0.89023400  0.91555835  0.09526057  1  0.652212  0  0.285541  0.40325  0  0.938301  0
H  H19  1  0.04138135  0.09813645  0.87568532  1  0.611657  0  0.331641  0.40538  0  0.866925  0
H  H20  1  0.18854561  0.96104580  0.87686531  1  0.611986  0  0.299094  0.387205  0  0.915573  0
H  H21  1  0.06259494  0.09658496  0.09518855  1  0.646  0  0.281928  0.404543  0  0.941119  0
H  H22  1  0.90008456  0.83577756  0.09387485  1  0.616326  0  0.327891  0.402568  0  0.877083  0
H  H23  1  0.62224384  0.89039093  0.96396457  1  0.593749  0  0.295644  0.384126  0  0.925567  0
H  H24  1  0.66044253  0.98217302  0.99562595  1  0.643915  0  0.291893  0.407725  0  0.925967  0
H  H25  1  0.36738861  0.98090285  0.94369918  1  0.629357  0  0.327296  0.418632  0  0.863306  0
H  H26  1  0.98700115  0.86637372  0.89690569  1  0.634381  0  0.285194  0.409998  0  0.930734  0
H  H27  1  0.14328114  0.04953725  0.89895797  1  0.651302  0  0.286719  0.404084  0  0.935361  0
H  H28  1  0.30139741  0.48687312  0.99736341  1  0.067374  0  0.105074  0.120071  0  0.997923  0
H  H29  1  0.73173158  0.47866803  0.99497015  1  0.059855  0  0.108314  0.12175  0  0.985082  0
H  H30  1  0.74471621  0.09340598  0.71394806  1  0.091344  0  0.106345  0.119069  0  0.991605  0
H  H31  1  0.49322475  0.08745583  0.60620643  1  0.092702  0  0.106097  0.116495  0  0.993483  0
H  H32  1  0.37355787  0.08048266  0.72184099  1  0.060284  0  0.106389  0.119542  0  0.985124  0
H  H33  1  0.56823881  0.91572209  0.28370535  1  0.063938  0  0.106351  0.117056  0  0.992674  0
H  H34  1  0.43959526  0.94304976  0.39675226  1  0.061176  0  0.107253  0.117956  0  0.988268  0
H  H35  1  0.19438699  0.91319630  0.28896389  1  0.101364  0  0.100655  0.109669  0  1.020894  0
H  H36  1  0.75422490  0.03722996  0.49259118  1  0.099894  0  0.106645  0.120421  0  0.989603  0
H  H37  1  0.18273264  0.99615028  0.50806976  1  0.120596  0  0.107842  0.121654  0  0.986179  0
H  H38  1  0.22092059  0.02782063  0.31188613  1  0.049095  0  0.117635  0.125921  0  1.052225  0
H  H39  1  0.08254571  0.88339879  0.49682984  1  0.033098  0  0.111376  0.110404  0  1.084958  0
H  H40  1  0.26820420  0.85277527  0.40649548  1  0.061313  0  0.104117  0.118853  0  0.984541  0
H  H41  1  0.02241113  0.05207692  0.39856099  1  0.083805  0  0.095145  0.104941  0  1.025405  0
H  H42  1  0.58130924  0.81726151  0.35387002  1  0.033421  0  0.118022  0.123232  0  1.047547  0
H  H43  1  0.87561567  0.11281721  0.43618589  1  0.016556  0  0.118028  0.12176  0  1.045181  0
H  H44  1  0.61184157  0.04785596  0.35375269  1  0.073335  0  0.105342  0.121729  0  0.979911  0
H  H45  1  0.84244108  0.88189885  0.43762393  1  0.074556  0  0.101751  0.117044  0  0.991315  0
H  H46  1  0.72177988  0.98524525  0.68782565  1  0.033881  0  0.106661  0.102825  0  1.119075  0
H  H47  1  0.85404914  0.15282818  0.50776948  1  0.030374  0  0.113926  0.114981  0  1.066581  0
H  H48  1  0.66033060  0.17078366  0.59727505  1  0.076249  0  0.104132  0.118936  0  0.986137  0
H  H49  1  0.91992237  0.97766372  0.60101191  1  0.087562  0  0.090642  0.098396  0  1.051226  0
H  H50  1  0.37033900  0.20143971  0.65184811  1  0.033342  0  0.120423  0.127722  0  1.037905  0
H  H51  1  0.04560517  0.91906943  0.56300912  1  0.030534  0  0.119784  0.12385  0  1.040215  0
H  H52  1  0.30748638  0.97237786  0.64932822  1  0.08211  0  0.10355  0.118575  0  0.984628  0
H  H53  1  0.11013616  0.14829088  0.56451502  1  0.076814  0  0.103378  0.119141  0  0.982758  0
H  H54  1  0.20834352  0.17846367  0.91708425  1  0.113296  0  0.122972  0.149983  0  1.081763  0
H  H55  1  0.39783377  0.43674844  0.06449603  1  0.043604  0  0.110659  0.111894  0  1.091004  0
H  H56  1  0.25490570  0.25779671  0.05525380  1  0.082128  0  0.101783  0.110605  0  0.995238  0
H  H57  1  0.39476681  0.34373491  0.93318145  1  0.062352  0  0.102438  0.117215  0  0.992698  0
H  H58  1  0.63570740  0.55474374  0.07496760  1  0.005865  0  0.121145  0.126378  0  1.020352  0
H  H59  1  0.83905907  0.75936391  0.92331891  1  0.10455  0  0.125126  0.138557  0  1.092171  0
H  H60  1  0.68414145  0.58887387  0.93720879  1  0.06851  0  0.104206  0.119086  0  0.982093  0
H  H61  1  0.77230488  0.72706814  0.05951143  1  0.090826  0  0.102398  0.109284  0  1.000538  0
H  H62  1  0.34298047  0.81739361  0.93569360  1  0.139455  0  0.130098  0.148824  0  1.0948  0
H  H63  1  0.40132269  0.55506068  0.07681932  1  0.034201  0  0.107174  0.1068  0  1.064731  0
H  H64  1  0.20598068  0.70024651  0.04369727  1  0.122597  0  0.111183  0.129629  0  0.991545  0
H  H65  1  0.47445815  0.64069452  0.94718463  1  0.084415  0  0.101798  0.117141  0  1.006751  0
H  H66  1  0.73949174  0.16230646  0.06798289  1  0.140281  0  0.128826  0.149647  0  1.10046  0
H  H67  1  0.62532213  0.42924821  0.92625492  1  0.03063  0  0.115532  0.118161  0  1.057429  0
H  H68  1  0.78948325  0.25614390  0.94094275  1  0.102982  0  0.10296  0.120184  0  1.013363  0
H  H69  1  0.59413868  0.33622761  0.05355301  1  0.077722  0  0.092085  0.101549  0  1.035962  0
H  H70  1  0.26221162  0.80132543  0.27369232  1  0.070899  0  0.119924  0.12774  0  1.032652  0
H  H71  1  0.40781930  0.01598894  0.11558883  1  0.154286  0  0.131386  0.158716  0  1.086962  0
H  H72  1  0.47759554  0.98407910  0.23140886  1  0.052997  0  0.101189  0.113557  0  0.998142  0
H  H73  1  0.17399951  0.84003600  0.15715891  1  0.118136  0  0.109548  0.128002  0  0.990613  0
H  H74  1  0.78224797  0.17602864  0.88937422  1  0.121803  0  0.128391  0.149068  0  1.075672  0
H  H75  1  0.51144257  0.97059860  0.72346034  1  0.03129  0  0.116806  0.121711  0  1.055576  0
H  H76  1  0.68114870  0.96198847  0.83566373  1  0.104207  0  0.108107  0.124058  0  0.996875  0
H  H77  1  0.61469115  0.18362743  0.77839750  1  0.07059  0  0.10504  0.122482  0  0.979737  0
C  C78  1  0.80706417  0.16974303  0.99727525  1  1.521806  0  0.241519  0.635791  0  4.061653  0
C  C79  1  0.19976723  0.17717466  0.99457250  1  1.547137  0  0.240761  0.643213  0  4.088487  0
C  C80  1  0.77124552  0.04900178  0.88683905  1  1.55078  0  0.237307  0.632466  0  4.091767  0
C  C81  1  0.84636258  0.78397171  0.99747760  1  1.583878  0  0.237668  0.639353  0  4.097337  0
C  C82  1  0.21637536  0.79466951  0.99315344  1  1.517175  0  0.241382  0.635166  0  4.072598  0
C  C83  1  0.24351791  0.92700188  0.10951767  1  1.558631  0  0.241886  0.63743  0  4.076908  0
C  C84  1  0.45093805  0.42419299  0.99578163  1  -0.036233  0  -0.005959  0.034952  0  3.984402  0
C  C85  1  0.57325209  0.42159553  0.99468226  1  0.046183  0  -0.005577  0.036955  0  3.991931  0
C  C86  1  0.63680148  0.48042448  0.99520546  1  -0.092395  0  -0.089583  -0.181902  0  3.973612  0
C  C87  1  0.58264137  0.54143455  0.99735170  1  -0.030552  0  -0.010017  0.023866  0  4.000838  0
C  C88  1  0.45973768  0.54432665  0.99825079  1  -0.03751  0  -0.008359  0.027725  0  3.979291  0
C  C89  1  0.39632735  0.48525937  0.99733669  1  0.033934  0  -0.087734  -0.172876  0  3.963206  0
C  C90  1  0.56233681  0.08843057  0.72241495  1  -0.044681  0  -0.010826  0.079903  0  4.037829  0
C  C91  1  0.65402241  0.09215714  0.69901685  1  -0.11988  0  -0.089572  -0.185601  0  3.937919  0
C  C92  1  0.63046336  0.09127464  0.65696590  1  0.043575  0  -0.006165  0.095769  0  4.03169  0
C  C93  1  0.51307593  0.08973697  0.63890648  1  0.002877  0  -0.087675  -0.184789  0  3.934744  0
C  C94  1  0.42010003  0.08609535  0.66169818  1  -0.084561  0  -0.010092  0.082692  0  4.052251  0
C  C95  1  0.44488533  0.08515959  0.70373338  1  -0.034074  0  -0.091143  -0.194529  0  3.942995  0
C  C96  1  0.37857731  0.91151369  0.28148603  1  -0.017487  0  -0.009682  0.083331  0  4.017025  0
C  C97  1  0.49494086  0.91826592  0.30108258  1  -0.033336  0  -0.088744  -0.18728  0  3.930207  0
C  C98  1  0.51699338  0.92985538  0.34253836  1  -0.080996  0  -0.01063  0.082191  0  4.055225  0
C  C99  1  0.42230031  0.93298601  0.36452689  1  -0.032547  0  -0.084981  -0.17882  0  3.931919  0
C  C100  1  0.30589901  0.92739144  0.34574535  1  0.005316  0  -0.009031  0.087998  0  4.03868  0
C  C101  1  0.28470642  0.91654919  0.30413264  1  -0.08276  0  -0.092632  -0.194492  0  3.952796  0
C  C102  1  0.91716693  0.04224779  0.53314178  1  0.030541  0  -0.010273  0.029988  0  4.001795  0
C  C103  1  0.03890673  0.02970428  0.53748350  1  -0.055576  0  -0.009667  0.027823  0  4.008444  0
C  C104  1  0.08798374  0.00448901  0.50471064  1  -0.130808  0  -0.090314  -0.180614  0  3.969855  0
C  C105  1  0.01960627  0.99075610  0.46760050  1  0.007668  0  -0.009366  0.031161  0  4.001851  0
C  C106  1  0.89784861  0.00299980  0.46329981  1  0.007547  0  -0.009491  0.028117  0  4.006835  0
C  C107  1  0.84900710  0.02903308  0.49590992  1  -0.11786  0  -0.08802  -0.177337  0  3.963777  0
C  C108  1  0.21339696  0.93774271  0.37178161  1  0.036609  0  -0.0146  0.021289  0  3.99288  0
C  C109  1  0.21207153  0.89607322  0.40458302  1  0.01034  0  -0.096555  -0.173403  0  3.972824  0
C  C110  1  0.14440571  0.90905802  0.43525894  1  -0.165584  0  -0.015845  0.051014  0  4.034634  0
C  C111  1  0.07799765  0.96736824  0.43357717  1  0.026439  0  -0.014941  0.025728  0  4.007812  0
C  C112  1  0.07418359  0.00711631  0.39971445  1  -0.014327  0  -0.095459  -0.163103  0  3.95155  0
C  C113  1  0.13978218  0.99342801  0.36853558  1  -0.174791  0  -0.012656  0.057316  0  4.017018  0
C  C114  1  0.63371139  0.94529679  0.36613792  1  0.12934  0  -0.014749  0.016563  0  4.004858  0
C  C115  1  0.66466380  0.01147936  0.37176019  1  -0.044236  0  -0.096099  -0.172147  0  3.968619  0
C  C116  1  0.75589424  0.03212664  0.40142549  1  -0.177313  0  -0.01565  0.047913  0  4.037299  0
C  C117  1  0.81687673  0.98466283  0.42643543  1  0.035495  0  -0.014755  0.02558  0  4.019385  0
C  C118  1  0.79249020  0.91817080  0.41857706  1  -0.035213  0  -0.093717  -0.163913  0  3.944825  0
C  C119  1  0.70164217  0.89747396  0.38875928  1  -0.170887  0  -0.013667  0.053516  0  4.038008  0
C  C120  1  0.72167765  0.08510368  0.63020295  1  0.003081  0  -0.01365  0.023302  0  3.99015  0
C  C121  1  0.71917376  0.12868979  0.59811673  1  -0.005782  0  -0.097962  -0.176386  0  3.970284  0
C  C122  1  0.78686746  0.11937260  0.56701838  1  -0.157936  0  -0.013525  0.054319  0  4.032785  0
C  C123  1  0.85798024  0.06294320  0.56758048  1  0.038284  0  -0.015962  0.025581  0  4.006715  0
C  C124  1  0.86538341  0.02144640  0.60073326  1  -0.043101  0  -0.097631  -0.163608  0  3.952646  0
C  C125  1  0.79954876  0.03119430  0.63229943  1  -0.158207  0  -0.011554  0.061984  0  3.996673  0
C  C126  1  0.30252685  0.07562017  0.63750488  1  0.023159  0  -0.014628  0.017478  0  4.005337  0
C  C127  1  0.26190533  0.01113435  0.63116665  1  0.009691  0  -0.096084  -0.169697  0  3.967259  0
C  C128  1  0.17121169  0.99464611  0.60024653  1  -0.183171  0  -0.014671  0.047926  0  4.032056  0
C  C129  1  0.11949838  0.04470036  0.57506055  1  0.06441  0  -0.013884  0.025075  0  4.020641  0
C  C130  1  0.15302877  0.10985789  0.58366145  1  -0.028348  0  -0.09343  -0.16433  0  3.946416  0
C  C131  1  0.24416221  0.12632792  0.61444386  1  -0.170739  0  -0.012527  0.053302  0  4.039794  0
C  C132  1  0.26333148  0.24082966  0.99270909  1  0.036622  0  -0.020224  -0.086251  0  3.965193  0
C  C133  1  0.28434090  0.27768174  0.02830471  1  -0.008397  0  -0.092561  -0.136367  0  3.97799  0
C  C134  1  0.34151829  0.33848983  0.03026847  1  -0.158115  0  -0.014619  0.04715  0  4.021057  0
C  C135  1  0.38186392  0.36232636  0.99526848  1  0.015902  0  -0.00888  0.033868  0  4.00262  0
C  C136  1  0.36145508  0.32517717  0.95983033  1  0.033206  0  -0.092051  -0.168203  0  3.936667  0
C  C137  1  0.30171098  0.26473542  0.95735100  1  -0.144153  0  -0.004412  0.095138  0  4.010757  0
C  C138  1  0.65697779  0.60141841  0.99865345  1  0.002562  0  -0.007255  0.036894  0  4.014179  0
C  C139  1  0.70277785  0.61996198  0.96401238  1  -0.00036  0  -0.094316  -0.179157  0  3.952623  0
C  C140  1  0.76534218  0.67871731  0.96182234  1  -0.12787  0  -0.003158  0.09744  0  4.013021  0
C  C141  1  0.78746507  0.71842824  0.99679867  1  -0.008609  0  -0.02032  -0.0858  0  3.957533  0
C  C142  1  0.74931226  0.69741394  0.03233781  1  -0.007047  0  -0.089714  -0.13255  0  3.970742  0
C  C143  1  0.68290249  0.64012249  0.03381518  1  -0.146178  0  -0.012926  0.047798  0  4.015017  0
C  C144  1  0.28239332  0.73196135  0.99263352  1  -0.01116  0  -0.028117  -0.112441  0  3.954442  0
C  C145  1  0.26458222  0.68607189  0.02229866  1  0.014242  0  -0.083034  -0.117066  0  3.946325  0
C  C146  1  0.32039416  0.62549161  0.02590395  1  -0.132325  0  -0.014295  0.041546  0  4.006829  0
C  C147  1  0.39733745  0.60808400  0.99797639  1  -0.028818  0  -0.002905  0.048233  0  3.980087  0
C  C148  1  0.41553285  0.65369197  0.96872576  1  0.011959  0  -0.095022  -0.17378  0  3.938091  0
C  C149  1  0.36259952  0.71580977  0.96554374  1  -0.147104  0  -0.001332  0.102133  0  3.999488  0
C  C150  1  0.74561440  0.23368331  0.99890712  1  0.008313  0  -0.024267  -0.103961  0  3.951294  0
C  C151  1  0.74497790  0.27435550  0.96533415  1  0.031271  0  -0.089245  -0.12521  0  3.955221  0
C  C152  1  0.68960887  0.33516758  0.96216706  1  -0.209752  0  -0.015332  0.040967  0  4.026457  0
C  C153  1  0.63457393  0.35769764  0.99480398  1  0.079712  0  -0.008125  0.038173  0  4.001734  0
C  C154  1  0.63647044  0.31809088  0.02847635  1  -0.061958  0  -0.095871  -0.170586  0  3.945005  0
C  C155  1  0.68929206  0.25598836  0.03158133  1  -0.102668  0  -0.001176  0.105493  0  3.990794  0
C  C156  1  0.35376314  0.90697692  0.23702772  1  0.011065  0  -0.008312  0.035257  0  3.982857  0
C  C157  1  0.41215615  0.95116387  0.21494541  1  0.028377  0  -0.097282  -0.180193  0  3.955605  0
C  C158  1  0.38632595  0.95808615  0.17314873  1  -0.12753  0  -0.00402  0.101706  0  4.007244  0
C  C159  1  0.29451071  0.91853692  0.15246704  1  -0.011475  0  -0.022267  -0.09613  0  3.944701  0
C  C160  1  0.24138207  0.87112032  0.17412332  1  -0.038069  0  -0.086245  -0.125977  0  3.948564  0
C  C161  1  0.26956668  0.86378352  0.21563972  1  -0.134628  0  -0.015355  0.041775  0  4.020814  0
C  C162  1  0.70380254  0.06490873  0.84674652  1  -0.001126  0  -0.025367  -0.099999  0  3.95925  0
C  C163  1  0.66575880  0.01041960  0.82246860  1  -0.034688  0  -0.089543  -0.131987  0  3.963642  0
C  C164  1  0.61441316  0.01676444  0.78255158  1  -0.13632  0  -0.017119  0.041015  0  4.027831  0
C  C165  1  0.59771235  0.08042919  0.76636434  1  -0.010685  0  -0.00938  0.033745  0  4.000431  0
C  C166  1  0.62892188  0.13473799  0.79113815  1  0.064889  0  -0.095775  -0.180155  0  3.953777  0
C  C167  1  0.68287759  0.12883709  0.83121057  1  -0.149183  0  -0.005334  0.094161  0  4.020113  0
S  S168  1  0.14807487  0.84978448  0.47336108  1  0.026398  0  -0.1009  -0.155768  0  2.405467  0
S  S169  1  0.13052932  0.05124586  0.32944892  1  0.01553  0  -0.103713  -0.156481  0  2.371679  0
S  S170  1  0.78584985  0.11709411  0.40570651  1  0.05902  0  -0.090947  -0.144453  0  2.394414  0
S  S171  1  0.67299065  0.81256203  0.38366838  1  0.037376  0  -0.100789  -0.15179  0  2.368836  0
S  S172  1  0.77603457  0.17989227  0.52947479  1  0.035858  0  -0.099422  -0.153584  0  2.400145  0
S  S173  1  0.81648609  0.97035097  0.66975184  1  0.045773  0  -0.110181  -0.164914  0  2.422772  0
S  S174  1  0.13116271  0.91102248  0.59452030  1  0.040052  0  -0.084973  -0.136551  0  2.399863  0
S  S175  1  0.28468361  0.20972808  0.62039907  1  0.051492  0  -0.097853  -0.150688  0  2.370494  0
S  S176  1  0.36756047  0.37764605  0.07780596  1  0.014175  0  -0.09983  -0.153939  0  2.412774  0
S  S177  1  0.29212135  0.22281995  0.91102672  1  0.006406  0  -0.110287  -0.176566  0  2.376025  0
S  S178  1  0.81594718  0.69487152  0.91577115  1  -0.004134  0  -0.110955  -0.17797  0  2.366404  0
S  S179  1  0.63374682  0.62055867  0.07983939  1  0.067988  0  -0.082606  -0.136518  0  2.427077  0
S  S180  1  0.28908857  0.57452277  0.06559699  1  0.018842  0  -0.096517  -0.154588  0  2.442209  0
S  S181  1  0.41011920  0.76532702  0.92830418  1  -0.012185  0  -0.0988  -0.166433  0  2.384782  0
S  S182  1  0.68896809  0.37750779  0.91650697  1  0.033081  0  -0.098463  -0.149416  0  2.407114  0
S  S183  1  0.67872939  0.21605107  0.07702146  1  -0.012415  0  -0.113483  -0.180308  0  2.382724  0
S  S184  1  0.47549213  0.01489357  0.15214659  1  -0.040314  0  -0.124535  -0.203861  0  2.374691  0
S  S185  1  0.19571225  0.79983064  0.23722838  1  0.001003  0  -0.097697  -0.154444  0  2.387538  0
S  S186  1  0.58388843  0.94371623  0.75410958  1  0.026591  0  -0.096736  -0.148917  0  2.403155  0
S  S187  1  0.71389378  0.20306130  0.85762633  1  -0.003199  0  -0.102972  -0.172525  0  2.427789  0
O  O188  1  0.09223888  0.09236266  0.90113299  1  -1.248538  0  -0.574132  -0.769523  0  2.094933  0
O  O189  1  0.86992744  0.16111353  0.96893392  1  -1.177836  0  -0.347386  -0.587595  0  2.318735  0
O  O190  1  0.85302409  0.09000570  0.90188346  1  -1.197459  0  -0.359813  -0.618662  0  2.356029  0
O  O191  1  0.23596381  0.13972259  0.02410302  1  -1.196263  0  -0.341299  -0.616712  0  2.322009  0
O  O192  1  0.75035355  0.99495587  0.90238055  1  -1.16666  0  -0.311943  -0.547503  0  2.328679  0
O  O193  1  0.11250854  0.16523758  0.96745696  1  -1.177749  0  -0.334425  -0.569401  0  2.31579  0
O  O194  1  0.79617219  0.12677403  0.02405351  1  -1.174326  0  -0.328235  -0.555194  0  2.383595  0
O  O195  1  0.87415678  0.02150243  0.97862719  1  -1.213026  0  -0.752471  -1.053782  0  2.151692  0
O  O196  1  0.01783355  0.09463723  0.02217784  1  -1.238285  0  -0.6612  -0.980039  0  2.38035  0
O  O197  1  0.98437140  0.98165296  0.92280095  1  -1.259991  0  -0.654422  -0.963695  0  2.318579  0
O  O198  1  0.13343320  0.02844575  0.97747879  1  -1.212327  0  -0.753801  -1.046881  0  2.137551  0
O  O199  1  0.36256359  0.03010581  0.03022484  1  -1.25467  0  -0.642636  -0.903454  0  1.933936  0
O  O200  1  0.67524468  0.01441725  0.01975933  1  -1.244036  0  -0.586039  -0.770972  0  2.06566  0
O  O201  1  0.03800622  0.98275095  0.05150296  1  -1.216348  0  -0.747116  -1.045323  0  2.114108  0
O  O202  1  0.85539943  0.92365725  0.02143275  1  -1.246453  0  -0.655246  -0.970901  0  2.350141  0
O  O203  1  0.01158065  0.89921508  0.97790275  1  -1.21716  0  -0.756954  -1.076126  0  2.186663  0
O  O204  1  0.20502124  0.93247407  0.01933490  1  -1.240925  0  -0.655683  -0.96599  0  2.328007  0
O  O205  1  0.66657084  0.93027802  0.96100501  1  -1.241459  0  -0.651222  -0.908584  0  1.945705  0
O  O206  1  0.81109877  0.82206412  0.96852796  1  -1.190206  0  -0.323876  -0.587681  0  2.375706  0
O  O207  1  0.92425404  0.79777198  0.02765222  1  -1.190602  0  -0.3468  -0.599107  0  2.292261  0
O  O208  1  0.20685271  0.98540445  0.90198591  1  -1.273246  0  -0.636569  -0.91152  0  1.928021  0
O  O209  1  0.15570109  0.80419935  0.02160757  1  -1.175879  0  -0.331602  -0.567539  0  2.31834  0
O  O210  1  0.86272736  0.87591523  0.89934248  1  -1.256615  0  -0.637871  -0.910027  0  1.987409  0
O  O211  1  0.08040332  0.86882024  0.89943515  1  -1.227964  0  -0.595625  -0.809272  0  2.049956  0
O  O212  1  0.34810095  0.95753239  0.96721234  1  -1.261547  0  -0.597813  -0.79099  0  2.064929  0
O  O213  1  0.22319422  0.83641577  0.96483022  1  -1.189385  0  -0.342007  -0.597668  0  2.38203  0
O  O214  1  0.94732837  0.87559318  0.09454470  1  -1.256388  0  -0.585032  -0.774258  0  2.056819  0
O  O215  1  0.15828269  0.09657983  0.09345428  1  -1.266288  0  -0.598847  -0.801515  0  2.0572  0
O  O216  1  0.17826982  0.88128946  0.09187247  1  -1.185965  0  -0.346366  -0.586212  0  2.293425  0
O  O217  1  0.26472422  0.98104724  0.09283576  1  -1.179776  0  -0.332527  -0.56453  0  2.404314  0
O  O218  1  0.94256698  0.09096805  0.09213623  1  -1.227584  0  -0.630506  -0.890169  0  1.996118  0
O  O219  1  0.81255863  0.97548714  0.08854151  1  -1.271574  0  -0.639468  -0.941501  0  1.966585  0
