# generated using pymatgen
data_Zn2H13C17(NO3)3
_symmetry_space_group_name_H-M   'P 1'
_cell_length_a   12.17517128
_cell_length_b   14.03242387
_cell_length_c   14.67008014
_cell_angle_alpha   105.84698393
_cell_angle_beta   89.99981457
_cell_angle_gamma   90.00019869
_symmetry_Int_Tables_number   1
_chemical_formula_structural   Zn2H13C17(NO3)3
_chemical_formula_sum   'Zn8 H52 C68 N12 O36'
_cell_volume   2411.08655696
_cell_formula_units_Z   4
loop_
 _symmetry_equiv_pos_site_id
 _symmetry_equiv_pos_as_xyz
  1  'x, y, z'
loop_
 _atom_site_type_symbol
 _atom_site_label
 _atom_site_symmetry_multiplicity
 _atom_site_fract_x
 _atom_site_fract_y
 _atom_site_fract_z
 _atom_site_occupancy
 _atom_site_pbe_bader_charge
 _atom_site_pbe_bader_spin_density
 _atom_site_pbe_cm5_charge
 _atom_site_pbe_ddec_charge
 _atom_site_pbe_ddec_spin_density
 _atom_site_pbe_ddec_sum_bond_order
 _atom_site_pbe_magmom
Zn  Zn0  1  0.75999568  0.80377564  0.92821856  1  1.359023  0  0.680723  0.901497  0  2.253449  0
Zn  Zn1  1  0.97938465  0.64766551  0.84166185  1  1.333975  0  0.692432  0.896593  0  2.292712  0
Zn  Zn2  1  0.25999498  0.69622294  0.57178153  1  1.358979  0  0.680697  0.901522  0  2.253465  0
Zn  Zn3  1  0.47938423  0.85233360  0.65833983  1  1.334046  0  0.692412  0.896597  0  2.292723  0
Zn  Zn4  1  0.24000509  0.19622404  0.07178237  1  1.359022  0  0.680714  0.901517  0  2.253464  0
Zn  Zn5  1  0.02061777  0.35233418  0.15833772  1  1.333946  0  0.692443  0.896623  0  2.292663  0
Zn  Zn6  1  0.74000579  0.30377601  0.42821853  1  1.359028  0  0.680736  0.901503  0  2.253472  0
Zn  Zn7  1  0.52061736  0.14766757  0.34166081  1  1.334075  0  0.692448  0.89663  0  2.292706  0
H  H8  1  0.98778004  0.52443486  0.06609101  1  0.157494  0  0.122099  0.098866  0  1.039857  0
H  H9  1  0.66231446  0.63622229  0.14588703  1  0.126431  0  0.119593  0.124861  0  0.966559  0
H  H10  1  0.65640610  0.52445743  0.25560970  1  0.122153  0  0.112006  0.121176  0  1.023523  0
H  H11  1  0.82387896  0.47628661  0.59795524  1  0.14062  0  0.123958  0.102102  0  1.013343  0
H  H12  1  0.53416144  0.60803281  0.74919653  1  0.110335  0  0.113681  0.114371  0  0.998483  0
H  H13  1  0.42128172  0.48762598  0.62392293  1  0.131392  0  0.111047  0.123866  0  1.028192  0
H  H14  1  0.52789629  0.74709408  0.86289898  1  0.124704  0  0.122854  0.054427  0  1.036984  0
H  H15  1  0.37575554  0.84808914  0.10825295  1  0.038843  0  0.102287  0.113593  0  0.979753  0
H  H16  1  0.30884670  0.92353757  0.04531914  1  0.089006  0  0.107931  0.129203  0  1.000975  0
H  H17  1  0.45219251  0.94128779  0.07341709  1  0.088121  0  0.111593  0.132967  0  0.991691  0
H  H18  1  0.35600876  0.71748191  0.83805189  1  0.071271  0  0.105972  0.119091  0  1.015096  0
H  H19  1  0.25562993  0.80244829  0.90293127  1  0.113232  0  0.103459  0.129139  0  1.030232  0
H  H20  1  0.29683563  0.70184619  0.94534762  1  0.021392  0  0.099503  0.115577  0  0.980796  0
H  H21  1  0.48777987  0.97556744  0.43390844  1  0.157634  0  0.122106  0.098854  0  1.039891  0
H  H22  1  0.16231416  0.86377772  0.35411679  1  0.126451  0  0.1196  0.124866  0  0.966623  0
H  H23  1  0.15640503  0.97554109  0.24439375  1  0.12218  0  0.11202  0.121219  0  1.023512  0
H  H24  1  0.32387710  0.02371196  0.90204877  1  0.140632  0  0.123926  0.102096  0  1.013364  0
H  H25  1  0.03416247  0.89196820  0.75080277  1  0.110365  0  0.11368  0.114362  0  0.998455  0
H  H26  1  0.92128228  0.01237432  0.87607514  1  0.131399  0  0.111028  0.123827  0  1.02827  0
H  H27  1  0.02789885  0.75290691  0.63710101  1  0.124833  0  0.122847  0.054425  0  1.036896  0
H  H28  1  0.87575331  0.65191213  0.39174859  1  0.03885  0  0.102284  0.113609  0  0.979741  0
H  H29  1  0.80884392  0.57646429  0.45468205  1  0.088988  0  0.107913  0.12918  0  1.000989  0
H  H30  1  0.95218894  0.55871367  0.42658225  1  0.088184  0  0.111588  0.132987  0  0.991709  0
H  H31  1  0.85601041  0.78251690  0.66195142  1  0.071224  0  0.105981  0.119086  0  1.015071  0
H  H32  1  0.75563149  0.69755102  0.59707175  1  0.113196  0  0.10346  0.129104  0  1.03022  0
H  H33  1  0.79683530  0.79815396  0.55465620  1  0.021498  0  0.09949  0.115538  0  0.980845  0
H  H34  1  0.01221990  0.47556410  0.93390768  1  0.157419  0  0.12211  0.09894  0  1.039763  0
H  H35  1  0.33768630  0.36377888  0.85411361  1  0.126475  0  0.11962  0.124894  0  0.966621  0
H  H36  1  0.34359467  0.47554153  0.74438900  1  0.122138  0  0.112006  0.1212  0  1.023445  0
H  H37  1  0.17612099  0.52371307  0.40204501  1  0.140623  0  0.12395  0.102088  0  1.013334  0
H  H38  1  0.46584015  0.39196836  0.25080411  1  0.110329  0  0.1137  0.114373  0  0.99852  0
H  H39  1  0.57871823  0.51237445  0.37607684  1  0.131384  0  0.111044  0.123868  0  1.028195  0
H  H40  1  0.47210202  0.25290636  0.13710011  1  0.124852  0  0.122852  0.054454  0  1.036915  0
H  H41  1  0.62424605  0.15191129  0.89174682  1  0.038826  0  0.102281  0.113597  0  0.979747  0
H  H42  1  0.69115325  0.07646287  0.95467995  1  0.088998  0  0.107936  0.129189  0  1.001009  0
H  H43  1  0.54780826  0.05871338  0.92658219  1  0.088203  0  0.111593  0.132967  0  0.991673  0
H  H44  1  0.64398955  0.28251630  0.16194866  1  0.071258  0  0.106015  0.119148  0  1.015021  0
H  H45  1  0.74436920  0.19755066  0.09706878  1  0.113219  0  0.103448  0.129104  0  1.030252  0
H  H46  1  0.70316349  0.29815350  0.05465400  1  0.021398  0  0.099497  0.11556  0  0.980828  0
H  H47  1  0.51221350  0.02443225  0.56609249  1  0.157404  0  0.122087  0.098834  0  1.039806  0
H  H48  1  0.83767922  0.13622271  0.64588366  1  0.126521  0  0.119624  0.124879  0  0.966605  0
H  H49  1  0.84359246  0.02446156  0.75560661  1  0.122207  0  0.112051  0.121258  0  1.023387  0
H  H50  1  0.67612203  0.97629069  0.09795295  1  0.140646  0  0.123932  0.102052  0  1.013357  0
H  H51  1  0.96583912  0.10803149  0.24919749  1  0.110331  0  0.113674  0.114355  0  0.99851  0
H  H52  1  0.07871931  0.98762611  0.12392463  1  0.131387  0  0.111029  0.123841  0  1.028224  0
H  H53  1  0.97210274  0.24709277  0.36289992  1  0.124844  0  0.122837  0.054418  0  1.036941  0
H  H54  1  0.12424581  0.34808903  0.60825274  1  0.038839  0  0.102286  0.113607  0  0.979745  0
H  H55  1  0.19115356  0.42353688  0.54531859  1  0.088991  0  0.107922  0.129189  0  1.000986  0
H  H56  1  0.04780854  0.44128750  0.57341772  1  0.088138  0  0.111585  0.132953  0  0.991681  0
H  H57  1  0.14399036  0.21748353  0.33804971  1  0.07124  0  0.105993  0.119118  0  1.01504  0
H  H58  1  0.24436846  0.30245089  0.40293045  1  0.113212  0  0.103452  0.129091  0  1.030233  0
H  H59  1  0.20316547  0.20184721  0.44534513  1  0.021407  0  0.099478  0.115522  0  0.980858  0
C  C60  1  0.91141308  0.52567290  0.10447344  1  0.503683  0  0.062324  0.096455  0  3.892449  0
C  C61  1  0.82386373  0.58657033  0.09470633  1  0.010496  0  -0.00447  -0.062083  0  3.926921  0
C  C62  1  0.73085385  0.58777490  0.15082497  1  -0.049677  0  -0.052559  -0.038401  0  3.913836  0
C  C63  1  0.72732101  0.52598457  0.21102672  1  0.003325  0  -0.072616  -0.129964  0  3.939029  0
C  C64  1  0.81577302  0.46313822  0.21227171  1  0.448903  0  0.116166  0.098988  0  3.96508  0
C  C65  1  0.83197147  0.64322518  0.02080059  1  1.612113  0  0.212233  0.594913  0  4.207306  0
C  C66  1  0.81901050  0.38777493  0.26923693  1  1.614707  0  0.215134  0.544379  0  4.218929  0
C  C67  1  0.73514755  0.48105273  0.60694094  1  0.530677  0  0.065596  0.098877  0  3.874399  0
C  C68  1  0.68752767  0.54889471  0.68491026  1  -0.050062  0  -0.004083  -0.071458  0  3.931892  0
C  C69  1  0.57296911  0.55296877  0.69126360  1  0.041008  0  -0.053075  -0.019009  0  3.901077  0
C  C70  1  0.51071372  0.48665035  0.62296000  1  -0.099937  0  -0.076729  -0.141042  0  3.946753  0
C  C71  1  0.56482468  0.41882333  0.54943974  1  0.55639  0  0.117926  0.111572  0  3.948646  0
C  C72  1  0.75974676  0.61483706  0.75877042  1  1.613775  0  0.223229  0.599728  0  4.184899  0
C  C73  1  0.50240582  0.33919126  0.47819909  1  1.604572  0  0.20624  0.539258  0  4.227432  0
C  C74  1  0.51742988  0.80193774  0.93188008  1  1.375608  0  0.177336  0.308549  0  4.067448  0
C  C75  1  0.38634942  0.88652757  0.05264615  1  0.248475  0  -0.130693  -0.265505  0  3.881976  0
C  C76  1  0.32606825  0.75601051  0.90894724  1  0.281827  0  -0.137916  -0.283852  0  3.911138  0
C  C77  1  0.41141305  0.97432624  0.39552539  1  0.503753  0  0.062272  0.096428  0  3.892538  0
C  C78  1  0.32386507  0.91342786  0.40529385  1  0.010388  0  -0.004433  -0.06209  0  3.926898  0
C  C79  1  0.23085293  0.91222306  0.34917540  1  -0.049692  0  -0.052561  -0.038389  0  3.913968  0
C  C80  1  0.22732139  0.97401560  0.28897492  1  0.003436  0  -0.072599  -0.130012  0  3.939233  0
C  C81  1  0.31577002  0.03686126  0.28773088  1  0.448824  0  0.1161  0.098976  0  3.965029  0
C  C82  1  0.33197147  0.85677450  0.47920132  1  1.612429  0  0.212256  0.594998  0  4.207266  0
C  C83  1  0.31901048  0.11222679  0.23076556  1  1.614719  0  0.215248  0.544596  0  4.218488  0
C  C84  1  0.23514735  0.01894637  0.89306140  1  0.530678  0  0.065632  0.098865  0  3.874334  0
C  C85  1  0.18752786  0.95110296  0.81509115  1  -0.049983  0  -0.004096  -0.071449  0  3.93197  0
C  C86  1  0.07297096  0.94703307  0.80873717  1  0.041036  0  -0.05308  -0.018995  0  3.901109  0
C  C87  1  0.01071274  0.01335119  0.87703882  1  -0.099962  0  -0.076726  -0.141021  0  3.946777  0
C  C88  1  0.06482368  0.08117760  0.95056082  1  0.556415  0  0.117909  0.11153  0  3.948686  0
C  C89  1  0.25975027  0.88516077  0.74123288  1  1.613686  0  0.223143  0.59961  0  4.185066  0
C  C90  1  0.00240435  0.16081044  0.02180220  1  1.604562  0  0.206199  0.539202  0  4.227384  0
C  C91  1  0.01743002  0.69806101  0.56811867  1  1.375505  0  0.177457  0.308746  0  4.067389  0
C  C92  1  0.88634764  0.61347225  0.44735429  1  0.248442  0  -0.130654  -0.265509  0  3.882034  0
C  C93  1  0.82606839  0.74398897  0.59105496  1  0.281758  0  -0.137842  -0.28371  0  3.911187  0
C  C94  1  0.08859262  0.47432606  0.89552253  1  0.503849  0  0.062234  0.096196  0  3.892606  0
C  C95  1  0.17613375  0.41343011  0.90529276  1  0.010617  0  -0.004411  -0.061876  0  3.926848  0
C  C96  1  0.26915021  0.41222183  0.84917109  1  -0.049748  0  -0.05258  -0.03847  0  3.913532  0
C  C97  1  0.27267648  0.47401513  0.78897012  1  0.003777  0  -0.072642  -0.13002  0  3.938913  0
C  C98  1  0.18422939  0.53686073  0.78772835  1  0.448504  0  0.116174  0.098996  0  3.964983  0
C  C99  1  0.16803012  0.35677526  0.97919781  1  1.612013  0  0.212228  0.594784  0  4.207548  0
C  C100  1  0.18098945  0.61222624  0.73076303  1  1.614683  0  0.215226  0.544508  0  4.2187  0
C  C101  1  0.26485240  0.51894548  0.39305824  1  0.530664  0  0.065619  0.098916  0  3.874378  0
C  C102  1  0.31247228  0.45110572  0.31509019  1  -0.050127  0  -0.0041  -0.071478  0  3.931907  0
C  C103  1  0.42703084  0.44702944  0.30873422  1  0.04108  0  -0.053087  -0.018993  0  3.900997  0
C  C104  1  0.48928704  0.51335156  0.37704152  1  -0.099918  0  -0.07673  -0.141117  0  3.946782  0
C  C105  1  0.43517609  0.58117710  0.45056071  1  0.556352  0  0.117939  0.111675  0  3.948664  0
C  C106  1  0.24025318  0.38516263  0.24122983  1  1.613566  0  0.22323  0.599754  0  4.184811  0
C  C107  1  0.49759741  0.66080917  0.52180000  1  1.604576  0  0.206193  0.539216  0  4.227504  0
C  C108  1  0.48257171  0.19806122  0.06811794  1  1.375501  0  0.177381  0.308585  0  4.067389  0
C  C109  1  0.61365217  0.11347212  0.94735274  1  0.2484  0  -0.130678  -0.265482  0  3.881952  0
C  C110  1  0.67393169  0.24398992  0.09105253  1  0.281841  0  -0.137904  -0.283833  0  3.911109  0
C  C111  1  0.58858607  0.02567419  0.60447574  1  0.503692  0  0.06233  0.096536  0  3.892521  0
C  C112  1  0.67612503  0.08656887  0.59470494  1  0.01046  0  -0.004525  -0.062273  0  3.926912  0
C  C113  1  0.76914455  0.08777737  0.65082505  1  -0.049743  0  -0.052505  -0.038307  0  3.913707  0
C  C114  1  0.77266952  0.02598187  0.71102270  1  0.003483  0  -0.072618  -0.129928  0  3.939513  0
C  C115  1  0.68423075  0.96313991  0.71227044  1  0.448816  0  0.116072  0.098738  0  3.965433  0
C  C116  1  0.66802848  0.14322667  0.52079932  1  1.612384  0  0.212231  0.594906  0  4.207278  0
C  C117  1  0.68098864  0.88777290  0.76923469  1  1.614655  0  0.215286  0.544686  0  4.218526  0
C  C118  1  0.76485424  0.98105554  0.10693876  1  0.530696  0  0.065647  0.098911  0  3.874403  0
C  C119  1  0.81247291  0.04889748  0.18490862  1  -0.050099  0  -0.004052  -0.071362  0  3.931915  0
C  C120  1  0.92703146  0.05296884  0.19126366  1  0.041065  0  -0.053066  -0.01901  0  3.901119  0
C  C121  1  0.98928802  0.98664924  0.12296095  1  -0.099956  0  -0.076703  -0.140994  0  3.94675  0
C  C122  1  0.93517791  0.91882283  0.04943963  1  0.556368  0  0.117872  0.111526  0  3.948679  0
C  C123  1  0.74025297  0.11484113  0.25876932  1  1.613796  0  0.223199  0.599695  0  4.184821  0
C  C124  1  0.99758902  0.83918851  0.97819717  1  1.604562  0  0.206286  0.539317  0  4.227226  0
C  C125  1  0.98256992  0.30193646  0.43188168  1  1.375472  0  0.177421  0.308622  0  4.06732  0
C  C126  1  0.11365149  0.38652744  0.55264597  1  0.248475  0  -0.130674  -0.2655  0  3.882003  0
C  C127  1  0.17393238  0.25601072  0.40894597  1  0.281826  0  -0.137853  -0.283733  0  3.911124  0
N  N128  1  0.90640183  0.46424860  0.15975673  1  -1.281522  0  -0.31759  -0.252563  0  3.561002  0
N  N129  1  0.67493156  0.41842555  0.54064350  1  -1.263814  0  -0.311579  -0.237042  0  3.525273  0
N  N130  1  0.41406211  0.81632031  0.96249584  1  -1.205576  0  -0.277941  0.037718  0  3.711944  0
N  N131  1  0.40640190  0.03575111  0.34024431  1  -1.281579  0  -0.317561  -0.252546  0  3.560912  0
N  N132  1  0.17493053  0.08157489  0.95935800  1  -1.263821  0  -0.311547  -0.236995  0  3.525177  0
N  N133  1  0.91406056  0.68368161  0.53750676  1  -1.205575  0  -0.278098  0.037518  0  3.712198  0
N  N134  1  0.09359894  0.53575257  0.84024323  1  -1.281584  0  -0.317575  -0.252491  0  3.560845  0
N  N135  1  0.32506921  0.58157488  0.45935695  1  -1.263733  0  -0.311594  -0.237099  0  3.525207  0
N  N136  1  0.58593784  0.18368012  0.03750461  1  -1.205597  0  -0.277977  0.037691  0  3.711937  0
N  N137  1  0.59359229  0.96424933  0.65975546  1  -1.281559  0  -0.317619  -0.252536  0  3.560886  0
N  N138  1  0.82506941  0.91842554  0.04064177  1  -1.263793  0  -0.311589  -0.237054  0  3.525154  0
N  N139  1  0.08593856  0.31631956  0.46249524  1  -1.205567  0  -0.278001  0.03767  0  3.711992  0
O  O140  1  0.76709695  0.71511233  0.02810336  1  -1.165907  0  -0.31248  -0.544463  0  2.271452  0
O  O141  1  0.90426425  0.60985834  0.95721629  1  -1.186821  0  -0.319877  -0.576443  0  2.341226  0
O  O142  1  0.74179012  0.39069798  0.32811003  1  -1.166189  0  -0.305594  -0.536485  0  2.291014  0
O  O143  1  0.89905692  0.32763544  0.25248073  1  -1.143539  0  -0.299147  -0.520631  0  2.310107  0
O  O144  1  0.71288416  0.67489994  0.82773941  1  -1.172692  0  -0.301198  -0.537704  0  2.368306  0
O  O145  1  0.86312519  0.60300065  0.74426031  1  -1.178964  0  -0.320183  -0.552167  0  2.335122  0
O  O146  1  0.40450077  0.32407946  0.49229577  1  -1.164076  0  -0.308635  -0.515847  0  2.123312  0
O  O147  1  0.56130852  0.28929040  0.40646007  1  -1.173496  0  -0.319566  -0.566111  0  2.474705  0
O  O148  1  0.59899342  0.84720493  0.97603569  1  -1.1713  0  -0.29941  -0.457023  0  2.37358  0
O  O149  1  0.26709751  0.78488720  0.47189800  1  -1.166217  0  -0.312482  -0.544489  0  2.271409  0
O  O150  1  0.40426033  0.89014354  0.54278701  1  -1.186851  0  -0.319902  -0.576488  0  2.34126  0
O  O151  1  0.24178786  0.10929764  0.17188832  1  -1.166234  0  -0.305657  -0.536651  0  2.290862  0
O  O152  1  0.39905298  0.17236573  0.24752003  1  -1.143522  0  -0.299161  -0.520672  0  2.310054  0
O  O153  1  0.21288605  0.82510076  0.67226137  1  -1.172632  0  -0.301193  -0.537697  0  2.368383  0
O  O154  1  0.36312540  0.89699224  0.75574482  1  -1.179049  0  -0.320076  -0.552042  0  2.335196  0
O  O155  1  0.90450014  0.17592173  0.00770362  1  -1.164138  0  -0.308596  -0.515806  0  2.123304  0
O  O156  1  0.06130615  0.21071070  0.09354158  1  -1.173471  0  -0.319576  -0.566104  0  2.474632  0
O  O157  1  0.09899191  0.65279475  0.52396376  1  -1.171327  0  -0.299449  -0.457122  0  2.373634  0
O  O158  1  0.23290628  0.28488662  0.97189669  1  -1.1659  0  -0.312521  -0.544473  0  2.271476  0
O  O159  1  0.09573816  0.39014061  0.04278172  1  -1.186705  0  -0.319832  -0.576339  0  2.341326  0
O  O160  1  0.25821065  0.60929802  0.67188584  1  -1.166234  0  -0.30564  -0.536572  0  2.290931  0
O  O161  1  0.10094549  0.67236499  0.74751835  1  -1.143517  0  -0.299141  -0.520614  0  2.310076  0
O  O162  1  0.28711660  0.32509827  0.17226114  1  -1.172493  0  -0.301185  -0.537718  0  2.368245  0
O  O163  1  0.13687558  0.39699756  0.25573955  1  -1.178958  0  -0.320176  -0.55215  0  2.335132  0
O  O164  1  0.59549753  0.67592171  0.50770555  1  -1.164122  0  -0.308577  -0.515786  0  2.123584  0
O  O165  1  0.43869060  0.71071077  0.59354125  1  -1.173468  0  -0.319576  -0.566173  0  2.474568  0
O  O166  1  0.40100653  0.15279402  0.02396368  1  -1.171318  0  -0.299453  -0.457099  0  2.373541  0
O  O167  1  0.73290408  0.21510952  0.52810351  1  -1.166256  0  -0.312451  -0.544406  0  2.271565  0
O  O168  1  0.59573879  0.10985985  0.45721285  1  -1.186836  0  -0.319906  -0.576441  0  2.341201  0
O  O169  1  0.75821291  0.89070131  0.82811105  1  -1.166151  0  -0.305664  -0.536647  0  2.290819  0
O  O170  1  0.60094697  0.82763396  0.75248022  1  -1.143547  0  -0.299177  -0.520687  0  2.310123  0
O  O171  1  0.78711800  0.17490116  0.32773879  1  -1.172735  0  -0.301233  -0.537801  0  2.368351  0
O  O172  1  0.63687537  0.10300819  0.24425767  1  -1.17896  0  -0.320103  -0.552056  0  2.335065  0
O  O173  1  0.09550720  0.82407573  0.99229741  1  -1.164102  0  -0.308785  -0.516059  0  2.122829  0
O  O174  1  0.93869544  0.78928825  0.90646052  1  -1.173522  0  -0.319482  -0.565983  0  2.474929  0
O  O175  1  0.90100804  0.34720271  0.47603795  1  -1.171303  0  -0.299461  -0.457069  0  2.37355  0
