# generated using pymatgen
data_LiH5(C2O)2
_symmetry_space_group_name_H-M   'P 1'
_cell_length_a   5.04668403
_cell_length_b   8.58370309
_cell_length_c   11.08190401
_cell_angle_alpha   103.91451807
_cell_angle_beta   103.20387447
_cell_angle_gamma   89.98016274
_symmetry_Int_Tables_number   1
_chemical_formula_structural   LiH5(C2O)2
_chemical_formula_sum   'Li4 H20 C16 O8'
_cell_volume   452.89650215
_cell_formula_units_Z   4
loop_
 _symmetry_equiv_pos_site_id
 _symmetry_equiv_pos_as_xyz
  1  'x, y, z'
loop_
 _atom_site_type_symbol
 _atom_site_label
 _atom_site_symmetry_multiplicity
 _atom_site_fract_x
 _atom_site_fract_y
 _atom_site_fract_z
 _atom_site_occupancy
 _atom_site_hle17_bader_spin_density
 _atom_site_hle17_ddec_charge
 _atom_site_hle17_ddec_spin_density
 _atom_site_hle17_ddec_sum_bond_order
 _atom_site_hle17_magmom
 _atom_site_hse06_10hf_bader_spin_density
 _atom_site_hse06_10hf_ddec_charge
 _atom_site_hse06_10hf_ddec_spin_density
 _atom_site_hse06_10hf_ddec_sum_bond_order
 _atom_site_hse06_10hf_magmom
 _atom_site_hse06_bader_spin_density
 _atom_site_hse06_ddec_charge
 _atom_site_hse06_ddec_spin_density
 _atom_site_hse06_ddec_sum_bond_order
 _atom_site_hse06_magmom
 _atom_site_pbe_bader_spin_density
 _atom_site_pbe_cm5_charge
 _atom_site_pbe_ddec_charge
 _atom_site_pbe_ddec_spin_density
 _atom_site_pbe_ddec_sum_bond_order
 _atom_site_pbe_magmom
Li  Li0  1  0.09535660  0.64782227  0.49109772  1  0  0.855852  0  0.395802  0  0  0.816056  0  0.501064  0  0  0.825263  0  0.485212  0  0  0.506045  0.809559  0  0.512016  0
Li  Li1  1  0.60407295  0.85218014  0.50889981  1  0  0.856192  0  0.395132  0  0  0.816532  0  0.500187  0  0  0.825741  0  0.484332  0  0  0.505916  0.810012  0  0.511191  0
Li  Li2  1  0.90464244  0.35217883  0.50890112  1  0  0.855857  0  0.395795  0  0  0.816049  0  0.501079  0  0  0.825257  0  0.485225  0  0  0.506042  0.809552  0  0.512031  0
Li  Li3  1  0.39592203  0.14782095  0.49109953  1  0  0.856186  0  0.395161  0  0  0.816531  0  0.500206  0  0  0.825741  0  0.484348  0  0  0.505912  0.810011  0  0.511211  0
H  H4  1  0.12869928  0.39626742  0.27288050  1  0  0.121293  0  0.975303  0  0  0.128338  0  1.041804  0  0  0.132739  0  1.039535  0  0  0.114899  0.125176  0  1.043666  0
H  H5  1  0.85576104  0.10358150  0.72710221  1  0  0.122304  0  0.974765  0  0  0.129192  0  1.041321  0  0  0.133541  0  1.039122  0  0  0.115641  0.126049  0  1.043185  0
H  H6  1  0.87130560  0.60373129  0.72711756  1  0  0.121295  0  0.975261  0  0  0.12833  0  1.041782  0  0  0.132733  0  1.03951  0  0  0.11488  0.125168  0  1.043644  0
H  H7  1  0.14423788  0.89641838  0.27289729  1  0  0.122358  0  0.974707  0  0  0.129226  0  1.04129  0  0  0.133574  0  1.039089  0  0  0.115654  0.126082  0  1.043154  0
H  H8  1  0.66230614  0.25591624  0.21828676  1  0  0.071657  0  0.953959  0  0  0.084818  0  1.014968  0  0  0.087294  0  1.013201  0  0  0.108156  0.083256  0  1.015831  0
H  H9  1  0.44383326  0.24411847  0.78178278  1  0  0.071465  0  0.954082  0  0  0.084771  0  1.015145  0  0  0.087125  0  1.013515  0  0  0.108264  0.083268  0  1.015974  0
H  H10  1  0.33769472  0.74408240  0.78171449  1  0  0.071712  0  0.953919  0  0  0.084834  0  1.014968  0  0  0.08731  0  1.0132  0  0  0.108171  0.083271  0  1.015831  0
H  H11  1  0.55616354  0.75588017  0.21821806  1  0  0.071506  0  0.954087  0  0  0.08481  0  1.01515  0  0  0.087165  0  1.013519  0  0  0.108266  0.083304  0  1.015983  0
H  H12  1  0.33247924  0.00794020  0.13868246  1  0  0.108447  0  0.951791  0  0  0.129929  0  1.014379  0  0  0.130599  0  1.015207  0  0  0.096655  0.129306  0  1.01412  0
H  H13  1  0.19422386  0.49211042  0.86156417  1  0  0.10854  0  0.951345  0  0  0.129773  0  1.014301  0  0  0.130491  0  1.015078  0  0  0.097006  0.129129  0  1.014074  0
H  H14  1  0.66751958  0.99205845  0.86131768  1  0  0.108466  0  0.951789  0  0  0.129942  0  1.014385  0  0  0.130614  0  1.015212  0  0  0.096667  0.12932  0  1.014126  0
H  H15  1  0.80577508  0.50788944  0.13843623  1  0  0.108522  0  0.951355  0  0  0.129753  0  1.014318  0  0  0.130471  0  1.015095  0  0  0.096996  0.129108  0  1.014092  0
H  H16  1  0.29706522  0.11096402  0.01652042  1  0  0.101082  0  0.959913  0  0  0.123923  0  1.020896  0  0  0.123988  0  1.02288  0  0  0.091923  0.123862  0  1.019582  0
H  H17  1  0.28046871  0.38877913  0.98355192  1  0  0.100248  0  0.960848  0  0  0.123049  0  1.021853  0  0  0.123133  0  1.02382  0  0  0.091365  0.123012  0  1.0206  0
H  H18  1  0.70293575  0.88903584  0.98348018  1  0  0.101079  0  0.959913  0  0  0.123921  0  1.020896  0  0  0.123986  0  1.022881  0  0  0.091926  0.123859  0  1.019584  0
H  H19  1  0.71953011  0.61121950  0.01644912  1  0  0.100211  0  0.960818  0  0  0.123005  0  1.021843  0  0  0.123088  0  1.023811  0  0  0.091346  0.122968  0  1.020588  0
H  H20  1  0.05294691  0.13257155  0.11240562  1  0  0.107201  0  0.941589  0  0  0.132174  0  0.995074  0  0  0.133313  0  0.995399  0  0  0.094768  0.131222  0  0.995123  0
H  H21  1  0.94041577  0.36764207  0.88745905  1  0  0.10688  0  0.941679  0  0  0.131878  0  0.995174  0  0  0.13302  0  0.995506  0  0  0.094977  0.130897  0  0.995308  0
H  H22  1  0.94705634  0.86743073  0.88759479  1  0  0.107195  0  0.941591  0  0  0.132168  0  0.995078  0  0  0.133307  0  0.995404  0  0  0.094763  0.131215  0  0.995128  0
H  H23  1  0.05958725  0.63235776  0.11254265  1  0  0.106886  0  0.941638  0  0  0.131888  0  0.995135  0  0  0.133029  0  0.995467  0  0  0.094984  0.130906  0  0.995269  0
C  C24  1  0.52841557  0.52080865  0.36821197  1  0  0.746883  0  3.910391  0  0  0.704846  0  4.198258  0  0  0.738377  0  4.188381  0  0  0.231275  0.682387  0  4.203948  0
C  C25  1  0.16029115  0.97920295  0.63182714  1  0  0.749329  0  3.912208  0  0  0.70753  0  4.199414  0  0  0.741252  0  4.18918  0  0  0.232198  0.684959  0  4.205368  0
C  C26  1  0.47158552  0.47919243  0.63178798  1  0  0.746888  0  3.910501  0  0  0.704862  0  4.198342  0  0  0.738391  0  4.188468  0  0  0.231291  0.682404  0  4.204029  0
C  C27  1  0.83970781  0.02079689  0.36817416  1  0  0.749327  0  3.912192  0  0  0.707486  0  4.199463  0  0  0.741209  0  4.189228  0  0  0.232175  0.684916  0  4.205415  0
C  C28  1  0.34648133  0.38627078  0.27811294  1  0  -0.294528  0  3.685235  0  0  -0.311409  0  3.943138  0  0  -0.323546  0  3.959969  0  0  -0.08705  -0.303471  0  3.932223  0
C  C29  1  0.06827952  0.11363690  0.72189909  1  0  -0.297358  0  3.687239  0  0  -0.314168  0  3.945319  0  0  -0.326336  0  3.962043  0  0  -0.089025  -0.306178  0  3.934471  0
C  C30  1  0.65352166  0.61372909  0.72188696  1  0  -0.29452  0  3.685246  0  0  -0.311397  0  3.943118  0  0  -0.323534  0  3.959953  0  0  -0.087029  -0.30346  0  3.932199  0
C  C31  1  0.93172146  0.88636294  0.27810241  1  0  -0.297406  0  3.687211  0  0  -0.314195  0  3.945314  0  0  -0.326359  0  3.962038  0  0  -0.08903  -0.306203  0  3.934466  0
C  C32  1  0.44124849  0.25923382  0.20666102  1  0  0.073586  0  3.701317  0  0  0.061154  0  3.95868  0  0  0.066179  0  3.976412  0  0  -0.059141  0.057684  0  3.946456  0
C  C33  1  0.23440367  0.24075161  0.79334675  1  0  0.075197  0  3.701787  0  0  0.062596  0  3.958995  0  0  0.067708  0  3.976752  0  0  -0.058034  0.059023  0  3.946841  0
C  C34  1  0.55875044  0.74076604  0.79333938  1  0  0.073544  0  3.701358  0  0  0.061151  0  3.958698  0  0  0.066177  0  3.97643  0  0  -0.059146  0.057682  0  3.946471  0
C  C35  1  0.76559539  0.75924945  0.20665390  1  0  0.075146  0  3.701789  0  0  0.062557  0  3.958973  0  0  0.067666  0  3.976731  0  0  -0.058039  0.058983  0  3.946819  0
C  C36  1  0.27017222  0.12138699  0.11395226  1  0  -0.304156  0  3.754343  0  0  -0.37863  0  3.990611  0  0  -0.381199  0  4.001914  0  0  -0.235471  -0.37653  0  3.983038  0
C  C37  1  0.15618196  0.37859114  0.88607223  1  0  -0.302851  0  3.754015  0  0  -0.377067  0  3.990231  0  0  -0.379684  0  4.001484  0  0  -0.235314  -0.375013  0  3.982846  0
C  C38  1  0.72983079  0.87861286  0.88604855  1  0  -0.30417  0  3.754374  0  0  -0.378647  0  3.990633  0  0  -0.381217  0  4.001936  0  0  -0.235487  -0.376547  0  3.983058  0
C  C39  1  0.84381699  0.62140870  0.11392906  1  0  -0.302789  0  3.753891  0  0  -0.377005  0  3.990107  0  0  -0.379621  0  4.001361  0  0  -0.235286  -0.37495  0  3.982721  0
O  O40  1  0.41595131  0.64619463  0.41815282  1  0  -0.794052  0  1.934289  0  0  -0.745605  0  2.17738  0  0  -0.765974  0  2.162598  0  0  -0.435224  -0.731582  0  2.186586  0
O  O41  1  0.99795519  0.85379183  0.58177223  1  0  -0.795659  0  1.935821  0  0  -0.747364  0  2.17901  0  0  -0.767816  0  2.164101  0  0  -0.435878  -0.733405  0  2.18833  0
O  O42  1  0.58404761  0.35380525  0.58184668  1  0  -0.794058  0  1.934304  0  0  -0.745612  0  2.177397  0  0  -0.765979  0  2.162613  0  0  -0.435218  -0.731589  0  2.186603  0
O  O43  1  0.00204183  0.14620925  0.41822732  1  0  -0.795663  0  1.93582  0  0  -0.747351  0  2.179037  0  0  -0.767803  0  2.164127  0  0  -0.435848  -0.733393  0  2.188355  0
O  O44  1  0.78591472  0.50708935  0.39265579  1  0  -0.793173  0  1.976547  0  0  -0.745352  0  2.221455  0  0  -0.766778  0  2.208164  0  0  -0.426759  -0.73053  0  2.229447  0
O  O45  1  0.39332962  0.99298043  0.60746573  1  0  -0.794388  0  1.978326  0  0  -0.746952  0  2.223737  0  0  -0.76842  0  2.21035  0  0  -0.427206  -0.732078  0  2.231858  0
O  O46  1  0.21408624  0.49291052  0.60734391  1  0  -0.793177  0  1.976625  0  0  -0.745367  0  2.221542  0  0  -0.766793  0  2.208251  0  0  -0.426767  -0.730546  0  2.229534  0
O  O47  1  0.60666753  0.00702186  0.39253407  1  0  -0.794387  0  1.9783  0  0  -0.746951  0  2.223763  0  0  -0.768421  0  2.210374  0  0  -0.427211  -0.732072  0  2.23187  0
