# generated using pymatgen
data_MgH9C17(NO)3
_symmetry_space_group_name_H-M   'P 1'
_cell_length_a   6.86732117
_cell_length_b   42.01720283
_cell_length_c   42.01654054
_cell_angle_alpha   119.70549943
_cell_angle_beta   93.12390179
_cell_angle_gamma   93.12420746
_symmetry_Int_Tables_number   1
_chemical_formula_structural   MgH9C17(NO)3
_chemical_formula_sum   'Mg6 H54 C102 N18 O18'
_cell_volume   10468.25937315
_cell_formula_units_Z   6
loop_
 _symmetry_equiv_pos_site_id
 _symmetry_equiv_pos_as_xyz
  1  'x, y, z'
loop_
 _atom_site_type_symbol
 _atom_site_label
 _atom_site_symmetry_multiplicity
 _atom_site_fract_x
 _atom_site_fract_y
 _atom_site_fract_z
 _atom_site_occupancy
 _atom_site_pbe_bader_charge
 _atom_site_pbe_bader_spin_density
 _atom_site_pbe_cm5_charge
 _atom_site_pbe_ddec_charge
 _atom_site_pbe_ddec_spin_density
 _atom_site_pbe_ddec_sum_bond_order
 _atom_site_pbe_magmom
Mg  Mg0  1  0.10752840  0.63925460  0.32748362  1  1.683676  0  0.907719  1.409251  0  1.326524  0
Mg  Mg1  1  0.37404282  0.36032508  0.67143532  1  1.683053  0  0.908092  1.408452  0  1.328599  0
Mg  Mg2  1  0.78002817  0.67250864  0.31177792  1  1.683711  0  0.907567  1.40837  0  1.328171  0
Mg  Mg3  1  0.70256296  0.32856034  0.68888643  1  1.682763  0  0.90804  1.408392  0  1.328937  0
Mg  Mg4  1  0.46824733  0.68821070  0.36073200  1  1.682849  0  0.907638  1.409596  0  1.326167  0
Mg  Mg5  1  0.01373229  0.31110917  0.63966738  1  1.682761  0  0.907957  1.407891  0  1.328849  0
H  H6  1  0.04518007  0.37318777  0.79257979  1  0.106537  0  0.105275  0.107402  0  1.014321  0
H  H7  1  0.29022452  0.39968253  0.84759372  1  0.096088  0  0.103323  0.110713  0  1.028727  0
H  H8  1  0.74468759  0.39475919  0.77881206  1  0.100645  0  0.111166  0.132933  0  1.013123  0
H  H9  1  0.99674960  0.44605726  0.87675984  1  0.112088  0  0.108497  0.112322  0  1.012628  0
H  H10  1  0.24437981  0.47620833  0.93212079  1  0.113853  0  0.109289  0.112207  0  1.011174  0
H  H11  1  0.26029731  0.51726750  0.06492373  1  0.108221  0  0.109588  0.113065  0  1.009631  0
H  H12  1  0.50000305  0.55064258  0.12135591  1  0.09613  0  0.108449  0.112659  0  1.010671  0
H  H13  1  0.20066625  0.60191374  0.15254103  1  0.099636  0  0.104283  0.111787  0  1.024784  0
H  H14  1  0.44132371  0.62984847  0.20830112  1  0.084768  0  0.105627  0.109107  0  1.010183  0
H  H15  1  0.74132921  0.60596907  0.22014814  1  0.112035  0  0.110984  0.132367  0  1.010446  0
H  H16  1  0.06493295  0.58684739  0.08078981  1  0.102435  0  0.101343  0.098083  0  1.02923  0
H  H17  1  0.15140803  0.58032361  0.02130601  1  0.053624  0  0.104192  0.102707  0  0.985315  0
H  H18  1  0.91117263  0.54813418  0.96562505  1  0.072008  0  0.103309  0.100983  0  0.98609  0
H  H19  1  0.58597892  0.52168774  0.96931283  1  0.076975  0  0.102296  0.0989  0  1.025199  0
H  H20  1  0.93012983  0.46749000  0.02663191  1  0.098849  0  0.102258  0.098958  0  1.025432  0
H  H21  1  0.60503578  0.44099788  0.03039147  1  0.050872  0  0.103568  0.100818  0  0.985605  0
H  H22  1  0.35866380  0.41132420  0.97556350  1  0.088563  0  0.103906  0.102274  0  0.985091  0
H  H23  1  0.43768961  0.40770786  0.91691008  1  0.080356  0  0.101732  0.099203  0  1.028278  0
H  H24  1  0.25256503  0.20741008  0.58059273  1  0.092154  0  0.105278  0.107946  0  1.01358  0
H  H25  1  0.44271640  0.15240270  0.55209777  1  0.106136  0  0.103053  0.110417  0  1.028492  0
H  H26  1  0.96591331  0.22120163  0.61595496  1  0.106171  0  0.11109  0.132872  0  1.013169  0
H  H27  1  0.12001452  0.12324535  0.56929612  1  0.125331  0  0.108208  0.111657  0  1.013159  0
H  H28  1  0.31240773  0.06790248  0.54409661  1  0.107782  0  0.109489  0.113209  0  1.010359  0
H  H29  1  0.19535034  0.93508041  0.45234153  1  0.100474  0  0.109715  0.113031  0  1.009564  0
H  H30  1  0.37866234  0.87865176  0.42928036  1  0.097909  0  0.108381  0.112269  0  1.010877  0
H  H31  1  0.04824840  0.84744260  0.44936646  1  0.110706  0  0.104173  0.111356  0  1.025921  0
H  H32  1  0.23302870  0.79167091  0.42154235  1  0.111147  0  0.105578  0.108957  0  1.010406  0
H  H33  1  0.52127082  0.77985387  0.38582271  1  0.103293  0  0.110956  0.13238  0  1.010181  0
H  H34  1  0.98410732  0.91920503  0.50604145  1  0.092534  0  0.101493  0.098146  0  1.028923  0
H  H35  1  0.13011138  0.97867593  0.55900355  1  0.030783  0  0.103892  0.102447  0  0.985003  0
H  H36  1  0.94562051  0.03436657  0.58251366  1  0.070095  0  0.103037  0.100673  0  0.9859  0
H  H37  1  0.61669218  0.03068987  0.55238495  1  0.088799  0  0.10195  0.098845  0  1.025413  0
H  H38  1  0.90339830  0.97338438  0.44087261  1  0.07771  0  0.102127  0.098913  0  1.02531  0
H  H39  1  0.57466715  0.96962373  0.41061075  1  0.060137  0  0.103148  0.100511  0  0.986046  0
H  H40  1  0.38310231  0.02444734  0.43575844  1  0.077949  0  0.103845  0.102298  0  0.984626  0
H  H41  1  0.52080041  0.08310086  0.49079067  1  0.085891  0  0.10169  0.099112  0  1.028425  0
H  H42  1  0.67189402  0.41940325  0.62683189  1  0.085943  0  0.105439  0.107686  0  1.013716  0
H  H43  1  0.89045269  0.44790880  0.60030672  1  0.101783  0  0.10327  0.110877  0  1.028803  0
H  H44  1  0.34987232  0.38407089  0.60524272  1  0.107411  0  0.111095  0.132927  0  1.012461  0
H  H45  1  0.55085743  0.43069624  0.55394763  1  0.122314  0  0.108257  0.111822  0  1.012156  0
H  H46  1  0.76838458  0.45591478  0.52379351  1  0.10064  0  0.109241  0.112394  0  1.01107  0
H  H47  1  0.74306139  0.54766132  0.48273653  1  0.093101  0  0.109488  0.11295  0  1.009703  0
H  H48  1  0.94937291  0.57070582  0.44935150  1  0.094419  0  0.108364  0.11238  0  1.010846  0
H  H49  1  0.59878169  0.55064189  0.39809308  1  0.105192  0  0.103765  0.111126  0  1.02563  0
H  H50  1  0.81160485  0.57844808  0.37016019  1  0.115058  0  0.105778  0.108664  0  1.010348  0
H  H51  1  0.13549060  0.61417589  0.39400717  1  0.124441  0  0.111088  0.132143  0  1.010732  0
H  H52  1  0.47814957  0.49395204  0.41315468  1  0.084393  0  0.101563  0.098449  0  1.029003  0
H  H53  1  0.57113828  0.44098137  0.41967043  1  0.070784  0  0.104088  0.102503  0  0.985249  0
H  H54  1  0.36307486  0.41750173  0.45186437  1  0.05455  0  0.10283  0.100728  0  0.985677  0
H  H55  1  0.06425405  0.44761395  0.47829366  1  0.083316  0  0.10231  0.099192  0  1.02557  0
H  H56  1  0.46266435  0.55913493  0.53249384  1  0.087544  0  0.102115  0.098923  0  1.025263  0
H  H57  1  0.16410093  0.58937980  0.55900544  1  0.056919  0  0.103616  0.100436  0  0.985825  0
H  H58  1  0.94751565  0.56422050  0.58867716  1  0.089867  0  0.10382  0.101843  0  0.985534  0
H  H59  1  0.03017743  0.50919519  0.59228955  1  0.086883  0  0.101938  0.099099  0  1.028399  0
C  C60  1  0.10055105  0.35145224  0.72366556  1  1.503872  0  0.237365  0.674473  0  4.125846  0
C  C61  1  0.25415766  0.36893198  0.75466940  1  -0.008887  0  -0.038022  -0.202029  0  3.931575  0
C  C62  1  0.19939224  0.37829006  0.79007902  1  -0.00558  0  -0.082022  -0.05298  0  4.011793  0
C  C63  1  0.33361722  0.39286145  0.82057530  1  -0.06906  0  -0.101994  -0.184575  0  3.989188  0
C  C64  1  0.53290051  0.39838663  0.81608950  1  0.365843  0  0.090599  0.203052  0  4.068504  0
C  C65  1  0.59058448  0.39012285  0.78165918  1  -0.04307  0  -0.093838  -0.271635  0  3.885524  0
C  C66  1  0.45541659  0.37540421  0.75023829  1  0.576043  0  0.095061  0.373166  0  4.079608  0
C  C67  1  0.77857414  0.43378717  0.90472175  1  0.383394  0  0.097606  0.130336  0  4.009047  0
C  C68  1  0.96393199  0.44813764  0.90278838  1  -0.032183  0  -0.080732  -0.130861  0  3.972322  0
C  C69  1  0.10015083  0.46499499  0.93340715  1  -0.008227  0  -0.078485  -0.131824  0  3.980152  0
C  C70  1  0.05510270  0.46807496  0.96694791  1  0.358744  0  0.103919  0.134838  0  4.020935  0
C  C71  1  0.45365639  0.52393696  0.02983330  1  0.431359  0  0.104044  0.134213  0  4.022932  0
C  C72  1  0.40470814  0.52852075  0.06376325  1  -0.054394  0  -0.078905  -0.132484  0  3.978337  0
C  C73  1  0.53647821  0.54717701  0.09495292  1  -0.038978  0  -0.080408  -0.129758  0  3.972779  0
C  C74  1  0.72169373  0.56168903  0.09316118  1  0.38114  0  0.097827  0.129571  0  4.009061  0
C  C75  1  0.95596999  0.60250430  0.18336775  1  0.354515  0  0.091194  0.202782  0  4.066723  0
C  C76  1  0.15526724  0.60886389  0.17946751  1  -0.010685  0  -0.102738  -0.184507  0  3.989551  0
C  C77  1  0.28711547  0.62418251  0.21034624  1  -0.079222  0  -0.081744  -0.054492  0  4.0138  0
C  C78  1  0.23003297  0.63335150  0.24556037  1  0.031023  0  -0.037838  -0.201831  0  3.933225  0
C  C79  1  0.38222762  0.65067602  0.27683410  1  1.498869  0  0.236647  0.673855  0  4.127008  0
C  C80  1  0.02855048  0.62638855  0.24950069  1  0.57801  0  0.095176  0.372922  0  4.082314  0
C  C81  1  0.89548760  0.61115916  0.21773658  1  -0.029374  0  -0.094006  -0.27055  0  3.883922  0
C  C82  1  0.77641037  0.55819157  0.05912381  1  -0.028594  0  0.001821  0.024139  0  3.938896  0
C  C83  1  0.96123120  0.57289157  0.05631548  1  -0.056439  0  -0.089944  -0.124734  0  3.983673  0
C  C84  1  0.00790912  0.56929275  0.02321837  1  -0.025258  0  -0.089587  -0.071027  0  4.016568  0
C  C85  1  0.87207911  0.55095984  0.99165526  1  -0.06999  0  -0.089732  -0.075334  0  4.020289  0
C  C86  1  0.69139410  0.53620756  0.99348228  1  0.002997  0  -0.08888  -0.122151  0  3.987336  0
C  C87  1  0.63899910  0.53947942  0.02706820  1  0.01464  0  0.001748  0.021971  0  3.938564  0
C  C88  1  0.87020103  0.45240375  0.96970207  1  -0.000231  0  0.002543  0.01923  0  3.941622  0
C  C89  1  0.82170822  0.45414098  0.00285189  1  -0.052888  0  -0.08873  -0.120931  0  3.98904  0
C  C90  1  0.64114084  0.43936145  0.00469764  1  -0.058547  0  -0.089536  -0.075408  0  4.019761  0
C  C91  1  0.50174492  0.42246157  0.97360214  1  -0.025787  0  -0.089026  -0.069909  0  4.015581  0
C  C92  1  0.54433857  0.42046322  0.94097822  1  -0.014699  0  -0.090427  -0.12625  0  3.983086  0
C  C93  1  0.72864635  0.43534459  0.93818094  1  -0.034379  0  0.002384  0.025524  0  3.940017  0
C  C94  1  0.37692860  0.27632995  0.62778187  1  1.505302  0  0.235819  0.673878  0  4.127212  0
C  C95  1  0.49944727  0.24532329  0.61426113  1  -0.024289  0  -0.037702  -0.201333  0  3.930698  0
C  C96  1  0.40926885  0.20991567  0.58820716  1  -0.019074  0  -0.081995  -0.053884  0  4.010271  0
C  C97  1  0.51306761  0.17942445  0.57230519  1  -0.068149  0  -0.101754  -0.184147  0  3.987316  0
C  C98  1  0.71682307  0.18392116  0.58232437  1  0.35295  0  0.090791  0.202943  0  4.069425  0
C  C99  1  0.80896158  0.21835477  0.60847551  1  -0.000276  0  -0.093983  -0.271489  0  3.885189  0
C  C100  1  0.70513126  0.24975974  0.62516297  1  0.603932  0  0.095268  0.372929  0  4.080121  0
C  C101  1  0.87391599  0.09529914  0.52906900  1  0.345807  0  0.097164  0.129662  0  4.009977  0
C  C102  1  0.06121718  0.09721801  0.54534131  1  0.000664  0  -0.079937  -0.128948  0  3.971132  0
C  C103  1  0.16691063  0.06661313  0.53158426  1  -0.024103  0  -0.079052  -0.133934  0  3.980537  0
C  C104  1  0.08830427  0.03306770  0.50113517  1  0.360276  0  0.10426  0.135216  0  4.020322  0
C  C105  1  0.42382256  0.97016841  0.49411217  1  0.374459  0  0.103832  0.135583  0  4.021926  0
C  C106  1  0.34091641  0.93624234  0.46475898  1  -0.000248  0  -0.078529  -0.131905  0  3.977262  0
C  C107  1  0.44153580  0.90505865  0.45221718  1  -0.058411  0  -0.079851  -0.12882  0  3.972155  0
C  C108  1  0.62848969  0.90683831  0.46853631  1  0.392652  0  0.097094  0.128722  0  4.01138  0
C  C109  1  0.77269173  0.81663620  0.41912724  1  0.421784  0  0.090863  0.201912  0  4.067447  0
C  C110  1  0.97588670  0.82052522  0.42938435  1  -0.051434  0  -0.101998  -0.183193  0  3.989071  0
C  C111  1  0.07676850  0.78962962  0.41383304  1  -0.041975  0  -0.081603  -0.053801  0  4.013341  0
C  C112  1  0.98446995  0.75442214  0.38779597  1  -0.040811  0  -0.037903  -0.203541  0  3.934661  0
C  C113  1  0.10546125  0.72315671  0.37384861  1  1.512527  0  0.237547  0.675507  0  4.125866  0
C  C114  1  0.77904633  0.75049184  0.37689426  1  0.600934  0  0.095004  0.373438  0  4.081407  0
C  C115  1  0.67783222  0.78226424  0.39342105  1  -0.097153  0  -0.094477  -0.270902  0  3.883641  0
C  C116  1  0.71718790  0.94086817  0.49908540  1  -0.051571  0  0.002105  0.024899  0  3.940556  0
C  C117  1  0.90486842  0.94368075  0.51658641  1  0.045088  0  -0.090262  -0.124748  0  3.984133  0
C  C118  1  0.98464096  0.97676463  0.54607412  1  -0.065461  0  -0.089538  -0.070921  0  4.016956  0
C  C119  1  0.88044333  0.00833398  0.55932007  1  -0.083948  0  -0.089198  -0.074752  0  4.018266  0
C  C120  1  0.69789857  0.00651470  0.54274591  1  -0.017747  0  -0.088822  -0.121435  0  3.988647  0
C  C121  1  0.61187307  0.97293036  0.51243819  1  0.024955  0  0.002119  0.019079  0  3.941895  0
C  C122  1  0.90055823  0.03032095  0.48272599  1  -0.038413  0  0.00223  0.018908  0  3.940435  0
C  C123  1  0.81880130  0.99717147  0.45131636  1  -0.008838  0  -0.08828  -0.120758  0  3.987951  0
C  C124  1  0.63643617  0.99532356  0.43466369  1  -0.017949  0  -0.089289  -0.075404  0  4.019578  0
C  C125  1  0.52819943  0.02642117  0.44884823  1  -0.118632  0  -0.08901  -0.070042  0  4.015912  0
C  C126  1  0.60343654  0.05904102  0.47946934  1  0.031599  0  -0.090455  -0.12565  0  3.983225  0
C  C127  1  0.79053810  0.06184479  0.49716385  1  -0.027823  0  0.002408  0.025427  0  3.940045  0
C  C128  1  0.74914207  0.37222521  0.64856502  1  1.501147  0  0.237165  0.675182  0  4.125486  0
C  C129  1  0.88517947  0.38574651  0.63107386  1  -0.026179  0  -0.037943  -0.202198  0  3.931462  0
C  C130  1  0.82100719  0.41180036  0.62171773  1  -0.015646  0  -0.082113  -0.053026  0  4.010826  0
C  C131  1  0.94060320  0.42770066  0.60712003  1  0.002143  0  -0.101707  -0.184593  0  3.988827  0
C  C132  1  0.13432849  0.41769074  0.60159522  1  0.288842  0  0.090686  0.202974  0  4.068395  0
C  C133  1  0.20039836  0.39154442  0.60988116  1  -0.00377  0  -0.093735  -0.27102  0  3.885036  0
C  C134  1  0.07994390  0.37484597  0.62459549  1  0.590647  0  0.09515  0.372755  0  4.081838  0
C  C135  1  0.34496105  0.47092208  0.56620396  1  0.343989  0  0.097089  0.128465  0  4.009668  0
C  C136  1  0.51604778  0.45465217  0.55187299  1  -0.040338  0  -0.079515  -0.127789  0  3.97016  0
C  C137  1  0.63538816  0.46841727  0.53501825  1  0.022369  0  -0.078806  -0.13329  0  3.980061  0
C  C138  1  0.58714852  0.49885082  0.53190422  1  0.35478  0  0.103937  0.13362  0  4.020047  0
C  C139  1  0.92978575  0.50590436  0.47606009  1  0.352765  0  0.104854  0.134997  0  4.022768  0
C  C140  1  0.87621904  0.53525378  0.47148722  1  0.003514  0  -0.078716  -0.132106  0  3.977753  0
C  C141  1  0.98936074  0.54777540  0.45282628  1  -0.022607  0  -0.079982  -0.129594  0  3.971614  0
C  C142  1  0.16007680  0.53146882  0.43830710  1  0.354907  0  0.097463  0.129644  0  4.010485  0
C  C143  1  0.35354967  0.58087613  0.39750487  1  0.326016  0  0.091188  0.202349  0  4.067446  0
C  C144  1  0.54653031  0.57064416  0.39117380  1  -0.054604  0  -0.102132  -0.183936  0  3.989119  0
C  C145  1  0.66313369  0.58618858  0.37585330  1  -0.045627  0  -0.082206  -0.053628  0  4.012396  0
C  C146  1  0.59687413  0.61221243  0.36665341  1  0.003667  0  -0.037451  -0.202732  0  3.93586  0
C  C147  1  0.73164950  0.62614381  0.34931567  1  1.479339  0  0.237581  0.675609  0  4.126472  0
C  C148  1  0.40231830  0.62308842  0.37358639  1  0.572829  0  0.095803  0.373615  0  4.080786  0
C  C149  1  0.28445088  0.60656475  0.38881735  1  -0.026621  0  -0.094298  -0.269996  0  3.883546  0
C  C150  1  0.21831975  0.50094007  0.44181121  1  -0.029114  0  0.001958  0.024481  0  3.938773  0
C  C151  1  0.38847529  0.48342916  0.42711474  1  0.02583  0  -0.090275  -0.125053  0  3.984071  0
C  C152  1  0.43870218  0.45393661  0.43071062  1  -0.016939  0  -0.089268  -0.071062  0  4.017036  0
C  C153  1  0.32119690  0.44070297  0.44903913  1  -0.07496  0  -0.08915  -0.074277  0  4.017132  0
C  C154  1  0.15512583  0.45726822  0.46377745  1  -0.04348  0  -0.089332  -0.123413  0  3.988719  0
C  C155  1  0.09956438  0.48758616  0.46051167  1  0.003753  0  0.001988  0.02175  0  3.939776  0
C  C156  1  0.41786923  0.51726226  0.54755528  1  0.007172  0  0.002494  0.023044  0  3.937278  0
C  C157  1  0.36763943  0.54868222  0.54582794  1  -0.074472  0  -0.088305  -0.12267  0  3.987695  0
C  C158  1  0.20192067  0.56532205  0.56063730  1  -0.002711  0  -0.090067  -0.074346  0  4.01862  0
C  C159  1  0.07952722  0.55113833  0.57755777  1  -0.107938  0  -0.088363  -0.069789  0  4.015986  0
C  C160  1  0.12413732  0.52051018  0.57954415  1  -0.010926  0  -0.09099  -0.12612  0  3.983922  0
C  C161  1  0.29350810  0.50281817  0.56464218  1  -0.008004  0  0.002225  0.024303  0  3.93939  0
N  N162  1  0.68652288  0.41182993  0.84449132  1  -0.484463  0  -0.152497  -0.14387  0  3.255539  0
N  N163  1  0.63153553  0.41870658  0.87556980  1  -0.520323  0  -0.147237  -0.120974  0  3.316493  0
N  N164  1  0.18461878  0.48532069  0.99863804  1  -0.505387  0  -0.148042  -0.131524  0  3.323514  0
N  N165  1  0.32595621  0.50599292  0.99797417  1  -0.537934  0  -0.147807  -0.130689  0  3.331156  0
N  N166  1  0.86457486  0.57861609  0.12299596  1  -0.509027  0  -0.146308  -0.118638  0  3.318367  0
N  N167  1  0.80521941  0.58757727  0.15430122  1  -0.503696  0  -0.153272  -0.145871  0  3.253191  0
N  N168  1  0.84203953  0.15552198  0.56736016  1  -0.48568  0  -0.152281  -0.144016  0  3.255769  0
N  N169  1  0.75600066  0.12444365  0.54315141  1  -0.51505  0  -0.147383  -0.120609  0  3.315931  0
N  N170  1  0.18602128  0.00136768  0.48669253  1  -0.515816  0  -0.14771  -0.131312  0  3.322965  0
N  N171  1  0.32804237  0.00203201  0.50802560  1  -0.512843  0  -0.148274  -0.131277  0  3.329651  0
N  N172  1  0.74157769  0.87700766  0.45562100  1  -0.496943  0  -0.146234  -0.118309  0  3.318769  0
N  N173  1  0.65097343  0.84569978  0.43326778  1  -0.481568  0  -0.153214  -0.145629  0  3.253426  0
N  N174  1  0.27458041  0.43264873  0.58815414  1  -0.487574  0  -0.15368  -0.145512  0  3.256568  0
N  N175  1  0.21285306  0.45685144  0.58127136  1  -0.496996  0  -0.146382  -0.119356  0  3.315615  0
N  N176  1  0.69934723  0.51330396  0.51466020  1  -0.510326  0  -0.148066  -0.131363  0  3.323726  0
N  N177  1  0.82003991  0.49197883  0.49399415  1  -0.516207  0  -0.148151  -0.130746  0  3.331434  0
N  N178  1  0.28599285  0.54438817  0.42138644  1  -0.4906  0  -0.146956  -0.119449  0  3.3181  0
N  N179  1  0.21766625  0.56672429  0.41241511  1  -0.477865  0  -0.152947  -0.145201  0  3.250992  0
O  O180  1  0.55645436  0.65917133  0.27280451  1  -1.240399  0  -0.355046  -0.641994  0  2.151509  0
O  O181  1  0.33538811  0.65705977  0.30880164  1  -1.298241  0  -0.404004  -0.769986  0  2.416347  0
O  O182  1  0.95921929  0.63372484  0.28148167  1  -1.308633  0  -0.446392  -0.77288  0  2.300465  0
O  O183  1  0.92644720  0.34341964  0.72815653  1  -1.241212  0  -0.354282  -0.641002  0  2.155836  0
O  O184  1  0.14620130  0.34419217  0.69137336  1  -1.297447  0  -0.40458  -0.770682  0  2.415807  0
O  O185  1  0.52337568  0.36790917  0.71810968  1  -1.306617  0  -0.447047  -0.77245  0  2.297322  0
O  O186  1  0.28368054  0.72718767  0.38638607  1  -1.246274  0  -0.354942  -0.642268  0  2.15149  0
O  O187  1  0.02671693  0.69119493  0.34824100  1  -1.301707  0  -0.404468  -0.770374  0  2.415364  0
O  O188  1  0.67767379  0.71851100  0.35224908  1  -1.311267  0  -0.446321  -0.77315  0  2.299953  0
O  O189  1  0.19834537  0.27184239  0.61524956  1  -1.244804  0  -0.353388  -0.640597  0  2.156142  0
O  O190  1  0.45483340  0.30861952  0.65282020  1  -1.30389  0  -0.404178  -0.770591  0  2.416556  0
O  O191  1  0.80519467  0.28189607  0.64979525  1  -1.315529  0  -0.447079  -0.772371  0  2.298187  0
O  O192  1  0.89735941  0.61360868  0.34081007  1  -1.235647  0  -0.355266  -0.642521  0  2.150716  0
O  O193  1  0.67843440  0.65172872  0.34293160  1  -1.288375  0  -0.404417  -0.77078  0  2.415871  0
O  O194  1  0.32552740  0.64773089  0.36625072  1  -1.30519  0  -0.447089  -0.774167  0  2.299672  0
O  O195  1  0.58310940  0.38475951  0.65661157  1  -1.239085  0  -0.354532  -0.641494  0  2.155313  0
O  O196  1  0.80199979  0.34717946  0.65580929  1  -1.304068  0  -0.404177  -0.770818  0  2.416216  0
O  O197  1  0.15543467  0.35020487  0.63208305  1  -1.30574  0  -0.447053  -0.772594  0  2.29891  0
