# generated using pymatgen
data_AgH9C12SN3O4F3
_symmetry_space_group_name_H-M   'P 1'
_cell_length_a   10.48560365
_cell_length_b   11.14065241
_cell_length_c   13.29180000
_cell_angle_alpha   91.06777865
_cell_angle_beta   90.00000000
_cell_angle_gamma   90.00000000
_symmetry_Int_Tables_number   1
_chemical_formula_structural   AgH9C12SN3O4F3
_chemical_formula_sum   'Ag4 H36 C48 S4 N12 O16 F12'
_cell_volume   1552.43147086
_cell_formula_units_Z   4
loop_
 _symmetry_equiv_pos_site_id
 _symmetry_equiv_pos_as_xyz
  1  'x, y, z'
loop_
 _atom_site_type_symbol
 _atom_site_label
 _atom_site_symmetry_multiplicity
 _atom_site_fract_x
 _atom_site_fract_y
 _atom_site_fract_z
 _atom_site_occupancy
 _atom_site_hle17_bader_spin_density
 _atom_site_hle17_ddec_charge
 _atom_site_hle17_ddec_spin_density
 _atom_site_hle17_ddec_sum_bond_order
 _atom_site_hle17_magmom
 _atom_site_hse06_10hf_bader_spin_density
 _atom_site_hse06_10hf_ddec_charge
 _atom_site_hse06_10hf_ddec_spin_density
 _atom_site_hse06_10hf_ddec_sum_bond_order
 _atom_site_hse06_10hf_magmom
 _atom_site_hse06_bader_spin_density
 _atom_site_hse06_ddec_charge
 _atom_site_hse06_ddec_spin_density
 _atom_site_hse06_ddec_sum_bond_order
 _atom_site_hse06_magmom
 _atom_site_pbe_bader_charge
 _atom_site_pbe_bader_spin_density
 _atom_site_pbe_cm5_charge
 _atom_site_pbe_ddec_charge
 _atom_site_pbe_ddec_spin_density
 _atom_site_pbe_ddec_sum_bond_order
 _atom_site_pbe_magmom
Ag  Ag0  1  0.92247336  0.40153275  0.96394931  1  0  0.464251  0  1.551827  0  0  0.305294  0  2.033174  0  0  0.335433  0  1.981345  0  0.566165  0  0.46564  0.285231  0  2.068625  0
Ag  Ag1  1  0.42247258  0.09846465  0.53604569  1  0  0.464271  0  1.551971  0  0  0.305367  0  2.033336  0  0  0.335497  0  1.981506  0  0.566029  0  0.465712  0.285313  0  2.068787  0
Ag  Ag2  1  0.07752820  0.59847104  0.03605135  1  0  0.464288  0  1.551844  0  0  0.305357  0  2.033326  0  0  0.335489  0  1.981502  0  0.566235  0  0.4657  0.285315  0  2.068747  0
Ag  Ag3  1  0.57752517  0.90153195  0.46394960  1  0  0.464172  0  1.551965  0  0  0.305243  0  2.033329  0  0  0.33537  0  1.981506  0  0.566355  0  0.465678  0.285179  0  2.068806  0
H  H4  1  0.96555051  0.49784904  0.75845841  1  0  0.082112  0  0.961532  0  0  0.087408  0  1.033395  0  0  0.089752  0  1.0306  0  0.131608  0  0.112069  0.085647  0  1.035471  0
H  H5  1  0.46555260  0.00215195  0.74153213  1  0  0.082133  0  0.961556  0  0  0.087397  0  1.033495  0  0  0.08974  0  1.030704  0  0.131811  0  0.112084  0.085638  0  1.035568  0
H  H6  1  0.03445009  0.50215564  0.24154227  1  0  0.082324  0  0.960928  0  0  0.087336  0  1.033491  0  0  0.089679  0  1.0307  0  0.131803  0  0.112053  0.085575  0  1.035569  0
H  H7  1  0.53445850  0.99785183  0.25846477  1  0  0.08219  0  0.961578  0  0  0.08748  0  1.033465  0  0  0.089823  0  1.030674  0  0.131507  0  0.112091  0.085722  0  1.035539  0
H  H8  1  0.85666885  0.62632164  0.63217167  1  0  0.11095  0  0.943219  0  0  0.121922  0  1.001321  0  0  0.125189  0  0.999801  0  0.073265  0  0.107761  0.119541  0  1.002624  0
H  H9  1  0.35667570  0.87367416  0.86781864  1  0  0.110865  0  0.943221  0  0  0.121873  0  1.001297  0  0  0.125136  0  0.999783  0  0.073372  0  0.10772  0.119491  0  1.0026  0
H  H10  1  0.14333557  0.37368304  0.36782825  1  0  0.110903  0  0.943236  0  0  0.121853  0  1.001348  0  0  0.125117  0  0.999831  0  0.073336  0  0.107736  0.119473  0  1.002649  0
H  H11  1  0.64334017  0.12632423  0.13218269  1  0  0.110917  0  0.943275  0  0  0.12185  0  1.001415  0  0  0.125114  0  0.999902  0  0.07344  0  0.107704  0.119468  0  1.002719  0
H  H12  1  0.56537994  0.69829222  0.85525746  1  0  0.113105  0  0.941979  0  0  0.12309  0  1.001264  0  0  0.126181  0  1.000411  0  0.103224  0  0.108897  0.120754  0  1.002325  0
H  H13  1  0.06537630  0.80171705  0.64473833  1  0  0.113084  0  0.94202  0  0  0.123077  0  1.001282  0  0  0.126167  0  1.000427  0  0.102753  0  0.108906  0.120743  0  1.002336  0
H  H14  1  0.43460922  0.30169541  0.14473242  1  0  0.113114  0  0.941926  0  0  0.122997  0  1.001344  0  0  0.126084  0  1.00049  0  0.103877  0  0.108843  0.120662  0  1.002402  0
H  H15  1  0.93461858  0.19830559  0.35527542  1  0  0.113203  0  0.942035  0  0  0.123094  0  1.001438  0  0  0.126185  0  1.000584  0  0.104184  0  0.108924  0.120757  0  1.002497  0
H  H16  1  0.68568298  0.56767934  0.97202898  1  0  0.081793  0  0.918524  0  0  0.094529  0  0.974156  0  0  0.09687  0  0.971681  0  0.116644  0  0.12024  0.092716  0  0.97612  0
H  H17  1  0.18568030  0.93234070  0.52797374  1  0  0.081748  0  0.91853  0  0  0.094474  0  0.974251  0  0  0.096818  0  0.971771  0  0.116862  0  0.120199  0.09266  0  0.976215  0
H  H18  1  0.31429759  0.43230110  0.02796530  1  0  0.081896  0  0.918236  0  0  0.094518  0  0.973972  0  0  0.096863  0  0.971492  0  0.116628  0  0.120203  0.092702  0  0.97594  0
H  H19  1  0.81430600  0.06769451  0.47204622  1  0  0.081857  0  0.918228  0  0  0.094517  0  0.973916  0  0  0.096857  0  0.971444  0  0.11644  0  0.120237  0.092704  0  0.975881  0
H  H20  1  0.51789198  0.52782287  0.69208010  1  0  0.121199  0  0.955738  0  0  0.132637  0  1.012949  0  0  0.135452  0  1.012598  0  0.130181  0  0.110012  0.130579  0  1.013446  0
H  H21  1  0.01789978  0.97217293  0.80791547  1  0  0.121188  0  0.955741  0  0  0.132649  0  1.012932  0  0  0.135465  0  1.012579  0  0.130142  0  0.110015  0.13059  0  1.013432  0
H  H22  1  0.48209909  0.47217194  0.30791139  1  0  0.121239  0  0.955759  0  0  0.132695  0  1.012927  0  0  0.135513  0  1.012573  0  0.130114  0  0.110042  0.130638  0  1.013422  0
H  H23  1  0.98208843  0.02782457  0.19209863  1  0  0.121224  0  0.955728  0  0  0.132779  0  1.01285  0  0  0.135597  0  1.012496  0  0.129889  0  0.110061  0.13072  0  1.01335  0
H  H24  1  0.33117693  0.44426029  0.60061105  1  0  0.108056  0  0.977366  0  0  0.119582  0  1.034529  0  0  0.122254  0  1.03242  0  0.118067  0  0.105013  0.11757  0  1.036162  0
H  H25  1  0.83118248  0.05573712  0.89937190  1  0  0.108084  0  0.977262  0  0  0.119629  0  1.034456  0  0  0.122307  0  1.03233  0  0.117695  0  0.104999  0.117619  0  1.036085  0
H  H26  1  0.66881223  0.55574350  0.39937306  1  0  0.10807  0  0.977413  0  0  0.119554  0  1.034647  0  0  0.122229  0  1.03253  0  0.117635  0  0.104994  0.117542  0  1.03628  0
H  H27  1  0.16880669  0.94424602  0.10063897  1  0  0.108177  0  0.977375  0  0  0.119696  0  1.034605  0  0  0.122372  0  1.032484  0  0.117666  0  0.10501  0.117689  0  1.036224  0
H  H28  1  0.23479812  0.56418073  0.45928004  1  0  0.099462  0  0.959959  0  0  0.105963  0  1.026994  0  0  0.108901  0  1.026106  0  0.106319  0  0.099777  0.103831  0  1.027802  0
H  H29  1  0.73478650  0.93581956  0.04070131  1  0  0.099118  0  0.960535  0  0  0.105962  0  1.026943  0  0  0.108932  0  1.026017  0  0.106405  0  0.099735  0.103831  0  1.027749  0
H  H30  1  0.76521107  0.43583652  0.54070202  1  0  0.099093  0  0.960637  0  0  0.105879  0  1.02713  0  0  0.108847  0  1.026206  0  0.106282  0  0.099746  0.103752  0  1.027929  0
H  H31  1  0.26520075  0.06416358  0.95930580  1  0  0.098985  0  0.960615  0  0  0.105692  0  1.027214  0  0  0.10866  0  1.026291  0  0.106491  0  0.099672  0.103569  0  1.028009  0
H  H32  1  0.34056885  0.75576382  0.41212948  1  0  0.080969  0  0.978747  0  0  0.087277  0  1.048551  0  0  0.089611  0  1.045831  0  0.111145  0  0.110408  0.085513  0  1.050558  0
H  H33  1  0.84055628  0.74424185  0.08786324  1  0  0.080776  0  0.979283  0  0  0.0873  0  1.048454  0  0  0.089632  0  1.045735  0  0.111161  0  0.110416  0.085541  0  1.050452  0
H  H34  1  0.65944224  0.24425163  0.58786083  1  0  0.0808  0  0.97933  0  0  0.087293  0  1.048536  0  0  0.089627  0  1.045814  0  0.111235  0  0.110447  0.085535  0  1.050532  0
H  H35  1  0.15942907  0.25573410  0.91214301  1  0  0.080694  0  0.979255  0  0  0.087135  0  1.048574  0  0  0.089469  0  1.045849  0  0.111509  0  0.110383  0.085372  0  1.050582  0
H  H36  1  0.72366554  0.99506336  0.71151485  1  0  0.378736  0  0.882059  0  0  0.35698  0  0.95206  0  0  0.366788  0  0.940961  0  0.657985  0  0.314251  0.34999  0  0.959845  0
H  H37  1  0.22366762  0.50492795  0.78847538  1  0  0.379028  0  0.881611  0  0  0.357162  0  0.951804  0  0  0.367  0  0.940687  0  0.657884  0  0.314249  0.350105  0  0.959649  0
H  H38  1  0.27633125  0.00492337  0.28848855  1  0  0.379083  0  0.881536  0  0  0.357245  0  0.951668  0  0  0.367054  0  0.940571  0  0.657868  0  0.314302  0.350202  0  0.959498  0
H  H39  1  0.77633108  0.49507493  0.21151248  1  0  0.378958  0  0.88168  0  0  0.357116  0  0.951819  0  0  0.366924  0  0.940724  0  0.657867  0  0.314252  0.35007  0  0.959653  0
C  C40  1  0.87711593  0.54458781  0.77659616  1  0  0.140067  0  3.681493  0  0  0.104926  0  3.934552  0  0  0.112395  0  3.95395  0  0.499494  0  0.048499  0.099871  0  3.921735  0
C  C41  1  0.37711897  0.95541786  0.72339656  1  0  0.139993  0  3.681551  0  0  0.104838  0  3.934645  0  0  0.112303  0  3.954053  0  0.498715  0  0.048488  0.099785  0  3.921821  0
C  C42  1  0.12288277  0.45542046  0.22340232  1  0  0.140401  0  3.680588  0  0  0.104947  0  3.934457  0  0  0.112415  0  3.953857  0  0.499267  0  0.048546  0.099892  0  3.921638  0
C  C43  1  0.62288832  0.04458861  0.27660941  1  0  0.13982  0  3.681541  0  0  0.104626  0  3.934628  0  0  0.112089  0  3.954038  0  0.498848  0  0.048339  0.099574  0  3.921804  0
C  C44  1  0.81607700  0.61622532  0.70699103  1  0  -0.139737  0  3.672126  0  0  -0.160005  0  3.917896  0  0  -0.167379  0  3.938304  0  -0.020331  0  -0.076635  -0.155246  0  3.90442  0
C  C45  1  0.31608385  0.88376779  0.79299698  1  0  -0.13966  0  3.672103  0  0  -0.159926  0  3.917934  0  0  -0.167297  0  3.938337  0  -0.019433  0  -0.07662  -0.155167  0  3.904461  0
C  C46  1  0.18392074  0.38377667  0.29300585  1  0  -0.139537  0  3.671702  0  0  -0.159856  0  3.917583  0  0  -0.167235  0  3.938003  0  -0.020138  0  -0.076627  -0.155097  0  3.904106  0
C  C47  1  0.68393201  0.11622253  0.20700347  1  0  -0.139702  0  3.672301  0  0  -0.159804  0  3.918119  0  0  -0.167181  0  3.93853  0  -0.019324  0  -0.076518  -0.155043  0  3.904641  0
C  C48  1  0.70181653  0.67273991  0.73390332  1  0  0.106328  0  3.743403  0  0  0.121422  0  3.975652  0  0  0.126005  0  3.99441  0  0.01642  0  0.021414  0.118301  0  3.962972  0
C  C49  1  0.20182148  0.82725590  0.76609074  1  0  0.10638  0  3.743357  0  0  0.121407  0  3.975817  0  0  0.12599  0  3.994575  0  0.015975  0  0.021445  0.118283  0  3.963144  0
C  C50  1  0.29818312  0.32725580  0.26610022  1  0  0.10621  0  3.743475  0  0  0.121297  0  3.975689  0  0  0.125882  0  3.994431  0  0.016226  0  0.021402  0.118174  0  3.963014  0
C  C51  1  0.79818390  0.17275058  0.23391372  1  0  0.106436  0  3.743278  0  0  0.121243  0  3.975903  0  0  0.125828  0  3.994646  0  0.016094  0  0.02138  0.118124  0  3.963229  0
C  C52  1  0.65432380  0.65643821  0.83101174  1  0  -0.137923  0  3.681206  0  0  -0.15936  0  3.929601  0  0  -0.166332  0  3.949566  0  0.01411  0  -0.074495  -0.154976  0  3.916618  0
C  C53  1  0.15432111  0.84356298  0.66898392  1  0  -0.137845  0  3.681185  0  0  -0.159266  0  3.929598  0  0  -0.16624  0  3.949569  0  0.01461  0  -0.074441  -0.154882  0  3.916616  0
C  C54  1  0.34566632  0.34354762  0.16898563  1  0  -0.137756  0  3.681338  0  0  -0.159091  0  3.929591  0  0  -0.166072  0  3.949589  0  0.013951  0  -0.07435  -0.154709  0  3.916607  0
C  C55  1  0.84567568  0.15645607  0.33102526  1  0  -0.137857  0  3.681308  0  0  -0.159133  0  3.929688  0  0  -0.166105  0  3.949654  0  0.013004  0  -0.07433  -0.154749  0  3.916704  0
C  C56  1  0.72083976  0.58331938  0.89621961  1  0  0.135014  0  3.703108  0  0  0.100213  0  3.954964  0  0  0.107762  0  3.973772  0  0.458126  0  0.051083  0.09525  0  3.942367  0
C  C57  1  0.22083898  0.91668719  0.60377914  1  0  0.135037  0  3.703074  0  0  0.100171  0  3.954967  0  0  0.107718  0  3.97378  0  0.457854  0  0.051054  0.095209  0  3.942369  0
C  C58  1  0.27915036  0.41666555  0.10377850  1  0  0.134702  0  3.703136  0  0  0.10003  0  3.954846  0  0  0.107577  0  3.973649  0  0.457728  0  0.05101  0.095067  0  3.942251  0
C  C59  1  0.77916640  0.08332198  0.39622837  1  0  0.134696  0  3.702889  0  0  0.100001  0  3.954645  0  0  0.107547  0  3.973456  0  0.458179  0  0.050917  0.09504  0  3.942046  0
C  C60  1  0.62983498  0.74544127  0.66054557  1  0  0.097846  0  3.712018  0  0  0.07816  0  3.972247  0  0  0.086632  0  3.984938  0  0.601634  0  0.123602  0.072861  0  3.963555  0
C  C61  1  0.12984756  0.75455453  0.83945377  1  0  0.097921  0  3.711817  0  0  0.078184  0  3.97224  0  0  0.086656  0  3.984922  0  0.601761  0  0.123639  0.07288  0  3.963562  0
C  C62  1  0.37015990  0.25455353  0.33945571  1  0  0.097747  0  3.711925  0  0  0.078139  0  3.972104  0  0  0.086615  0  3.984785  0  0.601592  0  0.123578  0.072835  0  3.963424  0
C  C63  1  0.87016068  0.24544926  0.16055291  1  0  0.097664  0  3.711965  0  0  0.078049  0  3.972287  0  0  0.086527  0  3.984965  0  0.601842  0  0.123529  0.07274  0  3.963613  0
C  C64  1  0.52582190  0.68817166  0.60241878  1  0  0.168809  0  3.760069  0  0  0.166111  0  4.000142  0  0  0.170288  0  4.02317  0  0.471705  0  0.116603  0.163107  0  3.984702  0
C  C65  1  0.02583638  0.81182683  0.89757984  1  0  0.168702  0  3.759831  0  0  0.165918  0  4.000166  0  0  0.170104  0  4.02318  0  0.47279  0  0.116535  0.162904  0  3.984724  0
C  C66  1  0.47416917  0.31182853  0.39758408  1  0  0.168807  0  3.759902  0  0  0.165975  0  4.000174  0  0  0.170146  0  4.023203  0  0.473076  0  0.116547  0.162964  0  3.98473  0
C  C67  1  0.97416518  0.18816439  0.10242739  1  0  0.168918  0  3.759954  0  0  0.166165  0  4.00019  0  0  0.170341  0  4.023204  0  0.47223  0  0.116693  0.163158  0  3.984746  0
C  C68  1  0.47539466  0.57755660  0.63081941  1  0  -0.12507  0  3.67269  0  0  -0.147871  0  3.921899  0  0  -0.153358  0  3.942016  0  0.060757  0  -0.076372  -0.144375  0  3.908671  0
C  C69  1  0.97540116  0.92243741  0.86917388  1  0  -0.124837  0  3.672514  0  0  -0.147618  0  3.921777  0  0  -0.153106  0  3.941893  0  0.060621  0  -0.076269  -0.144123  0  3.908546  0
C  C70  1  0.52458973  0.42244449  0.36917745  1  0  -0.124838  0  3.672439  0  0  -0.14762  0  3.92168  0  0  -0.153106  0  3.941797  0  0.060223  0  -0.076303  -0.144125  0  3.908454  0
C  C71  1  0.02458418  0.07754932  0.13083404  1  0  -0.124901  0  3.672374  0  0  -0.147816  0  3.921673  0  0  -0.153304  0  3.941792  0  0.059861  0  -0.076375  -0.144323  0  3.908447  0
C  C72  1  0.36978224  0.53113923  0.57966857  1  0  0.0073  0  3.694973  0  0  -0.01219  0  3.946231  0  0  -0.007996  0  3.96287  0  -0.04464  0  -0.068697  -0.01484  0  3.93502  0
C  C73  1  0.86978397  0.96885657  0.92031947  1  0  0.007131  0  3.694637  0  0  -0.012368  0  3.945985  0  0  -0.008182  0  3.962641  0  -0.043928  0  -0.068759  -0.015014  0  3.934767  0
C  C74  1  0.63020978  0.46886635  0.42032309  1  0  0.007053  0  3.69501  0  0  -0.012404  0  3.946312  0  0  -0.008225  0  3.962982  0  -0.044223  0  -0.06878  -0.015055  0  3.935106  0
C  C75  1  0.13020423  0.03112746  0.07969442  1  0  0.00705  0  3.694654  0  0  -0.012455  0  3.946016  0  0  -0.008278  0  3.962688  0  -0.043117  0  -0.068678  -0.015101  0  3.934807  0
C  C76  1  0.31706901  0.59637115  0.50174554  1  0  -0.112071  0  3.724579  0  0  -0.13102  0  3.986122  0  0  -0.137223  0  4.007058  0  -0.094116  0  -0.085322  -0.127105  0  3.972192  0
C  C77  1  0.81706312  0.90363093  0.99824411  1  0  -0.11237  0  3.724857  0  0  -0.131009  0  3.985667  0  0  -0.137234  0  4.006584  0  -0.094663  0  -0.08527  -0.127097  0  3.971744  0
C  C78  1  0.68293255  0.40364520  0.49824403  1  0  -0.112197  0  3.725358  0  0  -0.130814  0  3.98609  0  0  -0.137045  0  4.007022  0  -0.094495  0  -0.085234  -0.126902  0  3.97216  0
C  C79  1  0.18292795  0.09634682  0.00177044  1  0  -0.112223  0  3.725102  0  0  -0.13075  0  3.98586  0  0  -0.136975  0  4.006785  0  -0.094408  0  -0.085307  -0.126841  0  3.971931  0
C  C80  1  0.37465368  0.70384851  0.47510831  1  0  0.132112  0  3.694828  0  0  0.10006  0  3.942485  0  0  0.10688  0  3.961801  0  0.537063  0  0.04572  0.095586  0  3.929374  0
C  C81  1  0.87465446  0.79615447  0.02488512  1  0  0.13183  0  3.695176  0  0  0.100046  0  3.942367  0  0  0.106873  0  3.961685  0  0.537261  0  0.045682  0.095553  0  3.929266  0
C  C82  1  0.62534693  0.29617053  0.52489410  1  0  0.131915  0  3.695443  0  0  0.100167  0  3.94258  0  0  0.10699  0  3.96189  0  0.537172  0  0.045752  0.095677  0  3.92948  0
C  C83  1  0.12533184  0.20382238  0.97511963  1  0  0.131972  0  3.695683  0  0  0.100224  0  3.942855  0  0  0.107049  0  3.962164  0  0.536319  0  0.045766  0.095731  0  3.929758  0
C  C84  1  0.54103323  0.20942177  0.89698217  1  0  0.5793  0  3.679607  0  0  0.517216  0  4.038497  0  0  0.545261  0  4.01091  0  1.614557  0  0.284589  0.496985  0  4.058562  0
C  C85  1  0.04103817  0.29056127  0.60301410  1  0  0.579518  0  3.679515  0  0  0.517533  0  4.038239  0  0  0.545571  0  4.010642  0  1.614376  0  0.284753  0.497297  0  4.05831  0
C  C86  1  0.45897501  0.79055778  0.10301360  1  0  0.579319  0  3.679851  0  0  0.51748  0  4.038238  0  0  0.545413  0  4.01082  0  1.614878  0  0.284721  0.497247  0  4.058308  0
C  C87  1  0.95897388  0.70945778  0.39697401  1  0  0.581496  0  3.675587  0  0  0.517328  0  4.037944  0  0  0.545262  0  4.010522  0  1.614727  0  0.284767  0.497092  0  4.058017  0
S  S88  1  0.66666357  0.23517069  0.79992125  1  0  1.132056  0  5.818143  0  0  1.028868  0  6.356696  0  0  1.072243  0  6.337356  0  3.291865  0  0.490846  0.999056  0  6.369248  0
S  S89  1  0.16667233  0.26483569  0.70007238  1  0  1.131985  0  5.817787  0  0  1.028804  0  6.35631  0  0  1.072184  0  6.336976  0  3.291705  0  0.490965  0.998986  0  6.368863  0
S  S90  1  0.33334371  0.76482142  0.20007245  1  0  1.132751  0  5.816771  0  0  1.029206  0  6.356257  0  0  1.072595  0  6.33693  0  3.291442  0  0.491034  0.999383  0  6.368822  0
S  S91  1  0.83332541  0.73518336  0.29992928  1  0  1.133161  0  5.815484  0  0  1.02905  0  6.355956  0  0  1.07244  0  6.336628  0  3.291484  0  0.490931  0.999231  0  6.368519  0
N  N92  1  0.83021925  0.52794227  0.86966739  1  0  -0.283475  0  3.378781  0  0  -0.188993  0  3.652189  0  0  -0.209534  0  3.670979  0  -1.190138  0  -0.34703  -0.175287  0  3.639374  0
N  N93  1  0.33021847  0.97206341  0.63032984  1  0  -0.283472  0  3.378825  0  0  -0.188976  0  3.652223  0  0  -0.209516  0  3.67102  0  -1.190349  0  -0.347098  -0.17527  0  3.639407  0
N  N94  1  0.16977849  0.47205972  0.13033098  1  0  -0.283406  0  3.378704  0  0  -0.188962  0  3.652113  0  0  -0.209497  0  3.670904  0  -1.190168  0  -0.347057  -0.175258  0  3.639303  0
N  N95  1  0.66978595  0.02794577  0.36967693  1  0  -0.283236  0  3.378543  0  0  -0.188751  0  3.651886  0  0  -0.20929  0  3.670681  0  -1.190222  0  -0.346975  -0.175044  0  3.63907  0
N  N96  1  0.47744128  0.74796939  0.52305741  1  0  -0.306752  0  3.318042  0  0  -0.219442  0  3.578263  0  0  -0.239729  0  3.598586  0  -1.21599  0  -0.342216  -0.205691  0  3.564382  0
N  N97  1  0.97744873  0.75203449  0.97694431  1  0  -0.306664  0  3.317703  0  0  -0.21937  0  3.578056  0  0  -0.239666  0  3.598383  0  -1.216567  0  -0.342138  -0.205587  0  3.564146  0
N  N98  1  0.52255742  0.25204247  0.47694865  1  0  -0.306937  0  3.318103  0  0  -0.21961  0  3.578419  0  0  -0.239891  0  3.598732  0  -1.2163  0  -0.342229  -0.205834  0  3.564516  0
N  N99  1  0.02254901  0.24795224  0.02306060  1  0  -0.306858  0  3.318249  0  0  -0.219487  0  3.578473  0  0  -0.239765  0  3.598778  0  -1.215585  0  -0.342199  -0.20571  0  3.564564  0
N  N100  1  0.64725506  0.85980363  0.64987226  1  0  -0.130451  0  3.036321  0  0  -0.096468  0  3.338669  0  0  -0.100685  0  3.344763  0  -0.54661  0  -0.218294  -0.094089  0  3.334393  0
N  N101  1  0.14726668  0.64019128  0.85012480  1  0  -0.130466  0  3.03643  0  0  -0.096434  0  3.338749  0  0  -0.100648  0  3.344848  0  -0.546728  0  -0.218317  -0.094063  0  3.334459  0
N  N102  1  0.35274459  0.14018849  0.35012671  1  0  -0.130383  0  3.036391  0  0  -0.096419  0  3.3387  0  0  -0.100631  0  3.344789  0  -0.546745  0  -0.218289  -0.094041  0  3.334409  0
N  N103  1  0.85274442  0.35981161  0.14987660  1  0  -0.130431  0  3.036314  0  0  -0.09644  0  3.338608  0  0  -0.100658  0  3.3447  0  -0.546906  0  -0.218291  -0.094062  0  3.334319  0
O  O104  1  0.74385798  0.90721752  0.70900673  1  0  -0.399623  0  2.059065  0  0  -0.356609  0  2.274203  0  0  -0.376486  0  2.272079  0  -0.758248  0  -0.263175  -0.341901  0  2.275142  0
O  O105  1  0.24386007  0.59277200  0.79098649  1  0  -0.399924  0  2.058799  0  0  -0.356833  0  2.273937  0  0  -0.376745  0  2.271778  0  -0.758096  0  -0.2632  -0.342056  0  2.274971  0
O  O106  1  0.25614071  0.09277010  0.29099820  1  0  -0.399936  0  2.058834  0  0  -0.356862  0  2.273969  0  0  -0.376749  0  2.271848  0  -0.758095  0  -0.263229  -0.342101  0  2.274973  0
O  O107  1  0.75614435  0.40723089  0.20901416  1  0  -0.399793  0  2.058791  0  0  -0.356709  0  2.273865  0  0  -0.376595  0  2.271745  0  -0.757986  0  -0.263159  -0.341944  0  2.274874  0
O  O108  1  0.78391386  0.23070968  0.85857124  1  0  -0.600098  0  2.047596  0  0  -0.561818  0  2.317855  0  0  -0.580751  0  2.302935  0  -1.319531  0  -0.334626  -0.548489  0  2.327564  0
O  O109  1  0.28390926  0.26930209  0.64141345  1  0  -0.599957  0  2.047547  0  0  -0.561777  0  2.317946  0  0  -0.580662  0  2.302922  0  -1.319322  0  -0.334647  -0.548448  0  2.327654  0
O  O110  1  0.21609342  0.76928154  0.14142697  1  0  -0.59987  0  2.046761  0  0  -0.561996  0  2.318045  0  0  -0.580913  0  2.303085  0  -1.319533  0  -0.334693  -0.548669  0  2.327761  0
O  O111  1  0.71609134  0.73071337  0.35858288  1  0  -0.600064  0  2.04757  0  0  -0.561767  0  2.318041  0  0  -0.580661  0  2.303035  0  -1.319451  0  -0.334559  -0.548436  0  2.327755  0
O  O112  1  0.63241090  0.35027730  0.75891605  1  0  -0.579955  0  1.986152  0  0  -0.548288  0  2.229021  0  0  -0.567878  0  2.221247  0  -1.311038  0  -0.328013  -0.534519  0  2.233923  0
O  O113  1  0.13243205  0.14972549  0.74108806  1  0  -0.579983  0  1.985671  0  0  -0.548308  0  2.228516  0  0  -0.567899  0  2.220741  0  -1.311099  0  -0.328121  -0.534538  0  2.233417  0
O  O114  1  0.36760592  0.64972110  0.24108528  1  0  -0.579721  0  1.985333  0  0  -0.548294  0  2.228814  0  0  -0.567881  0  2.221037  0  -1.310747  0  -0.328024  -0.534522  0  2.233717  0
O  O115  1  0.86758095  0.85029356  0.25891435  1  0  -0.579693  0  1.984628  0  0  -0.548371  0  2.228472  0  0  -0.567959  0  2.220688  0  -1.311293  0  -0.328059  -0.5346  0  2.233378  0
O  O116  1  0.64955536  0.13217141  0.72983643  1  0  -0.636323  0  2.027346  0  0  -0.594372  0  2.283725  0  0  -0.612693  0  2.267181  0  -1.32798  0  -0.333144  -0.581437  0  2.294688  0
O  O117  1  0.14955362  0.36783587  0.77015571  1  0  -0.636434  0  2.027337  0  0  -0.594428  0  2.283732  0  0  -0.612765  0  2.267191  0  -1.327917  0  -0.333121  -0.581468  0  2.29469  0
O  O118  1  0.35045860  0.86782430  0.27015433  1  0  -0.636435  0  2.026531  0  0  -0.594652  0  2.283596  0  0  -0.612947  0  2.267023  0  -1.327766  0  -0.33325  -0.581697  0  2.294565  0
O  O119  1  0.85044031  0.63219125  0.22983704  1  0  -0.636341  0  2.026229  0  0  -0.594581  0  2.283463  0  0  -0.61288  0  2.266895  0  -1.32754  0  -0.33328  -0.581626  0  2.294428  0
F  F120  1  0.55586404  0.10009231  0.94065740  1  0  -0.236736  0  1.17109  0  0  -0.199872  0  1.33823  0  0  -0.209251  0  1.322094  0  -0.616773  0  -0.102603  -0.193084  0  1.349513  0
F  F121  1  0.05586803  0.39989432  0.55933969  1  0  -0.236822  0  1.170847  0  0  -0.199978  0  1.337972  0  0  -0.209357  0  1.321828  0  -0.616561  0  -0.102673  -0.193188  0  1.349256  0
F  F122  1  0.44415278  0.89989352  0.05934449  1  0  -0.236677  0  1.171042  0  0  -0.199872  0  1.338109  0  0  -0.209224  0  1.32201  0  -0.616904  0  -0.102615  -0.193083  0  1.349392  0
F  F123  1  0.94415833  0.60011575  0.44065129  1  0  -0.235687  0  1.169655  0  0  -0.199929  0  1.337657  0  0  -0.209281  0  1.321556  0  -0.616606  0  -0.102723  -0.193139  0  1.348942  0
F  F124  1  0.54832418  0.29467036  0.97189364  1  0  -0.234979  0  1.168874  0  0  -0.198176  0  1.332783  0  0  -0.20734  0  1.316467  0  -0.623006  0  -0.099318  -0.191549  0  1.344293  0
F  F125  1  0.04832149  0.20531088  0.52810712  1  0  -0.235065  0  1.16881  0  0  -0.198286  0  1.33271  0  0  -0.207453  0  1.31639  0  -0.623175  0  -0.099385  -0.191659  0  1.344222  0
F  F126  1  0.45167261  0.70532175  0.02809329  1  0  -0.235111  0  1.168831  0  0  -0.19838  0  1.332673  0  0  -0.207519  0  1.316393  0  -0.6233  0  -0.09945  -0.191754  0  1.344187  0
F  F127  1  0.95168007  0.79468931  0.47188822  1  0  -0.23384  0  1.168033  0  0  -0.198215  0  1.332941  0  0  -0.207358  0  1.316661  0  -0.623165  0  -0.099354  -0.191589  0  1.344453  0
F  F128  1  0.42189178  0.21329116  0.85771235  1  0  -0.215149  0  1.207921  0  0  -0.177127  0  1.379954  0  0  -0.187226  0  1.364404  0  -0.61207  0  -0.086523  -0.169774  0  1.390638  0
F  F129  1  0.92189828  0.28669996  0.64228556  1  0  -0.215165  0  1.208067  0  0  -0.177179  0  1.380095  0  0  -0.187275  0  1.364546  0  -0.611944  0  -0.086531  -0.169825  0  1.390778  0
F  F130  1  0.57811264  0.78667582  0.14228473  1  0  -0.21513  0  1.20813  0  0  -0.177175  0  1.380081  0  0  -0.187251  0  1.364572  0  -0.61213  0  -0.086495  -0.16982  0  1.390765  0
F  F131  1  0.07811663  0.71331998  0.35769805  1  0  -0.223995  0  1.216673  0  0  -0.177124  0  1.379902  0  0  -0.187199  0  1.36439  0  -0.612223  0  -0.086526  -0.169771  0  1.390585  0
