# generated using pymatgen
data_CuH5C2N5O4
_symmetry_space_group_name_H-M   'P 1'
_cell_length_a   6.37902803
_cell_length_b   6.86182846
_cell_length_c   7.81208750
_cell_angle_alpha   71.76143999
_cell_angle_beta   86.29853700
_cell_angle_gamma   76.43440990
_symmetry_Int_Tables_number   1
_chemical_formula_structural   CuH5C2N5O4
_chemical_formula_sum   'Cu2 H10 C4 N10 O8'
_cell_volume   315.69520044
_cell_formula_units_Z   2
loop_
 _symmetry_equiv_pos_site_id
 _symmetry_equiv_pos_as_xyz
  1  'x, y, z'
loop_
 _atom_site_type_symbol
 _atom_site_label
 _atom_site_symmetry_multiplicity
 _atom_site_fract_x
 _atom_site_fract_y
 _atom_site_fract_z
 _atom_site_occupancy
 _atom_site_pbe_bader_spin_density
 _atom_site_pbe_cm5_charge
 _atom_site_pbe_ddec_charge
 _atom_site_pbe_ddec_spin_density
 _atom_site_pbe_ddec_sum_bond_order
 _atom_site_pbe_magmom
Cu  Cu0  1  0.50000074  0.00000162  0.99999727  1  0  0.722228  0.814815  0  2.324255  0
Cu  Cu1  1  0.50000053  0.50000038  0.00000314  1  0  0.718821  0.773635  0  2.40267  0
H  H2  1  0.64346939  0.13912003  0.21153046  1  0  0.269816  0.341845  0  1.014903  0
H  H3  1  0.35652812  0.86087523  0.78846983  1  0  0.269805  0.341863  0  1.014868  0
H  H4  1  0.70859958  0.43068383  0.64415327  1  0  0.29933  0.280594  0  1.011785  0
H  H5  1  0.29140070  0.56931302  0.35584642  1  0  0.29934  0.280561  0  1.011865  0
H  H6  1  0.73072087  0.67798843  0.62260567  1  0  0.298869  0.274378  0  1.008013  0
H  H7  1  0.26928021  0.32200521  0.37739867  1  0  0.298833  0.274348  0  1.008024  0
H  H8  1  0.01621405  0.11874567  0.80588313  1  0  0.145272  0.135822  0  1.029213  0
H  H9  1  0.98380057  0.88124979  0.19410582  1  0  0.145251  0.13582  0  1.029243  0
H  H10  1  0.03739067  0.73693378  0.78244601  1  0  0.145559  0.133029  0  1.03306  0
H  H11  1  0.96259455  0.26306758  0.21756491  1  0  0.14555  0.132949  0  1.033082  0
C  C12  1  0.07608567  0.24898933  0.81834482  1  0  0.16266  0.06827  0  3.800276  0
C  C13  1  0.92392102  0.75102020  0.18164726  1  0  0.162688  0.068303  0  3.800118  0
C  C14  1  0.08813289  0.56850820  0.80594802  1  0  0.155557  0.049586  0  3.858043  0
C  C15  1  0.91186107  0.43150268  0.19405727  1  0  0.155546  0.049582  0  3.858314  0
N  N16  1  0.27127285  0.44005674  0.87883670  1  0  -0.263694  -0.162476  0  3.619574  0
N  N17  1  0.72872834  0.55994318  0.12116723  1  0  -0.26367  -0.162397  0  3.619706  0
N  N18  1  0.26468498  0.24230980  0.88556316  1  0  -0.259477  -0.154986  0  3.581037  0
N  N19  1  0.73532276  0.75768866  0.11443436  1  0  -0.25947  -0.154982  0  3.58105  0
N  N20  1  0.96303972  0.45272596  0.76602752  1  0  -0.136423  0.218712  0  3.782513  0
N  N21  1  0.03695827  0.54727401  0.23397276  1  0  -0.136444  0.218694  0  3.782304  0
N  N22  1  0.74828599  0.52698025  0.71007627  1  0  -0.484538  -0.524414  0  3.217707  0
N  N23  1  0.25171553  0.47301814  0.28992549  1  0  -0.484492  -0.524333  0  3.217721  0
N  N24  1  0.72047461  0.08331753  0.56419146  1  0  0.097998  0.70688  0  4.440992  0
N  N25  1  0.27952212  0.91668092  0.43580546  1  0  0.097989  0.706895  0  4.440784  0
O  O26  1  0.77768481  0.99852659  0.72814740  1  0  -0.190957  -0.475531  0  2.090506  0
O  O27  1  0.22231347  0.00147188  0.27184814  1  0  -0.190921  -0.475444  0  2.090363  0
O  O28  1  0.74139156  0.96955077  0.45978211  1  0  -0.194515  -0.457266  0  2.005747  0
O  O29  1  0.25860208  0.03044763  0.54021757  1  0  -0.194528  -0.457297  0  2.005636  0
O  O30  1  0.64278963  0.27901713  0.50389246  1  0  -0.17453  -0.415802  0  2.016654  0
O  O31  1  0.35721030  0.72098127  0.49610812  1  0  -0.174555  -0.415889  0  2.016675  0
O  O32  1  0.61809485  0.19498451  0.08004106  1  0  -0.591456  -0.812867  0  2.250221  0
O  O33  1  0.38190363  0.80502017  0.91995921  1  0  -0.591441  -0.812898  0  2.250247  0
