# generated using pymatgen
data_ZnH38C31(N2O)4
_symmetry_space_group_name_H-M   'P 1'
_cell_length_a   17.05805664
_cell_length_b   16.83655635
_cell_length_c   17.72282466
_cell_angle_alpha   90.31924769
_cell_angle_beta   92.70503214
_cell_angle_gamma   95.50659827
_symmetry_Int_Tables_number   1
_chemical_formula_structural   ZnH38C31(N2O)4
_chemical_formula_sum   'Zn2 H76 C62 N16 O8'
_cell_volume   5060.58029335
_cell_formula_units_Z   2
loop_
 _symmetry_equiv_pos_site_id
 _symmetry_equiv_pos_as_xyz
  1  'x, y, z'
loop_
 _atom_site_type_symbol
 _atom_site_label
 _atom_site_symmetry_multiplicity
 _atom_site_fract_x
 _atom_site_fract_y
 _atom_site_fract_z
 _atom_site_occupancy
 _atom_site_pbe_bader_charge
 _atom_site_pbe_bader_spin_density
 _atom_site_pbe_cm5_charge
 _atom_site_pbe_ddec_charge
 _atom_site_pbe_ddec_spin_density
 _atom_site_pbe_ddec_sum_bond_order
 _atom_site_pbe_magmom
Zn  Zn0  1  0.50129216  0.40925461  0.50359824  1  1.300944  0  0.683237  0.861551  0  2.309205  0
Zn  Zn1  1  0.49047841  0.58908323  0.49666594  1  1.297988  0  0.680775  0.857558  0  2.312023  0
H  H2  1  0.11198466  0.39923362  0.35096313  1  0.005852  0  0.093732  0.107335  0  1.019995  0
H  H3  1  0.91369333  0.60705029  0.51462834  1  0.021764  0  0.090898  0.103515  0  1.021713  0
H  H4  1  0.84044013  0.44382763  0.33136689  1  0.030031  0  0.094022  0.107173  0  1.016297  0
H  H5  1  0.08870080  0.52094127  0.56164173  1  0.012066  0  0.093027  0.106419  0  1.017133  0
H  H6  1  0.57580641  0.39814457  0.73779366  1  0.059005  0  0.099197  0.117769  0  1.022811  0
H  H7  1  0.49865253  0.62403232  0.27027166  1  0.085147  0  0.101321  0.124548  0  1.005075  0
H  H8  1  0.20472136  0.55148970  0.64138263  1  0.425457  0  0.307315  0.3015  0  0.945353  0
H  H9  1  0.29859306  0.55242817  0.60828337  1  0.452093  0  0.298775  0.305501  0  0.98244  0
H  H10  1  0.63115204  0.43464566  0.36756398  1  0.497117  0  0.288372  0.292813  0  1.01246  0
H  H11  1  0.70003697  0.41699814  0.30425419  1  0.422228  0  0.302456  0.296343  0  0.94845  0
H  H12  1  0.24444206  0.07259718  0.34239514  1  -0.000843  0  0.086076  0.111155  0  1.000503  0
H  H13  1  0.28203251  0.98110298  0.36646648  1  0.040273  0  0.083282  0.110206  0  1.010141  0
H  H14  1  0.20609298  0.01644776  0.41905002  1  0.047042  0  0.089552  0.117163  0  0.997855  0
H  H15  1  0.33392984  0.04337431  0.49396130  1  0.021834  0  0.087355  0.076185  0  0.983563  0
H  H16  1  0.29883951  0.13375269  0.46601138  1  0.045221  0  0.092465  0.083173  0  0.975109  0
H  H17  1  0.38898683  0.13504246  0.35345571  1  0.034612  0  0.097124  0.093074  0  0.979855  0
H  H18  1  0.42734562  0.04967659  0.38953866  1  0.030441  0  0.093486  0.091134  0  1.005967  0
H  H19  1  0.69895220  0.93525930  0.75017119  1  0.027047  0  0.086263  0.112226  0  1.001371  0
H  H20  1  0.77351091  0.94502622  0.68334989  1  0.009177  0  0.086007  0.111264  0  1.002485  0
H  H21  1  0.72949958  0.03057672  0.71343375  1  0.006598  0  0.085907  0.114489  0  1.002505  0
H  H22  1  0.67420350  0.98553454  0.58440172  1  0.012813  0  0.089262  0.07409  0  0.992914  0
H  H23  1  0.59991022  0.97653901  0.65169169  1  0.001015  0  0.090997  0.083979  0  0.983802  0
H  H24  1  0.62844095  0.83124092  0.66781107  1  0.055122  0  0.096435  0.092265  0  0.987026  0
H  H25  1  0.69296816  0.84388838  0.59434821  1  0.028529  0  0.098271  0.091243  0  0.963772  0
H  H26  1  0.35537932  0.23719305  0.39336558  1  0.447815  0  0.302856  0.299869  0  0.962019  0
H  H27  1  0.38317165  0.32666854  0.43586562  1  0.499561  0  0.29391  0.306967  0  1.022135  0
H  H28  1  0.65851783  0.72061660  0.60564446  1  0.413353  0  0.299426  0.29212  0  0.972046  0
H  H29  1  0.58256846  0.64604860  0.60527251  1  0.491934  0  0.292922  0.309847  0  1.013213  0
H  H30  1  0.73847159  0.43117619  0.62753661  1  0.041385  0  0.082869  0.113761  0  1.012702  0
H  H31  1  0.76546482  0.34659962  0.67870195  1  0.011033  0  0.076679  0.09707  0  1.012441  0
H  H32  1  0.81989741  0.38138791  0.60031754  1  0.041533  0  0.085022  0.113244  0  1.021325  0
H  H33  1  0.72969438  0.26114598  0.56051125  1  -0.018828  0  0.079093  0.051418  0  1.024382  0
H  H34  1  0.70127070  0.34616711  0.51281951  1  0.057861  0  0.091524  0.097412  0  0.998912  0
H  H35  1  0.59955932  0.36459550  0.60620723  1  0.082387  0  0.10037  0.113752  0  1.041939  0
H  H36  1  0.62415565  0.27936019  0.65524901  1  0.013001  0  0.092014  0.090456  0  0.984573  0
H  H37  1  0.23122676  0.71193969  0.34748799  1  0.00943  0  0.077791  0.095823  0  1.016969  0
H  H38  1  0.24491898  0.61520828  0.38261909  1  0.042474  0  0.085758  0.118095  0  1.008903  0
H  H39  1  0.17680818  0.67293368  0.42426627  1  0.036069  0  0.086832  0.11654  0  1.01305  0
H  H40  1  0.30082187  0.67505240  0.50601386  1  0.064266  0  0.088548  0.089949  0  1.0091  0
H  H41  1  0.28660244  0.77163106  0.47348007  1  -0.028858  0  0.078522  0.054942  0  1.00388  0
H  H42  1  0.37934445  0.74671495  0.36632151  1  0.037901  0  0.094791  0.097206  0  0.977305  0
H  H43  1  0.39461727  0.65475053  0.40745088  1  0.081559  0  0.101434  0.118986  0  1.026648  0
H  H44  1  0.67139803  0.17253007  0.61527837  1  0.444071  0  0.299658  0.295719  0  0.966071  0
H  H45  1  0.62832979  0.08034929  0.59197422  1  0.455171  0  0.282831  0.268317  0  1.044573  0
H  H46  1  0.40966104  0.94317126  0.44293489  1  0.407022  0  0.28507  0.271465  0  1.026129  0
H  H47  1  0.35317832  0.85869294  0.41547279  1  0.421306  0  0.299923  0.289772  0  0.977362  0
H  H48  1  0.81664897  0.62938422  0.60174756  1  0.398119  0  0.29824  0.287398  0  0.953075  0
H  H49  1  0.72066790  0.59929267  0.58819728  1  0.399495  0  0.296188  0.287158  0  0.963811  0
H  H50  1  0.24115632  0.39514087  0.30933161  1  0.428335  0  0.303842  0.295074  0  0.945548  0
H  H51  1  0.32439475  0.41692339  0.36462422  1  0.457465  0  0.299264  0.30043  0  0.965574  0
H  H52  1  0.03901820  0.71486073  0.27445860  1  0.039275  0  0.080739  0.103774  0  1.008218  0
H  H53  1  0.10809093  0.64681015  0.25275353  1  0.002925  0  0.082151  0.108271  0  1.012888  0
H  H54  1  0.02797809  0.66032632  0.18788305  1  0.027374  0  0.081742  0.105143  0  1.010635  0
H  H55  1  0.00232347  0.53192645  0.25962429  1  0.007721  0  0.081671  0.066981  0  0.982358  0
H  H56  1  0.93219033  0.59878693  0.27918237  1  0.021597  0  0.084547  0.073406  0  0.98597  0
H  H57  1  0.00844342  0.64252753  0.39817521  1  0.010566  0  0.086567  0.081875  0  0.983789  0
H  H58  1  0.08075333  0.57737681  0.37866521  1  0.018435  0  0.089129  0.08667  0  1.031663  0
H  H59  1  0.92741290  0.23847261  0.54505905  1  0.012517  0  0.079966  0.103182  0  1.008476  0
H  H60  1  0.84471155  0.25655296  0.48525571  1  0.008359  0  0.082732  0.111175  0  1.01879  0
H  H61  1  0.90863784  0.18515777  0.45823905  1  -0.004207  0  0.080306  0.102455  0  1.013472  0
H  H62  1  0.93427677  0.31430443  0.38692842  1  0.011092  0  0.082421  0.067581  0  0.985979  0
H  H63  1  0.01791149  0.29370773  0.44314362  1  0.007591  0  0.083108  0.07208  0  0.98989  0
H  H64  1  0.98177228  0.38612529  0.54361010  1  0.029373  0  0.086109  0.080953  0  0.987631  0
H  H65  1  0.89572929  0.40516891  0.48912440  1  0.015214  0  0.089696  0.090247  0  1.023696  0
H  H66  1  0.60844005  0.39798759  0.94419204  1  0.427506  0  0.290324  0.283625  0  0.987554  0
H  H67  1  0.61371348  0.34337238  0.86372793  1  0.429373  0  0.303295  0.298003  0  0.947077  0
H  H68  1  0.56024687  0.65843673  0.07927107  1  0.407037  0  0.289998  0.277999  0  0.978566  0
H  H69  1  0.53637960  0.70181417  0.15968729  1  0.418312  0  0.301523  0.294829  0  0.945347  0
H  H70  1  0.45276661  0.62824188  0.67661888  1  0.457927  0  0.291875  0.297572  0  0.985316  0
H  H71  1  0.42803004  0.66978692  0.75795394  1  0.405098  0  0.292847  0.27397  0  0.982748  0
H  H72  1  0.53908023  0.31358124  0.23561349  1  0.415946  0  0.292673  0.278994  0  0.963288  0
H  H73  1  0.49911467  0.34870618  0.31321281  1  0.455598  0  0.285535  0.296719  0  1.005151  0
H  H74  1  0.45436662  0.68013694  0.86758935  1  0.40391  0  0.296598  0.277405  0  0.97152  0
H  H75  1  0.47002013  0.62635675  0.94605508  1  0.458823  0  0.29013  0.285241  0  0.983353  0
H  H76  1  0.48899304  0.31795887  0.12379071  1  0.420403  0  0.295511  0.283665  0  0.966038  0
H  H77  1  0.51721673  0.37455338  0.04973591  1  0.443679  0  0.287638  0.277206  0  0.985552  0
C  C78  1  0.49137735  0.49489766  0.35281933  1  1.518011  0  0.211466  0.594122  0  4.154491  0
C  C79  1  0.50421133  0.49514879  0.64728413  1  1.54273  0  0.220974  0.619064  0  4.128046  0
C  C80  1  0.34337319  0.48192623  0.49441082  1  1.539716  0  0.216737  0.626015  0  4.141152  0
C  C81  1  0.64467724  0.52449145  0.48283206  1  1.535967  0  0.211758  0.617897  0  4.170743  0
C  C82  1  0.25669204  0.47221881  0.48134502  1  0.007666  0  -0.050524  -0.294521  0  3.907442  0
C  C83  1  0.72793985  0.52788018  0.45917440  1  0.05016  0  -0.046624  -0.269773  0  3.907259  0
C  C84  1  0.20821243  0.50509008  0.53437219  1  0.387899  0  0.102205  0.326371  0  4.112749  0
C  C85  1  0.74635600  0.48089627  0.39716609  1  0.417026  0  0.09659  0.311747  0  4.108978  0
C  C86  1  0.12602558  0.49546174  0.52136740  1  0.00017  0  -0.131632  -0.316789  0  3.993438  0
C  C87  1  0.82558426  0.48198658  0.37750940  1  -0.035447  0  -0.12677  -0.305141  0  3.991436  0
C  C88  1  0.09144136  0.45866099  0.45552600  1  0.035719  0  -0.006323  0.131919  0  4.088236  0
C  C89  1  0.88534174  0.52634817  0.42008754  1  0.001415  0  -0.011541  0.118698  0  4.091696  0
C  C90  1  0.13869002  0.42726015  0.40284317  1  -0.004073  0  -0.132746  -0.320154  0  4.00784  0
C  C91  1  0.86643474  0.57416280  0.48028102  1  -0.036861  0  -0.133134  -0.313132  0  4.007456  0
C  C92  1  0.22108177  0.43257381  0.41559767  1  0.388718  0  0.093677  0.307659  0  4.109649  0
C  C93  1  0.78817438  0.57469414  0.50052555  1  0.339455  0  0.084367  0.295012  0  4.11898  0
C  C94  1  0.00395516  0.45756937  0.44573799  1  -0.001053  0  -0.016998  -0.0034  0  3.9122  0
C  C95  1  0.97083856  0.51849179  0.41119280  1  -0.085161  0  -0.014334  0.002101  0  3.920126  0
C  C96  1  0.56541819  0.44970589  0.84824615  1  0.361462  0  0.079896  0.251675  0  4.139359  0
C  C97  1  0.51952632  0.58046030  0.15894422  1  0.394748  0  0.078148  0.243851  0  4.124515  0
C  C98  1  0.55289106  0.44531303  0.77013948  1  0.047452  0  -0.124014  -0.255459  0  4.034671  0
C  C99  1  0.50453903  0.57196930  0.23490412  1  -0.026613  0  -0.11987  -0.242234  0  4.025794  0
C  C100  1  0.51235695  0.50235548  0.73115473  1  0.023975  0  -0.033681  -0.118136  0  4.015607  0
C  C101  1  0.49961759  0.49671024  0.26967017  1  -0.002411  0  -0.039736  -0.138228  0  4.029015  0
C  C102  1  0.48136562  0.56545162  0.76917661  1  0.37263  0  0.070526  0.146221  0  4.075854  0
C  C103  1  0.50772169  0.42684815  0.22713809  1  0.400869  0  0.072482  0.153032  0  4.067752  0
C  C104  1  0.49071761  0.56867572  0.84873369  1  0.429345  0  0.085135  0.162885  0  4.057852  0
C  C105  1  0.51901994  0.43462595  0.14898790  1  0.412981  0  0.082377  0.159052  0  4.054903  0
C  C106  1  0.53256802  0.51129801  0.88795025  1  0.187291  0  -0.032832  -0.080857  0  4.115858  0
C  C107  1  0.52609183  0.51054101  0.11500662  1  0.139684  0  -0.028925  -0.070493  0  4.115472  0
C  C108  1  0.53744744  0.51352128  0.96741712  1  -0.05351  0  -0.054652  -0.105914  0  4.19128  0
C  C109  1  0.53515895  0.51518620  0.03654588  1  -0.470134  0  -0.055692  -0.106284  0  4.177615  0
C  C110  1  0.45872929  0.15440778  0.45705803  1  0.050371  0  -0.017317  -0.067878  0  3.931917  0
C  C111  1  0.57060875  0.83513427  0.56072689  1  0.032161  0  -0.010493  -0.05604  0  3.886203  0
C  C112  1  0.45565863  0.23793607  0.46052221  1  0.903214  0  0.209601  0.367229  0  4.085831  0
C  C113  1  0.55499540  0.75083063  0.55683908  1  0.916337  0  0.208735  0.369002  0  4.066358  0
C  C114  1  0.56350595  0.25370863  0.54952887  1  0.479996  0  0.110451  0.175891  0  3.921484  0
C  C115  1  0.44698185  0.75718766  0.47024188  1  0.578503  0  0.105169  0.164888  0  3.945865  0
C  C116  1  0.56799430  0.17095799  0.55175287  1  0.441191  0  0.087512  0.142801  0  4.064852  0
C  C117  1  0.45717585  0.84092457  0.47197365  1  0.303649  0  0.088428  0.144567  0  4.049008  0
C  C118  1  0.51490304  0.12054917  0.50421392  1  0.081741  0  -0.00459  0.017759  0  4.106213  0
C  C119  1  0.52090102  0.88098931  0.51724142  1  0.181196  0  -0.002585  0.018128  0  4.087078  0
C  C120  1  0.51893466  0.03686551  0.50710991  1  0.078765  0  -0.033795  -0.086716  0  4.081247  0
C  C121  1  0.52626025  0.96561352  0.51563266  1  -0.50442  0  -0.031774  -0.078814  0  4.084434  0
C  C122  1  0.40064554  0.10359662  0.40662970  1  -0.014559  0  -0.160258  -0.18221  0  3.977466  0
C  C123  1  0.32211215  0.07981652  0.44398041  1  -0.038827  0  -0.165136  -0.099171  0  3.96306  0
C  C124  1  0.26033892  0.03496632  0.39022190  1  -0.082389  0  -0.243768  -0.35251  0  3.979976  0
C  C125  1  0.63805911  0.86465517  0.61501585  1  -0.043086  0  -0.154413  -0.159761  0  3.962352  0
C  C126  1  0.65444965  0.95291087  0.63485999  1  0.022644  0  -0.16752  -0.095761  0  3.965327  0
C  C127  1  0.71764633  0.96687206  0.69890479  1  -0.034543  0  -0.243149  -0.355263  0  3.977428  0
C  C128  1  0.62137731  0.30624470  0.59856347  1  0.011302  0  -0.165025  -0.228515  0  3.938362  0
C  C129  1  0.70508931  0.31870925  0.56878254  1  -0.010518  0  -0.168149  -0.094072  0  3.950404  0
C  C130  1  0.76043524  0.37224181  0.62184269  1  -0.087493  0  -0.246659  -0.346694  0  3.969852  0
C  C131  1  0.38142228  0.71557234  0.42094534  1  -0.034417  0  -0.164136  -0.231943  0  3.942411  0
C  C132  1  0.29970676  0.71176352  0.45498845  1  -0.009127  0  -0.168792  -0.088884  0  3.950899  0
C  C133  1  0.23459339  0.67622402  0.39920035  1  -0.076866  0  -0.246596  -0.348053  0  3.962258  0
C  C134  1  0.01759547  0.58485373  0.37148347  1  0.002753  0  -0.16364  -0.190331  0  3.978978  0
C  C135  1  0.99513241  0.58972649  0.28672942  1  -0.005197  0  -0.166275  -0.082878  0  3.957346  0
C  C136  1  0.04516480  0.65648671  0.24820422  1  -0.077085  0  -0.247028  -0.35418  0  3.992685  0
C  C137  1  0.95695912  0.39092432  0.48529849  1  -0.000558  0  -0.1642  -0.190085  0  3.973524  0
C  C138  1  0.95687021  0.30934316  0.44585156  1  -0.00069  0  -0.166627  -0.084305  0  3.960234  0
C  C139  1  0.90674608  0.24363336  0.48564964  1  -0.031674  0  -0.247073  -0.352744  0  3.989457  0
N  N140  1  0.50805678  0.28589254  0.50476097  1  -1.225443  0  -0.326391  -0.349791  0  3.421784  0
N  N141  1  0.49590193  0.71344180  0.51169864  1  -1.201773  0  -0.326275  -0.353347  0  3.438305  0
N  N142  1  0.23948645  0.54723607  0.59723560  1  -1.216773  0  -0.598384  -0.628375  0  3.362143  0
N  N143  1  0.68908035  0.43104922  0.35808189  1  -1.268273  0  -0.606671  -0.632829  0  3.342819  0
N  N144  1  0.40056566  0.27367405  0.41692608  1  -1.252904  0  -0.600446  -0.650179  0  3.341724  0
N  N145  1  0.59936699  0.70589129  0.60373590  1  -1.210266  0  -0.611285  -0.664047  0  3.35593  0
N  N146  1  0.62037117  0.13830896  0.60224303  1  -1.241189  0  -0.608779  -0.618028  0  3.359306  0
N  N147  1  0.40839995  0.88488052  0.42734421  1  -1.163522  0  -0.608263  -0.617437  0  3.371549  0
N  N148  1  0.77070080  0.62045614  0.56305654  1  -1.163016  0  -0.607165  -0.628081  0  3.282542  0
N  N149  1  0.26586065  0.39875198  0.36254847  1  -1.248372  0  -0.604013  -0.621415  0  3.307608  0
N  N150  1  0.61150830  0.39809001  0.88714386  1  -1.228012  0  -0.605695  -0.625851  0  3.324115  0
N  N151  1  0.52420483  0.65477929  0.12351242  1  -1.172143  0  -0.608096  -0.625836  0  3.296216  0
N  N152  1  0.43589260  0.61850879  0.73039918  1  -1.202412  0  -0.613454  -0.610918  0  3.309298  0
N  N153  1  0.49965739  0.34929423  0.25562655  1  -1.203101  0  -0.618296  -0.626057  0  3.318055  0
N  N154  1  0.45486005  0.62472737  0.88977776  1  -1.232804  0  -0.602584  -0.602157  0  3.332511  0
N  N155  1  0.52479754  0.36562981  0.10632699  1  -1.23475  0  -0.608302  -0.610746  0  3.315855  0
O  O156  1  0.51075955  0.43242674  0.38781769  1  -1.185039  0  -0.313434  -0.561772  0  2.381897  0
O  O157  1  0.51354995  0.56017025  0.60986173  1  -1.204377  0  -0.318289  -0.584576  0  2.429308  0
O  O158  1  0.46771014  0.55558876  0.38504989  1  -1.182558  0  -0.316978  -0.549733  0  2.351826  0
O  O159  1  0.49013339  0.42621960  0.61753225  1  -1.163921  0  -0.309231  -0.528346  0  2.305458  0
O  O160  1  0.38256807  0.42293280  0.47919738  1  -1.190813  0  -0.313816  -0.566038  0  2.389451  0
O  O161  1  0.60874926  0.58707760  0.47617050  1  -1.157241  0  -0.314771  -0.540991  0  2.303075  0
O  O162  1  0.37558119  0.54893718  0.52012051  1  -1.181729  0  -0.312288  -0.546324  0  2.329312  0
O  O163  1  0.61571523  0.45782966  0.50841031  1  -1.176653  0  -0.314117  -0.552875  0  2.376027  0
