# generated using pymatgen
data_Al2H5C20S2Cl4O10F
_symmetry_space_group_name_H-M   'P 1'
_cell_length_a   6.62287519
_cell_length_b   11.18141813
_cell_length_c   12.71365558
_cell_angle_alpha   82.73530910
_cell_angle_beta   75.17406698
_cell_angle_gamma   71.50790723
_symmetry_Int_Tables_number   1
_chemical_formula_structural   Al2H5C20S2Cl4O10F
_chemical_formula_sum   'Al2 H5 C20 S2 Cl4 O10 F1'
_cell_volume   862.09481910
_cell_formula_units_Z   1
loop_
 _symmetry_equiv_pos_site_id
 _symmetry_equiv_pos_as_xyz
  1  'x, y, z'
loop_
 _atom_site_type_symbol
 _atom_site_label
 _atom_site_symmetry_multiplicity
 _atom_site_fract_x
 _atom_site_fract_y
 _atom_site_fract_z
 _atom_site_occupancy
 _atom_site_pbe_bader_charge
 _atom_site_pbe_bader_spin_density
 _atom_site_pbe_cm5_charge
 _atom_site_pbe_ddec_charge
 _atom_site_pbe_ddec_spin_density
 _atom_site_pbe_ddec_sum_bond_order
 _atom_site_pbe_magmom
Al  Al0  1  0.49913628  0.50120539  0.50068591  1  2.502738  0  0.391035  1.645797  0  2.568815  0
Al  Al1  1  0.00045738  0.49754919  0.50202977  1  2.501649  0  0.391962  1.64175  0  2.566252  0
H  H2  1  0.28992198  0.35704931  0.58422515  1  0.641693  0  0.339276  0.421412  0  0.87937  0
H  H3  1  0.70992050  0.65080536  0.43766373  1  0.627443  0  0.343845  0.420706  0  0.87748  0
H  H4  1  0.69493602  0.55789057  0.14973047  1  0.131496  0  0.112643  0.135489  0  1.005516  0
H  H5  1  0.22872238  0.23268072  0.34771255  1  0.08733  0  0.112606  0.136839  0  1.016994  0
H  H6  1  0.43779909  0.76377282  0.35176191  1  0.084444  0  0.112625  0.129071  0  1.029668  0
C  C7  1  0.86246107  0.27480564  0.49062921  1  1.651998  0  0.273242  0.662435  0  4.094491  0
C  C8  1  0.66076954  0.50035905  0.69620948  1  1.57829  0  0.255837  0.663599  0  4.150569  0
C  C9  1  0.13302008  0.72524059  0.50810905  1  1.549551  0  0.273916  0.665567  0  4.087975  0
C  C10  1  0.33314260  0.50323450  0.30578780  1  1.548479  0  0.256691  0.635849  0  4.154987  0
C  C11  1  0.41287594  0.47743349  0.88458960  1  0.57687  0  0.101276  0.253959  0  4.077232  0
C  C12  1  0.57464252  0.53376483  0.11892494  1  -0.00827  0  -0.086361  -0.124506  0  3.952456  0
C  C13  1  0.59248515  0.50551952  0.81482459  1  -0.061846  0  -0.032989  -0.247669  0  3.969536  0
C  C14  1  0.39427486  0.50535251  0.18653780  1  -0.081553  0  -0.021465  -0.125206  0  3.981015  0
C  C15  1  0.57865159  0.52508130  0.00853237  1  -0.141639  0  -0.020193  0.004327  0  4.078572  0
C  C16  1  0.40133566  0.48892670  0.99523324  1  -0.16887  0  -0.0337  -0.139168  0  4.109843  0
C  C17  1  0.93240465  0.13327247  0.49281881  1  -0.020284  0  -0.007433  -0.125121  0  3.914446  0
C  C18  1  0.13300158  0.06666809  0.42324875  1  -0.004834  0  0.001793  0.078988  0  3.966689  0
C  C19  1  0.80277085  0.06791594  0.56421721  1  0.058487  0  0.016622  0.068928  0  4.026313  0
C  C20  1  0.27193630  0.13014089  0.35081285  1  0.053842  0  -0.088459  -0.178428  0  3.917976  0
C  C21  1  0.46621278  0.06374030  0.28506394  1  0.074712  0  0.010161  0.094711  0  4.055646  0
C  C22  1  0.06048301  0.86671932  0.50143887  1  0.12565  0  -0.009993  -0.127031  0  3.91763  0
C  C23  1  0.86756921  0.93344522  0.56902089  1  0.186635  0  0.016724  0.068559  0  4.043582  0
C  C24  1  0.19603334  0.93150581  0.42660208  1  -0.020514  0  0.002037  0.082523  0  3.970084  0
C  C25  1  0.39152740  0.86600956  0.35463578  1  0.137093  0  -0.093916  -0.190309  0  3.945014  0
C  C26  1  0.52582367  0.92958406  0.28632629  1  0.043751  0  0.008997  0.093911  0  4.061565  0
S  S27  1  0.75259906  0.54542661  0.88572533  1  0.299128  0  0.099305  0.162847  0  2.811315  0
S  S28  1  0.22825054  0.46762002  0.11763936  1  0.280856  0  0.096495  0.158644  0  2.794986  0
Cl  Cl29  1  0.71065223  0.85523529  0.66319820  1  -0.163553  0  0.016059  -0.035755  0  1.586775  0
Cl  Cl30  1  0.56930901  0.14664484  0.65485375  1  -0.171146  0  0.026611  -0.033252  0  1.586829  0
Cl  Cl31  1  0.63463463  0.14417776  0.20192175  1  -0.179121  0  -0.001736  -0.061296  0  1.517026  0
Cl  Cl32  1  0.76552079  0.84464538  0.20344499  1  -0.190123  0  -0.00498  -0.065901  0  1.495531  0
O  O33  1  0.68007064  0.33214576  0.46712484  1  -1.251582  0  -0.228591  -0.578846  0  2.347046  0
O  O34  1  0.84464516  0.51979010  0.65151893  1  -1.25342  0  -0.242321  -0.592189  0  2.335568  0
O  O35  1  0.00810619  0.67003704  0.48752944  1  -1.252167  0  -0.229551  -0.59129  0  2.37265  0
O  O36  1  0.45769865  0.53199127  0.35368073  1  -1.260053  0  -0.238442  -0.584816  0  2.339246  0
O  O37  1  0.31837437  0.67184197  0.53038766  1  -1.248963  0  -0.229581  -0.575745  0  2.319078  0
O  O38  1  0.15780959  0.47448938  0.35165060  1  -1.257472  0  -0.238902  -0.58237  0  2.338459  0
O  O39  1  0.99137002  0.32604501  0.51323634  1  -1.250315  0  -0.226481  -0.57837  0  2.331851  0
O  O40  1  0.53410769  0.47515756  0.64756284  1  -1.252214  0  -0.241217  -0.603174  0  2.37107  0
O  O41  1  0.26070537  0.43959227  0.54658033  1  -1.444385  0  -0.448317  -0.98905  0  2.216837  0
O  O42  1  0.74126816  0.56056347  0.45435298  1  -1.430301  0  -0.450793  -0.987413  0  2.19783  0
F  F43  1  0.26605681  0.43951170  0.85215709  1  -0.629509  0  -0.084337  -0.109007  0  1.416141  0
