# generated using pymatgen
data_Er2CuH20C32(NO7)4
_symmetry_space_group_name_H-M   'P 1'
_cell_length_a   10.18630950
_cell_length_b   10.71750634
_cell_length_c   11.21626625
_cell_angle_alpha   86.37790913
_cell_angle_beta   75.95256352
_cell_angle_gamma   68.95136368
_symmetry_Int_Tables_number   1
_chemical_formula_structural   Er2CuH20C32(NO7)4
_chemical_formula_sum   'Er2 Cu1 H20 C32 N4 O28'
_cell_volume   1108.23181465
_cell_formula_units_Z   1
loop_
 _symmetry_equiv_pos_site_id
 _symmetry_equiv_pos_as_xyz
  1  'x, y, z'
loop_
 _atom_site_type_symbol
 _atom_site_label
 _atom_site_symmetry_multiplicity
 _atom_site_fract_x
 _atom_site_fract_y
 _atom_site_fract_z
 _atom_site_occupancy
 _atom_site_hle17_ddec_charge
 _atom_site_hle17_ddec_spin_density
 _atom_site_hle17_ddec_sum_bond_order
 _atom_site_hle17_magmom
 _atom_site_hse06_10hf_ddec_charge
 _atom_site_hse06_10hf_ddec_spin_density
 _atom_site_hse06_10hf_ddec_sum_bond_order
 _atom_site_hse06_10hf_magmom
 _atom_site_hse06_ddec_charge
 _atom_site_hse06_ddec_spin_density
 _atom_site_hse06_ddec_sum_bond_order
 _atom_site_hse06_magmom
 _atom_site_pbe_cm5_charge
 _atom_site_pbe_ddec_charge
 _atom_site_pbe_ddec_spin_density
 _atom_site_pbe_ddec_sum_bond_order
 _atom_site_pbe_magmom
Er  Er0  1  0.58743091  0.59898943  0.63141445  1  2.302858  -0.000534  1.612051  -0.001  2.242703  -0.000491  1.939638  -0.001  2.289215  -0.000375  1.897354  -0.001  1.509386  2.129988  -0.000625  2.1174  -0.001
Er  Er1  1  0.41256301  0.40099962  0.36858755  1  2.303009  -0.000537  1.611854  -0.001  2.242863  -0.000489  1.939432  -0.001  2.289373  -0.000373  1.897144  -0.001  1.509447  2.130042  -0.000625  2.117345  -0.001
Cu  Cu2  1  0.99999436  0.49999821  0.49999893  1  0.997697  -0.698375  1.679373  -0.522  0.995028  -0.787688  2.061166  -0.639  1.083583  -0.848948  1.994597  -0.721  0.746226  0.931501  -0.743954  2.118227  -0.585
H  H3  1  0.36723061  0.97962828  0.46805015  1  0.131389  5.1e-05  0.911741  0.0  0.141795  5e-06  0.967643  0.0  0.146091  1e-06  0.96385  0.0  0.122854  0.138068  5e-06  0.971635  0.0
H  H4  1  0.63277355  0.02037179  0.53195929  1  0.131336  4.4e-05  0.911796  0.0  0.14165  4e-06  0.967798  0.0  0.145999  1e-06  0.963939  0.0  0.122802  0.137948  5e-06  0.971759  0.0
H  H5  1  0.97145608  0.17277074  0.34869014  1  0.127355  -0.000225  0.944685  0.0  0.13384  -0.000183  1.010334  0.0  0.137834  -0.000123  1.006361  0.0  0.119375  0.130689  -0.000221  1.01369  0.0
H  H6  1  0.02854718  0.82723668  0.65129482  1  0.127427  -0.000232  0.944706  0.0  0.133898  -0.000183  1.010368  0.0  0.137897  -0.000124  1.006398  0.0  0.119404  0.130748  -0.000221  1.013724  0.0
H  H7  1  0.17216198  0.74314728  0.32652681  1  0.134187  -4e-06  0.949056  0.0  0.137417  -2e-06  1.018334  0.0  0.141576  -3e-06  1.014345  0.0  0.121351  0.134447  9e-06  1.02099  0.0
H  H8  1  0.82784816  0.25684442  0.67346949  1  0.134253  -7e-06  0.949001  0.0  0.13739  -2e-06  1.018327  0.0  0.141556  -3e-06  1.014327  0.0  0.121333  0.13441  9e-06  1.021012  0.0
H  H9  1  0.67260722  0.47508282  0.94767151  1  0.140031  -3e-06  0.92355  0.0  0.14595  7e-06  0.988347  0.0  0.150738  2e-06  0.983512  0.0  0.121868  0.142163  2e-06  0.992502  0.0
H  H10  1  0.32739222  0.52494114  0.05233612  1  0.139918  -2e-06  0.923728  0.0  0.145829  6e-06  0.988488  0.0  0.150613  3e-06  0.983655  0.0  0.121814  0.142033  2e-06  0.992652  0.0
H  H11  1  0.93220719  0.31063922  0.21087711  1  0.129049  2e-06  0.946821  0.0  0.133007  2e-05  1.01678  0.0  0.137584  2e-05  1.011691  0.0  0.11914  0.129427  1.5e-05  1.020965  0.0
H  H12  1  0.06779363  0.68935885  0.78913059  1  0.129169  5e-06  0.946507  0.0  0.133163  2e-05  1.01644  0.0  0.137734  2e-05  1.011362  0.0  0.119154  0.129587  1.5e-05  1.020621  0.0
H  H13  1  0.13966464  0.33786431  0.83198903  1  0.132214  -0.000293  0.929322  0.0  0.138173  -0.000272  0.99137  0.0  0.142979  -0.000192  0.986179  0.0  0.122598  0.134587  -0.000346  0.995295  0.0
H  H14  1  0.86033700  0.66215358  0.16801594  1  0.13222  -0.000292  0.929278  0.0  0.138158  -0.000273  0.991376  0.0  0.142973  -0.000192  0.986181  0.0  0.122565  0.134564  -0.000346  0.995296  0.0
H  H15  1  0.50826852  0.76816927  0.85581471  1  0.456559  1e-06  0.790707  0.0  0.435427  2e-06  0.845893  0.0  0.444264  1e-06  0.832925  0.0  0.337845  0.428645  1e-06  0.855629  0.0
H  H16  1  0.49177217  0.23188514  0.14415689  1  0.456395  -1e-06  0.790686  0.0  0.435284  2e-06  0.846038  0.0  0.44412  1e-06  0.833073  0.0  0.337757  0.428501  1e-06  0.855774  0.0
H  H17  1  0.57158487  0.83695719  0.74016682  1  0.447775  1.3e-05  0.815639  0.0  0.422171  1.4e-05  0.878223  0.0  0.431508  6e-06  0.86436  0.0  0.323714  0.415117  1.9e-05  0.888436  0.0
H  H18  1  0.42836368  0.16306187  0.25974136  1  0.447837  1.3e-05  0.815575  0.0  0.422123  1.3e-05  0.878279  0.0  0.431458  6e-06  0.86442  0.0  0.323802  0.415065  1.9e-05  0.888495  0.0
H  H19  1  0.79753393  0.56318409  0.38479674  1  0.453466  0.000303  0.82944  0.0  0.428197  0.000199  0.882449  0.0  0.438185  0.000222  0.867586  0.0  0.314906  0.420634  0.00016  0.893548  0.0
H  H20  1  0.20245437  0.43681208  0.61520862  1  0.453625  0.000304  0.829257  0.0  0.428343  0.000199  0.882312  0.0  0.438335  0.000221  0.867434  0.0  0.314936  0.420776  0.00016  0.893421  0.0
H  H21  1  0.71731672  0.46013527  0.38702895  1  0.457678  -3.2e-05  0.835384  0.0  0.429333  -1.2e-05  0.893604  0.0  0.440658  -1.4e-05  0.877169  0.0  0.306385  0.420836  -1e-05  0.905664  0.0
H  H22  1  0.28267786  0.53985472  0.61297104  1  0.457714  -3.3e-05  0.835357  0.0  0.429476  -1.3e-05  0.893438  0.0  0.440798  -1.4e-05  0.877005  0.0  0.30643  0.42097  -1e-05  0.905515  0.0
C  C23  1  0.28071047  0.84902048  0.40032859  1  -0.055674  -0.000683  3.6981  -0.001  -0.028674  -0.000297  3.930707  0.0  -0.040049  -0.000209  3.954243  0.0  -0.003864  -0.022318  -0.000501  3.91724  -0.001
C  C24  1  0.71929209  0.15097546  0.59967443  1  -0.055692  -0.000763  3.69792  -0.001  -0.028843  -0.000292  3.930552  0.0  -0.040203  -0.000215  3.954071  0.0  -0.00391  -0.022564  -0.000501  3.917192  -0.001
C  C25  1  0.28178601  0.97458038  0.42806316  1  -0.033385  -0.000411  3.622141  -0.001  -0.078796  -0.000746  3.87296  -0.001  -0.073837  -0.000349  3.890194  -0.001  -0.058319  -0.082015  -0.001098  3.863095  -0.001
C  C26  1  0.71822996  0.02540927  0.57193376  1  -0.033279  -0.000291  3.622232  -0.001  -0.078503  -0.000756  3.873084  -0.001  -0.073591  -0.000342  3.8903  -0.001  -0.058214  -0.081717  -0.001097  3.86323  -0.001
C  C27  1  0.17162713  0.09140477  0.40822975  1  -0.057571  -0.00836  3.73475  -0.009  -0.032432  -0.004696  3.974597  -0.005  -0.043528  -0.003372  3.996993  -0.004  -0.011459  -0.02567  -0.005811  3.960361  -0.007
C  C28  1  0.82838346  0.90858283  0.59176233  1  -0.057497  -0.008432  3.734539  -0.009  -0.032502  -0.004689  3.97465  -0.005  -0.04361  -0.003375  3.997085  -0.004  -0.011407  -0.02574  -0.005812  3.960423  -0.007
C  C29  1  0.06055530  0.08309823  0.36013329  1  -0.076341  0.000912  3.698315  0.001  -0.119697  4.7e-05  3.958397  0.0  -0.114761  0.000212  3.975268  0.0  -0.065675  -0.122476  -0.0  3.946977  0.0
C  C30  1  0.93944560  0.91689688  0.63987554  1  -0.076412  0.001032  3.698394  0.001  -0.119711  3.7e-05  3.958581  0.0  -0.114786  0.000225  3.975466  0.0  -0.065705  -0.122489  1e-06  3.947161  0.0
C  C31  1  0.06479174  0.95845104  0.32844529  1  0.054641  -6.4e-05  3.720226  0.0  0.05226  -3.7e-05  3.978623  0.0  0.046417  -2e-05  4.002507  0.0  0.07451  0.055889  2.9e-05  3.962383  0.0
C  C32  1  0.93522581  0.04154243  0.67154559  1  0.054525  -0.000154  3.720719  0.0  0.052024  -2.5e-05  3.979174  0.0  0.046182  -5.4e-05  4.003058  0.0  0.074457  0.055663  2.9e-05  3.962923  0.0
C  C33  1  0.17260769  0.84028814  0.34837935  1  -0.064773  0.000158  3.644192  0.0  -0.1039  -0.000134  3.895598  0.0  -0.098688  4.1e-05  3.911599  0.0  -0.059518  -0.107064  -0.000235  3.885323  0.0
C  C34  1  0.82741949  0.15970111  0.65160701  1  -0.064774  0.000247  3.644173  0.0  -0.103656  -0.00014  3.895484  0.0  -0.098446  4.9e-05  3.911467  0.0  -0.059364  -0.106798  -0.000234  3.88522  0.0
C  C35  1  0.39076030  0.72382220  0.43392276  1  0.743506  -0.000125  3.83242  0.0  0.699736  -8.4e-05  4.119199  0.0  0.736025  -3.9e-05  4.107472  0.0  0.244326  0.673979  -0.00013  4.122409  0.0
C  C36  1  0.60923375  0.27617491  0.56608300  1  0.743646  -0.000122  3.831891  0.0  0.699977  -8.4e-05  4.118537  0.0  0.736259  -3.7e-05  4.106805  0.0  0.244404  0.674242  -0.00013  4.121752  0.0
C  C37  1  0.16721120  0.22828691  0.43583265  1  0.688909  0.007113  3.863468  0.007  0.642424  0.0016  4.166176  0.002  0.681895  0.00198  4.155485  0.002  0.224874  0.615176  0.001189  4.169999  0.002
C  C38  1  0.83278301  0.77170376  0.56415488  1  0.68881  0.007122  3.862913  0.007  0.64218  0.001603  4.16593  0.002  0.681646  0.001983  4.155271  0.002  0.224685  0.614933  0.001191  4.169754  0.002
C  C39  1  0.90477518  0.41470274  0.87666520  1  -0.074859  -0.007441  3.728728  -0.008  -0.050426  -0.004669  3.968626  -0.005  -0.063821  -0.003482  3.993194  -0.004  -0.013204  -0.042168  -0.005595  3.953307  -0.006
C  C40  1  0.09522459  0.58530959  0.12335493  1  -0.074916  -0.007429  3.72856  -0.008  -0.050427  -0.004677  3.968346  -0.005  -0.063846  -0.003477  3.992934  -0.004  -0.013083  -0.042163  -0.005596  3.953014  -0.006
C  C41  1  0.77879710  0.43222235  0.96891793  1  -0.016144  0.001334  3.584322  0.0  -0.060114  2.7e-05  3.831981  0.0  -0.053937  0.000315  3.848681  0.0  -0.050667  -0.063891  -0.00015  3.821775  -0.001
C  C42  1  0.22120067  0.56780081  0.03109640  1  -0.016117  0.00131  3.58419  0.0  -0.060004  4.1e-05  3.831758  0.0  -0.053807  0.000309  3.848458  0.0  -0.050746  -0.063782  -0.00015  3.82155  -0.001
C  C43  1  0.78850249  0.39430257  0.08940526  1  -0.047135  -0.001132  3.703634  -0.001  -0.019405  -0.000382  3.938517  0.0  -0.031303  -0.000349  3.962429  0.0  -0.005795  -0.012653  -0.000496  3.92356  -0.001
C  C44  1  0.21151104  0.60570211  0.91059453  1  -0.047049  -0.00112  3.70338  -0.001  -0.019345  -0.000388  3.938328  0.0  -0.03126  -0.000344  3.962241  0.0  -0.005743  -0.012578  -0.000496  3.923346  -0.001
C  C45  1  0.92385498  0.33872655  0.11755090  1  -0.054956  0.002129  3.643901  0.001  -0.098379  0.000686  3.901862  0.0  -0.092261  0.000758  3.917423  0.0  -0.056615  -0.102065  0.000664  3.892177  0.0
C  C46  1  0.07615057  0.66127257  0.88246099  1  -0.055072  0.002119  3.643756  0.001  -0.098601  0.000688  3.901875  0.0  -0.092479  0.000756  3.917442  0.0  -0.056692  -0.102281  0.000664  3.892191  0.0
C  C47  1  0.04787943  0.31910651  0.02328891  1  0.049734  -0.000564  3.7069  -0.001  0.048969  -7.4e-05  3.963326  0.0  0.042001  -0.000103  3.987545  0.0  0.075625  0.053197  -3.6e-05  3.946987  0.0
C  C48  1  0.95211728  0.68090565  0.97672301  1  0.049646  -0.000581  3.706804  -0.001  0.048919  -6.7e-05  3.963255  0.0  0.041953  -0.000116  3.98747  0.0  0.0756  0.053118  -3.6e-05  3.946951  0.0
C  C49  1  0.04088727  0.35567546  0.90332419  1  -0.057095  0.001974  3.682496  0.001  -0.10001  0.000302  3.942108  0.0  -0.093257  0.000488  3.957182  0.0  -0.058284  -0.103919  0.000186  3.931865  0.0
C  C50  1  0.95910733  0.64433965  0.09668529  1  -0.056984  0.00196  3.682419  0.001  -0.099939  0.000307  3.942034  0.0  -0.093196  0.000481  3.957129  0.0  -0.05829  -0.10383  0.000187  3.931786  0.0
C  C51  1  0.89516350  0.45879317  0.74887420  1  0.712891  0.006764  3.846122  0.007  0.662233  0.00217  4.149609  0.003  0.701085  0.002642  4.138977  0.003  0.232179  0.635285  0.001632  4.154043  0.003
C  C52  1  0.10483724  0.54120815  0.25114395  1  0.712924  0.006761  3.846442  0.007  0.662218  0.002176  4.149975  0.003  0.70108  0.002634  4.139337  0.003  0.232209  0.635267  0.001634  4.154414  0.003
C  C53  1  0.65382817  0.40905673  0.18708735  1  0.655405  -9e-05  3.907607  0.0  0.608047  -6.7e-05  4.200263  0.0  0.64217  -3.3e-05  4.193945  0.0  0.204386  0.585922  -0.00011  4.195945  0.0
C  C54  1  0.34618779  0.59093276  0.81290334  1  0.655191  -8.5e-05  3.907774  0.0  0.607844  -6.8e-05  4.200466  0.0  0.641975  -3.2e-05  4.194141  0.0  0.204228  0.585716  -0.00011  4.196154  0.0
N  N55  1  0.94880915  0.95356061  0.27414870  1  0.496312  -1.5e-05  3.915235  0.0  0.526902  2.3e-05  4.211771  0.0  0.547343  5e-06  4.221456  0.0  0.058198  0.513103  6e-06  4.205395  0.0
N  N56  1  0.05119602  0.04643890  0.72583916  1  0.496552  -1e-05  3.915314  0.0  0.527184  1.6e-05  4.211824  0.0  0.547627  1.4e-05  4.221504  0.0  0.05823  0.513379  6e-06  4.205455  0.0
N  N57  1  0.19140788  0.26024362  0.05114472  1  0.50022  5.2e-05  3.907839  0.0  0.528917  7e-06  4.204799  0.0  0.549581  2.1e-05  4.215118  0.0  0.058703  0.515111  -2e-06  4.197831  0.0
N  N58  1  0.80857742  0.73976380  0.94887109  1  0.50022  9.6e-05  3.907707  0.0  0.52891  -3e-06  4.204669  0.0  0.549573  3.8e-05  4.21498  0.0  0.058829  0.515115  -2e-06  4.197703  0.0
O  O59  1  0.40002854  0.61155530  0.39455122  1  -0.758331  -0.000415  2.06766  -0.001  -0.720218  -0.000137  2.3274  0.0  -0.746601  -8.3e-05  2.314299  0.0  -0.406672  -0.687832  -0.000206  2.337685  0.0
O  O60  1  0.59996661  0.38843892  0.60545899  1  -0.758504  -0.000415  2.067637  -0.001  -0.720425  -0.000138  2.327344  0.0  -0.746802  -8.5e-05  2.314239  0.0  -0.406771  -0.688055  -0.000206  2.33762  0.0
O  O61  1  0.46539228  0.73920571  0.50334782  1  -0.715834  -9.2e-05  2.033962  0.0  -0.680557  -3.2e-05  2.279943  0.0  -0.705838  -4.1e-05  2.267079  0.0  -0.398005  -0.651256  -8.9e-05  2.291503  0.0
O  O62  1  0.53461940  0.26077887  0.49664336  1  -0.715902  -9e-05  2.033702  0.0  -0.680645  -3e-05  2.279625  0.0  -0.705934  -4.1e-05  2.266775  0.0  -0.398086  -0.651324  -8.9e-05  2.291186  0.0
O  O63  1  0.28406516  0.24763211  0.42972154  1  -0.718939  0.001436  2.03626  0.0  -0.679877  0.001146  2.286796  0.0  -0.706268  0.001715  2.273922  0.001  -0.36333  -0.651037  0.000588  2.296867  -0.001
O  O64  1  0.71590828  0.75237405  0.57027836  1  -0.718783  0.001426  2.035859  0.0  -0.679658  0.001148  2.286463  0.0  -0.70605  0.00171  2.273604  0.001  -0.36318  -0.650835  0.000587  2.296532  -0.001
O  O65  1  0.03964743  0.31634034  0.46098604  1  -0.581767  -0.081469  2.101803  -0.112  -0.558903  -0.050782  2.394674  -0.076  -0.60087  -0.038515  2.384468  -0.063  -0.313683  -0.529418  -0.059056  2.401079  -0.084
O  O66  1  0.96035012  0.68365289  0.53902548  1  -0.581839  -0.081451  2.101807  -0.112  -0.558842  -0.05078  2.394704  -0.076  -0.600758  -0.038513  2.384397  -0.063  -0.313638  -0.529357  -0.059049  2.401109  -0.084
O  O67  1  0.87596484  0.05790158  0.23167872  1  -0.340395  0.000116  1.721658  0.0  -0.329913  3.9e-05  1.917125  0.0  -0.340983  4.4e-05  1.913774  0.0  -0.12658  -0.322866  2.2e-05  1.920177  0.0
O  O68  1  0.12403980  0.94210498  0.76831224  1  -0.340535  0.000103  1.721769  0.0  -0.330023  4.6e-05  1.917184  0.0  -0.341096  6.7e-05  1.91383  0.0  -0.126627  -0.322974  2.2e-05  1.92024  0.0
O  O69  1  0.93075442  0.84492149  0.27460702  1  -0.356829  -3.2e-05  1.778939  0.0  -0.340074  5.4e-05  1.987901  0.0  -0.353645  3.9e-05  1.985735  0.0  -0.127483  -0.33128  6.3e-05  1.989809  0.0
O  O70  1  0.06924538  0.15507669  0.72540447  1  -0.35691  -1.5e-05  1.778849  0.0  -0.340192  4.8e-05  1.987807  0.0  -0.35376  4.4e-05  1.985635  0.0  -0.127545  -0.33139  6.3e-05  1.989723  0.0
O  O71  1  0.01370276  0.44881970  0.67148169  1  -0.603847  -0.073989  2.111147  -0.102  -0.560429  -0.052279  2.378732  -0.079  -0.60133  -0.040244  2.369371  -0.066  -0.303377  -0.532968  -0.060033  2.385926  -0.086
O  O72  1  0.98628904  0.55117242  0.32852232  1  -0.60391  -0.073987  2.111329  -0.102  -0.560476  -0.052282  2.378929  -0.079  -0.601391  -0.040248  2.369589  -0.066  -0.303444  -0.532992  -0.060034  2.386056  -0.086
O  O73  1  0.77284896  0.50284180  0.72314380  1  -0.765365  0.00183  2.119098  0.0  -0.738974  0.001521  2.402253  0.0  -0.764311  0.002074  2.386648  0.0  -0.40236  -0.70727  0.000962  2.415533  -0.001
O  O74  1  0.22716286  0.49715077  0.27684847  1  -0.765297  0.001831  2.119092  0.0  -0.738937  0.001519  2.402338  0.0  -0.764237  0.002077  2.386651  0.0  -0.402382  -0.707217  0.000961  2.415621  -0.001
O  O75  1  0.53263199  0.44384592  0.15925834  1  -0.660479  -5.8e-05  1.950666  0.0  -0.623978  -1.1e-05  2.18082  0.0  -0.648098  -8e-06  2.171086  0.0  -0.351901  -0.599783  -1.3e-05  2.187366  0.0
O  O76  1  0.46737832  0.55614038  0.84076066  1  -0.660321  -6.1e-05  1.95027  0.0  -0.623815  -6e-06  2.18039  0.0  -0.64793  -7e-06  2.170663  0.0  -0.351822  -0.59963  -1.3e-05  2.186932  0.0
O  O77  1  0.66380967  0.38075294  0.29868905  1  -0.716674  -0.000233  2.044063  0.0  -0.66695  -0.000109  2.275698  0.0  -0.693835  -8e-05  2.266166  0.0  -0.365896  -0.639787  -0.000146  2.281473  0.0
O  O78  1  0.33617989  0.61923411  0.70131055  1  -0.716565  -0.000232  2.044334  0.0  -0.666881  -0.00011  2.275953  0.0  -0.693783  -8.3e-05  2.266454  0.0  -0.365794  -0.639728  -0.000146  2.281729  0.0
O  O79  1  0.19558118  0.23707322  0.16054807  1  -0.371694  0.0  1.783591  0.0  -0.350884  3e-05  1.996359  0.0  -0.365366  -8e-06  1.994641  0.0  -0.12427  -0.341363  3.9e-05  1.997806  0.0
O  O80  1  0.80442054  0.76291703  0.83946544  1  -0.371675  -1.4e-05  1.783499  0.0  -0.350874  3.3e-05  1.996284  0.0  -0.36535  1e-06  1.994563  0.0  -0.124319  -0.341359  3.9e-05  1.997727  0.0
O  O81  1  0.30042663  0.23857561  0.96536418  1  -0.349544  -5.9e-05  1.694346  0.0  -0.336914  2.4e-05  1.878446  0.0  -0.347451  2.6e-05  1.874866  0.0  -0.132073  -0.329887  2.5e-05  1.881237  0.0
O  O82  1  0.69956861  0.76141610  0.03466494  1  -0.349483  -5.7e-05  1.694392  0.0  -0.336808  2.1e-05  1.878446  0.0  -0.34734  2.6e-05  1.874857  0.0  -0.132053  -0.329779  2.5e-05  1.881231  0.0
O  O83  1  0.50575494  0.78833237  0.77035043  1  -0.876143  4.5e-05  1.847686  0.0  -0.841995  5.3e-05  2.020651  0.0  -0.858366  4.2e-05  1.990565  0.0  -0.611164  -0.82028  5.8e-05  2.048826  0.0
O  O84  1  0.49422134  0.21166830  0.22963055  1  -0.876013  4.8e-05  1.847495  0.0  -0.841756  5.3e-05  2.020805  0.0  -0.858125  3.9e-05  1.990719  0.0  -0.611148  -0.820027  5.7e-05  2.048995  0.0
O  O85  1  0.73785880  0.51933400  0.43991529  1  -0.959361  0.001228  1.924538  0.0  -0.933617  0.001365  2.132614  0.0  -0.950662  0.001452  2.095181  0.0  -0.655133  -0.908809  0.001208  2.163472  0.0
O  O86  1  0.26213411  0.48065507  0.56008695  1  -0.959628  0.001227  1.924404  0.0  -0.933987  0.001363  2.132238  0.0  -0.95104  0.001452  2.094838  0.0  -0.655244  -0.909156  0.001208  2.163114  0.0
