# generated using pymatgen
data_CoH17C18(NO)4
_symmetry_space_group_name_H-M   'P 1'
_cell_length_a   11.40628911
_cell_length_b   12.46533720
_cell_length_c   13.70205693
_cell_angle_alpha   89.99963636
_cell_angle_beta   89.99899499
_cell_angle_gamma   100.19912649
_symmetry_Int_Tables_number   1
_chemical_formula_structural   CoH17C18(NO)4
_chemical_formula_sum   'Co4 H68 C72 N16 O16'
_cell_volume   1917.41794530
_cell_formula_units_Z   4
loop_
 _symmetry_equiv_pos_site_id
 _symmetry_equiv_pos_as_xyz
  1  'x, y, z'
loop_
 _atom_site_type_symbol
 _atom_site_label
 _atom_site_symmetry_multiplicity
 _atom_site_fract_x
 _atom_site_fract_y
 _atom_site_fract_z
 _atom_site_occupancy
 _atom_site_pbe_bader_charge
 _atom_site_pbe_bader_spin_density
 _atom_site_pbe_cm5_charge
 _atom_site_pbe_ddec_charge
 _atom_site_pbe_ddec_spin_density
 _atom_site_pbe_ddec_sum_bond_order
 _atom_site_pbe_magmom
Co  Co0  1  0.10964499  0.34274872  0.23893822  1  1.197501  2.559504  0.67137  0.807776  2.776869  2.553767  2.498
Co  Co1  1  0.89036435  0.15725191  0.73894187  1  1.197398  2.559507  0.671333  0.80774  2.776884  2.553708  2.498
Co  Co2  1  0.89035613  0.65724970  0.76106116  1  1.197383  2.559511  0.671309  0.80772  2.776876  2.553786  2.498
Co  Co3  1  0.10963792  0.84274816  0.26105825  1  1.197507  2.559507  0.67136  0.807797  2.776884  2.553682  2.498
H  H4  1  0.15155932  0.34062339  0.00392576  1  0.140679  0.000597  0.143112  0.112787  6.8e-05  0.973197  0.0
H  H5  1  0.84844849  0.15938036  0.50393366  1  0.140676  0.000597  0.143103  0.11275  6.8e-05  0.97324  0.0
H  H6  1  0.84843435  0.65938296  0.99607874  1  0.141081  0.000597  0.143117  0.112784  6.8e-05  0.973188  0.0
H  H7  1  0.15155663  0.84061571  0.49607740  1  0.140605  0.000597  0.143092  0.112748  6.8e-05  0.973175  0.0
H  H8  1  0.10804778  0.59529011  0.19685476  1  0.156542  0.001164  0.118088  0.116222  0.00026  1.056681  0.001
H  H9  1  0.89195641  0.90470782  0.69685984  1  0.156482  0.001164  0.118077  0.116205  0.00026  1.056695  0.001
H  H10  1  0.89195585  0.40471811  0.80314536  1  0.156458  0.001164  0.118065  0.116184  0.00026  1.056629  0.001
H  H11  1  0.10804451  0.09528410  0.30314392  1  0.156436  0.001164  0.118056  0.116153  0.00026  1.056632  0.001
H  H12  1  0.14279292  0.67812308  0.00658793  1  0.167678  0.000879  0.12642  0.133099  0.000348  1.013556  0.0
H  H13  1  0.85720126  0.82187489  0.50658964  1  0.167993  0.000879  0.126413  0.133102  0.000348  1.013568  0.0
H  H14  1  0.85720813  0.32188020  0.99341364  1  0.167712  0.000879  0.126419  0.133077  0.000348  1.013614  0.0
H  H15  1  0.14279139  0.17812008  0.49341120  1  0.167746  0.000879  0.12641  0.13312  0.000348  1.013523  0.0
H  H16  1  0.15734694  0.59398539  0.84440389  1  0.169775  0.000411  0.119667  0.129414  0.00025  1.009102  0.0
H  H17  1  0.84265158  0.90600768  0.34441896  1  0.169545  0.000411  0.119624  0.129425  0.00025  1.009142  0.0
H  H18  1  0.84264037  0.40600377  0.15559039  1  0.169806  0.000411  0.119668  0.129334  0.00025  1.009151  0.0
H  H19  1  0.15735090  0.09398833  0.65558772  1  0.169893  0.000411  0.119645  0.129347  0.00025  1.009239  0.0
H  H20  1  0.12938383  0.44900922  0.83445565  1  0.080942  2.4e-05  0.115952  0.106459  -0.000105  0.977799  0.0
H  H21  1  0.87061466  0.05098045  0.33445561  1  0.081009  2.4e-05  0.115894  0.106358  -0.000105  0.97803  0.0
H  H22  1  0.87061073  0.55097605  0.16555249  1  0.081258  2.4e-05  0.115916  0.106368  -0.000105  0.978005  0.0
H  H23  1  0.12938883  0.94901640  0.66554888  1  0.081107  2.4e-05  0.115952  0.106417  -0.000105  0.977946  0.0
H  H24  1  0.37066309  0.64615276  0.96397764  1  0.070854  2.4e-05  0.097372  0.094442  -1e-05  1.030135  0.0
H  H25  1  0.62932957  0.85384141  0.46399325  1  0.071605  2.4e-05  0.09739  0.094471  -1e-05  1.030053  0.0
H  H26  1  0.62932441  0.35385345  0.03601080  1  0.071675  2.4e-05  0.097365  0.094399  -1e-05  1.03013  0.0
H  H27  1  0.37066261  0.14615598  0.53600541  1  0.071858  2.4e-05  0.097353  0.09446  -1e-05  1.03012  0.0
H  H28  1  0.58522403  0.63678992  0.94784784  1  0.063992  -2.8e-05  0.096419  0.087243  -5.9e-05  1.009376  0.0
H  H29  1  0.41477171  0.86321016  0.44785635  1  0.064066  -2.8e-05  0.096407  0.087123  -5.9e-05  1.009536  0.0
H  H30  1  0.41476367  0.36322278  0.05214497  1  0.064049  -2.8e-05  0.09641  0.087208  -5.9e-05  1.009406  0.0
H  H31  1  0.58522535  0.13679546  0.55213354  1  0.064735  -2.8e-05  0.096384  0.087044  -5.9e-05  1.009537  0.0
H  H32  1  0.65127435  0.50574042  0.83261103  1  0.097573  2.1e-05  0.100484  0.10166  -0.000187  1.042686  0.0
H  H33  1  0.34872897  0.99425369  0.33261099  1  0.097656  2.1e-05  0.100511  0.101636  -0.000187  1.042718  0.0
H  H34  1  0.34872297  0.49426683  0.16739274  1  0.097517  2.1e-05  0.100477  0.101745  -0.000186  1.042698  0.0
H  H35  1  0.65127750  0.00575053  0.66737526  1  0.09796  2.1e-05  0.100485  0.101692  -0.000187  1.04268  0.0
H  H36  1  0.28627174  0.38726239  0.75220863  1  0.103229  4.9e-05  0.097731  0.113248  -5e-06  1.052239  0.0
H  H37  1  0.71373953  0.11273571  0.25222587  1  0.103306  4.9e-05  0.09772  0.113235  -5e-06  1.052243  0.0
H  H38  1  0.71373073  0.61273362  0.24778419  1  0.103268  4.9e-05  0.097684  0.113204  -5e-06  1.052269  0.0
H  H39  1  0.28627053  0.88726373  0.74777790  1  0.103329  4.9e-05  0.097667  0.11316  -5e-06  1.052166  0.0
H  H40  1  0.43371986  0.31168977  0.67737885  1  0.068293  0.000204  0.114468  0.104417  7.5e-05  0.976878  0.0
H  H41  1  0.56629725  0.18830759  0.17738761  1  0.068799  0.000204  0.114471  0.104403  7.5e-05  0.97691  0.0
H  H42  1  0.56628140  0.68830946  0.32262054  1  0.06827  0.000204  0.11447  0.104412  7.5e-05  0.976905  0.0
H  H43  1  0.43371111  0.81169749  0.82261178  1  0.068244  0.000204  0.11446  0.104389  7.5e-05  0.976954  0.0
H  H44  1  0.56620031  0.40758297  0.65332791  1  0.087598  9.2e-05  0.122548  0.11514  -2.1e-05  0.961203  0.0
H  H45  1  0.43382176  0.09241476  0.15333627  1  0.088135  9.2e-05  0.122595  0.115244  -2.1e-05  0.961103  0.0
H  H46  1  0.43380440  0.59242121  0.34667147  1  0.087668  9.2e-05  0.122584  0.115174  -2.1e-05  0.96122  0.0
H  H47  1  0.56619060  0.90758798  0.84665873  1  0.088091  9.2e-05  0.122577  0.115197  -2.1e-05  0.961209  0.0
H  H48  1  0.74096934  0.32804845  0.66323924  1  0.204311  0.00058  0.134151  0.114041  4.2e-05  1.052572  0.0
H  H49  1  0.25904431  0.17194735  0.16324314  1  0.204449  0.00058  0.134171  0.114075  4.2e-05  1.052594  0.0
H  H50  1  0.25903070  0.67195399  0.33675723  1  0.204764  0.00058  0.134189  0.114122  4.2e-05  1.052591  0.0
H  H51  1  0.74096257  0.82804876  0.83675478  1  0.204434  0.00058  0.134187  0.114146  4.2e-05  1.052556  0.0
H  H52  1  0.66601457  0.10536599  0.89680830  1  0.116321  0.000865  0.118395  0.119737  0.00018  1.015106  0.001
H  H53  1  0.33398838  0.39463209  0.39680979  1  0.116257  0.000865  0.118431  0.119783  0.00018  1.01508  0.001
H  H54  1  0.33399217  0.89462931  0.10317941  1  0.11642  0.000866  0.118496  0.119807  0.00018  1.015013  0.001
H  H55  1  0.66601619  0.60537128  0.60318522  1  0.11632  0.000865  0.11845  0.119782  0.00018  1.015065  0.001
H  H56  1  0.47473865  0.21683782  0.87259039  1  0.117018  0.000972  0.127911  0.131303  0.0004  0.983089  0.0
H  H57  1  0.52526594  0.28315648  0.37259409  1  0.116912  0.000972  0.127947  0.131357  0.0004  0.982951  0.0
H  H58  1  0.52526491  0.78315416  0.12740534  1  0.116991  0.000972  0.127933  0.131351  0.0004  0.982829  0.0
H  H59  1  0.47473761  0.71684605  0.62740311  1  0.117094  0.000972  0.127901  0.131292  0.0004  0.982862  0.0
H  H60  1  0.07915238  0.61094951  0.48396948  1  0.046483  0.001933  0.099768  0.08872  0.000628  0.971581  0.001
H  H61  1  0.92084172  0.88905586  0.98397934  1  0.047317  0.001932  0.099735  0.088626  0.000628  0.971622  0.001
H  H62  1  0.92084840  0.38905215  0.51603209  1  0.046527  0.001933  0.09977  0.088708  0.000628  0.971637  0.001
H  H63  1  0.07914917  0.11094962  0.01602807  1  0.046479  0.001933  0.099782  0.088729  0.000628  0.971604  0.001
H  H64  1  0.85645752  0.51087457  0.36904333  1  0.064704  0.000555  0.104395  0.131033  0.000115  0.974338  0.0
H  H65  1  0.14353400  0.98911646  0.86903563  1  0.064895  0.000555  0.104405  0.131052  0.000115  0.974336  0.0
H  H66  1  0.14354306  0.48912059  0.63096116  1  0.064654  0.000555  0.104409  0.131034  0.000115  0.97432  0.0
H  H67  1  0.85645825  0.01087606  0.13096959  1  0.064887  0.000555  0.104376  0.130984  0.000115  0.974344  0.0
H  H68  1  0.84361456  0.59115411  0.47265756  1  0.058141  0.001663  0.09771  0.116496  0.000537  1.006964  0.001
H  H69  1  0.15638163  0.90884654  0.97265744  1  0.058203  0.001663  0.097708  0.116513  0.000537  1.006939  0.001
H  H70  1  0.15638873  0.40884679  0.52734182  1  0.057695  0.001663  0.097716  0.116503  0.000537  1.006964  0.001
H  H71  1  0.84361414  0.09115661  0.02735362  1  0.057795  0.001664  0.09774  0.116523  0.000537  1.007017  0.001
C  C72  1  0.14460727  0.42045994  0.03236656  1  0.938943  0.002231  0.141864  0.084357  0.001405  3.918655  0.002
C  C73  1  0.85539683  0.07954100  0.53237337  1  0.938982  0.002229  0.141922  0.084416  0.001404  3.918474  0.002
C  C74  1  0.85538789  0.57954482  0.96763428  1  0.938389  0.00223  0.14191  0.08439  0.001403  3.918495  0.002
C  C75  1  0.14460551  0.92045419  0.46763332  1  0.938845  0.002229  0.141902  0.08445  0.001403  3.918463  0.002
C  C76  1  0.12322868  0.55506180  0.12907589  1  0.379832  0.001954  -0.004535  -0.039608  0.001144  3.988816  0.002
C  C77  1  0.87677496  0.94494004  0.62908023  1  0.380037  0.001952  -0.004539  -0.039687  0.001144  3.989082  0.002
C  C78  1  0.87677379  0.44494476  0.87092568  1  0.379301  0.001953  -0.004524  -0.039559  0.001144  3.988737  0.002
C  C79  1  0.12322197  0.05505422  0.37092499  1  0.379319  0.001955  -0.004535  -0.039565  0.001144  3.98899  0.002
C  C80  1  0.13928440  0.59700168  0.03629469  1  0.276826  0.003881  0.005951  -0.097007  0.001974  3.900799  0.003
C  C81  1  0.86071689  0.90299535  0.53629952  1  0.276538  0.003882  0.00597  -0.097038  0.001974  3.900617  0.003
C  C82  1  0.86072004  0.40300087  0.96370762  1  0.277064  0.00388  0.005902  -0.097135  0.001973  3.900807  0.003
C  C83  1  0.13927373  0.09699795  0.46370425  1  0.277161  0.00388  0.005919  -0.097216  0.001973  3.900887  0.003
C  C84  1  0.18290788  0.51850339  0.87222018  1  0.257306  0.001162  -0.047582  -0.124002  0.000654  3.861524  0.001
C  C85  1  0.81709271  0.98149513  0.37223154  1  0.257582  0.001161  -0.047524  -0.123949  0.000654  3.8618  0.001
C  C86  1  0.81708566  0.48149160  0.12777774  1  0.256961  0.001162  -0.047589  -0.123886  0.000654  3.861687  0.001
C  C87  1  0.18290943  0.01850412  0.62777587  1  0.257027  0.001162  -0.047587  -0.123916  0.000654  3.86183  0.001
C  C88  1  0.31422323  0.51831528  0.85833152  1  -0.062432  8.1e-05  -0.015239  0.099307  5e-06  3.988093  0.0
C  C89  1  0.68577767  0.98168338  0.35834846  1  -0.062478  8.1e-05  -0.015244  0.099257  5e-06  3.987945  0.0
C  C90  1  0.68576922  0.48168374  0.14166276  1  -0.062519  8.1e-05  -0.015326  0.099079  5e-06  3.988209  0.0
C  C91  1  0.31422372  0.01831666  0.64165384  1  -0.062309  8.1e-05  -0.01528  0.099131  5e-06  3.988121  0.0
C  C92  1  0.39915703  0.58915903  0.91234374  1  -0.024895  0.000436  -0.095293  -0.143059  0.000224  3.978153  0.0
C  C93  1  0.60083668  0.91083487  0.41235579  1  -0.025559  0.000436  -0.095434  -0.143204  0.000224  3.97796  0.0
C  C94  1  0.60083345  0.41084400  0.08764835  1  -0.026125  0.000436  -0.095335  -0.142924  0.000224  3.978002  0.0
C  C95  1  0.39916133  0.08916591  0.58764286  1  -0.026105  0.000436  -0.095361  -0.143159  0.000224  3.978054  0.0
C  C96  1  0.51976883  0.58377992  0.90342741  1  -0.047723  -5.8e-05  -0.093934  -0.070656  -0.000136  4.048439  0.0
C  C97  1  0.48022807  0.91621089  0.40343465  1  -0.048452  -5.8e-05  -0.093852  -0.070375  -0.000136  4.04808  0.0
C  C98  1  0.48022193  0.41622474  0.09656905  1  -0.047342  -5.8e-05  -0.093843  -0.070538  -0.000136  4.048194  0.0
C  C99  1  0.51977170  0.08378993  0.59656036  1  -0.049621  -5.8e-05  -0.093821  -0.070242  -0.000136  4.04806  0.0
C  C100  1  0.55695625  0.50963584  0.83939099  1  -0.072164  0.000382  -0.094941  -0.134682  7.7e-05  3.969349  0.0
C  C101  1  0.44304569  0.99036142  0.33939614  1  -0.071513  0.000382  -0.094925  -0.134688  7.7e-05  3.969184  0.0
C  C102  1  0.44303992  0.49036976  0.16060986  1  -0.072242  0.000382  -0.094896  -0.134861  7.7e-05  3.96945  0.0
C  C103  1  0.55696078  0.00964280  0.66059813  1  -0.071568  0.000382  -0.09497  -0.134922  7.7e-05  3.969304  0.0
C  C104  1  0.47296690  0.44016105  0.78366222  1  -0.075703  7.8e-05  -0.016638  0.090034  4e-06  4.007964  0.0
C  C105  1  0.52703769  0.05983252  0.28367232  1  -0.076455  7.8e-05  -0.016743  0.090023  4e-06  4.008154  0.0
C  C106  1  0.52703313  0.55984140  0.21633789  1  -0.075773  7.8e-05  -0.016699  0.089988  3e-06  4.008105  0.0
C  C107  1  0.47296912  0.94016846  0.71632488  1  -0.075812  7.8e-05  -0.016658  0.090082  4e-06  4.008144  0.0
C  C108  1  0.35178008  0.44392920  0.79408855  1  -0.0249  0.000424  -0.099144  -0.210284  0.000221  3.957833  0.0
C  C109  1  0.64822718  0.05606595  0.29410052  1  -0.024597  0.000424  -0.099068  -0.210282  0.000221  3.957691  0.0
C  C110  1  0.64822002  0.55606838  0.20590792  1  -0.024799  0.000424  -0.099015  -0.210092  0.000221  3.957861  0.0
C  C111  1  0.35178064  0.94393587  0.70589667  1  -0.024828  0.000424  -0.099022  -0.210106  0.000221  3.957696  0.0
C  C112  1  0.51185538  0.36233946  0.71129274  1  0.301878  0.000825  -0.040136  -0.107551  0.000485  3.878389  0.001
C  C113  1  0.48816008  0.13765753  0.21130222  1  0.301399  0.000825  -0.040248  -0.107792  0.000485  3.878729  0.001
C  C114  1  0.48814804  0.63766226  0.28870665  1  0.301854  0.000825  -0.040195  -0.107637  0.000485  3.878562  0.001
C  C115  1  0.51185053  0.86234517  0.78869644  1  0.301753  0.000825  -0.040162  -0.107687  0.000485  3.878624  0.001
C  C116  1  0.69461923  0.27816281  0.72133684  1  0.941322  0.003008  0.141353  0.084906  0.002105  3.904716  0.003
C  C117  1  0.30539173  0.22183479  0.22133758  1  0.941297  0.003009  0.141239  0.084708  0.002105  3.90437  0.003
C  C118  1  0.30538094  0.72184046  0.27866035  1  0.94093  0.003008  0.141236  0.084684  0.002104  3.904796  0.003
C  C119  1  0.69461508  0.77816620  0.77865888  1  0.941264  0.003009  0.14126  0.084654  0.002105  3.904486  0.003
C  C120  1  0.65237724  0.16762651  0.84498753  1  0.442648  0.002267  -0.000454  -0.031444  0.000977  4.018861  0.002
C  C121  1  0.34762901  0.33236892  0.34498918  1  0.442805  0.002268  -0.000574  -0.03167  0.000978  4.018886  0.002
C  C122  1  0.34762775  0.83236875  0.15500675  1  0.443189  0.002265  -0.000646  -0.031672  0.000977  4.01905  0.002
C  C123  1  0.65237530  0.66763281  0.65500801  1  0.443254  0.002266  -0.000581  -0.031654  0.000978  4.019122  0.002
C  C124  1  0.55810292  0.22163812  0.83357883  1  0.28406  0.004858  0.001774  -0.108989  0.002468  3.926112  0.003
C  C125  1  0.44190250  0.27836147  0.33357941  1  0.283925  0.004856  0.001733  -0.109043  0.002467  3.925941  0.003
C  C126  1  0.44189603  0.77835781  0.16642056  1  0.283957  0.004857  0.001728  -0.109073  0.002467  3.926119  0.003
C  C127  1  0.55810560  0.72164198  0.66641852  1  0.283755  0.004857  0.001779  -0.108967  0.002467  3.925993  0.003
C  C128  1  0.08108397  0.48316594  0.38110573  1  1.543921  0.002554  0.202264  0.588042  0.002349  4.150843  0.001
C  C129  1  0.91891900  0.01683555  0.88110904  1  1.543598  0.002553  0.2022  0.587865  0.002348  4.151136  0.001
C  C130  1  0.91892033  0.51683580  0.61889366  1  1.543847  0.002553  0.202246  0.588056  0.002349  4.151064  0.001
C  C131  1  0.08108205  0.98316774  0.11889326  1  1.54387  0.002553  0.20221  0.587999  0.002349  4.151088  0.001
C  C132  1  0.01636214  0.54008229  0.45682459  1  0.023144  0.003845  -0.086783  -0.099335  0.001988  3.849145  0.002
C  C133  1  0.98363556  0.95992019  0.95683311  1  5e-06  0.003858  -0.0867  -0.099126  0.001989  3.848942  0.002
C  C134  1  0.98363966  0.45992020  0.54317333  1  0.000916  0.003856  -0.086749  -0.099381  0.001988  3.849205  0.002
C  C135  1  0.01636183  0.04008219  0.04317576  1  0.02284  0.003846  -0.086766  -0.099267  0.001989  3.849212  0.002
C  C136  1  0.90544699  0.57689743  0.41456076  1  -0.049323  0.006851  -0.167805  -0.322547  0.003594  3.907857  0.005
C  C137  1  0.09454606  0.92309805  0.91456293  1  -0.049567  0.006852  -0.167823  -0.322666  0.003593  3.907794  0.005
C  C138  1  0.09455501  0.42310100  0.58543936  1  -0.04898  0.006853  -0.167807  -0.322507  0.003594  3.907742  0.005
C  C139  1  0.90544836  0.07689696  0.08544741  1  -0.048884  0.006852  -0.167805  -0.322575  0.003594  3.907876  0.005
C  C140  1  0.93031845  0.68010994  0.35305709  1  1.566329  0.003396  0.199821  0.615861  0.002752  4.182645  0.002
C  C141  1  0.06967133  0.81988446  0.85306608  1  1.566285  0.003396  0.199883  0.616106  0.00275  4.182409  0.002
C  C142  1  0.06968213  0.31988522  0.64693791  1  1.566389  0.003396  0.199749  0.615905  0.002751  4.182709  0.002
C  C143  1  0.93031482  0.18011360  0.14694863  1  1.566061  0.003398  0.199716  0.615705  0.002753  4.182894  0.002
N  N144  1  0.12676710  0.44457669  0.12569056  1  -1.203158  0.06682  -0.367811  -0.317784  0.034632  3.683668  0.044
N  N145  1  0.87324050  0.05542016  0.62569506  1  -1.203688  0.066821  -0.367815  -0.317742  0.034632  3.683896  0.044
N  N146  1  0.87323131  0.55542653  0.87431466  1  -1.202556  0.066818  -0.367795  -0.317812  0.034633  3.683826  0.044
N  N147  1  0.12676496  0.94457267  0.37431089  1  -1.202906  0.066817  -0.367777  -0.317824  0.034631  3.683835  0.044
N  N148  1  0.15193150  0.51088564  0.97616395  1  -1.232546  0.004374  -0.237808  0.051304  0.001856  3.783201  0.003
N  N149  1  0.84807152  0.98911433  0.47617116  1  -1.232401  0.004372  -0.237804  0.051436  0.001855  3.783017  0.003
N  N150  1  0.84806738  0.48911516  0.02383616  1  -1.232487  0.004374  -0.237772  0.051478  0.001856  3.78286  0.003
N  N151  1  0.15192493  0.01088235  0.52383625  1  -1.23243  0.004373  -0.237738  0.051541  0.001856  3.782866  0.003
N  N152  1  0.58641085  0.29086719  0.75502671  1  -1.218931  0.004129  -0.238266  0.054146  0.001723  3.778974  0.003
N  N153  1  0.41360239  0.20913255  0.25503030  1  -1.219369  0.004129  -0.238076  0.054433  0.001724  3.778525  0.003
N  N154  1  0.41359271  0.70913534  0.24496976  1  -1.218962  0.004128  -0.238156  0.054371  0.001723  3.778796  0.003
N  N155  1  0.58640456  0.79086925  0.74496616  1  -1.219143  0.004129  -0.238172  0.054435  0.001723  3.778571  0.003
N  N156  1  0.73707561  0.20368739  0.77451635  1  -1.244979  0.067258  -0.370192  -0.321166  0.034887  3.683883  0.042
N  N157  1  0.26293150  0.29630958  0.27451728  1  -1.244735  0.067254  -0.370121  -0.320966  0.034884  3.683544  0.042
N  N158  1  0.26292721  0.79631594  0.22547719  1  -1.2455  0.06726  -0.370085  -0.321029  0.034886  3.683983  0.042
N  N159  1  0.73707226  0.70368890  0.72547918  1  -1.245338  0.067257  -0.370119  -0.321024  0.034885  3.683816  0.042
O  O160  1  0.01607981  0.40137610  0.33688024  1  -1.147564  0.106129  -0.337087  -0.550224  0.053539  2.30866  0.079
O  O161  1  0.98392234  0.09863067  0.83689014  1  -1.147477  0.106127  -0.336969  -0.550107  0.053535  2.308797  0.079
O  O162  1  0.98392341  0.59862967  0.66311550  1  -1.14755  0.106124  -0.337008  -0.550161  0.053537  2.308702  0.079
O  O163  1  0.01607972  0.90137344  0.16311289  1  -1.147549  0.106132  -0.336985  -0.550146  0.053537  2.308752  0.079
O  O164  1  0.19090760  0.51054844  0.36608811  1  -1.186413  0.031201  -0.320451  -0.572837  0.015262  2.177177  0.025
O  O165  1  0.80909456  0.98944287  0.86608590  1  -1.185985  0.031211  -0.320514  -0.572843  0.015266  2.177355  0.025
O  O166  1  0.80909806  0.48945089  0.63391419  1  -1.186279  0.031212  -0.320503  -0.572884  0.015265  2.177364  0.025
O  O167  1  0.19090582  0.01055633  0.13391130  1  -1.186328  0.031207  -0.320501  -0.572858  0.015265  2.177243  0.025
O  O168  1  0.85035247  0.73566080  0.34106005  1  -1.199754  0.010898  -0.330814  -0.572113  0.005036  2.13255  0.008
O  O169  1  0.14963468  0.76433203  0.84106964  1  -1.19954  0.010894  -0.330896  -0.572249  0.005034  2.132434  0.008
O  O170  1  0.14964838  0.26433598  0.65893787  1  -1.199848  0.010896  -0.330759  -0.572092  0.005035  2.132522  0.008
O  O171  1  0.85035039  0.23565951  0.15894799  1  -1.199905  0.010893  -0.330713  -0.571939  0.005033  2.132708  0.008
O  O172  1  0.03701398  0.70265887  0.31603342  1  -1.166283  0.101494  -0.334092  -0.567873  0.051386  2.393164  0.078
O  O173  1  0.96297374  0.79733422  0.81604904  1  -1.166318  0.101496  -0.334043  -0.56793  0.051388  2.393109  0.078
O  O174  1  0.96298443  0.29733379  0.68395282  1  -1.166147  0.101494  -0.334066  -0.567916  0.051387  2.393292  0.078
O  O175  1  0.03701682  0.20266394  0.18396348  1  -1.165931  0.101504  -0.334067  -0.567848  0.051391  2.393221  0.078
