# generated using pymatgen
data_ZnH16(C8N9)2
_symmetry_space_group_name_H-M   'P 1'
_cell_length_a   8.35955882
_cell_length_b   8.51084711
_cell_length_c   15.40300000
_cell_angle_alpha   92.46014952
_cell_angle_beta   90.00000000
_cell_angle_gamma   90.00000000
_symmetry_Int_Tables_number   1
_chemical_formula_structural   ZnH16(C8N9)2
_chemical_formula_sum   'Zn2 H32 C32 N36'
_cell_volume   1094.86606747
_cell_formula_units_Z   2
loop_
 _symmetry_equiv_pos_site_id
 _symmetry_equiv_pos_as_xyz
  1  'x, y, z'
loop_
 _atom_site_type_symbol
 _atom_site_label
 _atom_site_symmetry_multiplicity
 _atom_site_fract_x
 _atom_site_fract_y
 _atom_site_fract_z
 _atom_site_occupancy
 _atom_site_hle17_bader_spin_density
 _atom_site_hle17_ddec_charge
 _atom_site_hle17_ddec_spin_density
 _atom_site_hle17_ddec_sum_bond_order
 _atom_site_hle17_magmom
 _atom_site_hse06_10hf_bader_spin_density
 _atom_site_hse06_10hf_ddec_charge
 _atom_site_hse06_10hf_ddec_spin_density
 _atom_site_hse06_10hf_ddec_sum_bond_order
 _atom_site_hse06_10hf_magmom
 _atom_site_hse06_bader_spin_density
 _atom_site_hse06_ddec_charge
 _atom_site_hse06_ddec_spin_density
 _atom_site_hse06_ddec_sum_bond_order
 _atom_site_hse06_magmom
 _atom_site_pbe_bader_charge
 _atom_site_pbe_bader_spin_density
 _atom_site_pbe_cm5_charge
 _atom_site_pbe_ddec_charge
 _atom_site_pbe_ddec_spin_density
 _atom_site_pbe_ddec_sum_bond_order
 _atom_site_pbe_magmom
Zn  Zn0  1  0.00000000  0.49999866  0.50000075  1  0  0.958913  0  1.999681  0  0  0.776803  0  2.450961  0  0  0.818019  0  2.408501  0  1.302002  0  0.711023  0.748337  0  2.479755  0
Zn  Zn1  1  0.50000007  0.00000000  0.00000000  1  0  0.958888  0  1.999663  0  0  0.776807  0  2.450886  0  0  0.818024  0  2.40843  0  1.301904  0  0.711008  0.748342  0  2.479679  0
H  H2  1  0.61801587  0.56590479  0.42795355  1  0  0.088659  0  0.944742  0  0  0.097331  0  1.007983  0  0  0.098489  0  1.007237  0  0.125737  0  0.131311  0.09641  0  1.008633  0
H  H3  1  0.88197836  0.06590730  0.92795673  1  0  0.088723  0  0.944768  0  0  0.097399  0  1.007985  0  0  0.098556  0  1.00724  0  0.1258  0  0.131329  0.096477  0  1.008635  0
H  H4  1  0.38198427  0.43409371  0.57204602  1  0  0.08866  0  0.944758  0  0  0.097338  0  1.007985  0  0  0.098495  0  1.007239  0  0.125741  0  0.131313  0.096417  0  1.008636  0
H  H5  1  0.11802417  0.93409472  0.07204293  1  0  0.088707  0  0.944736  0  0  0.097374  0  1.007973  0  0  0.098532  0  1.007228  0  0.125789  0  0.13131  0.096452  0  1.008623  0
H  H6  1  0.84410555  0.77782757  0.64768740  1  0  0.107758  0  0.961803  0  0  0.114521  0  1.032207  0  0  0.117446  0  1.028553  0  0.198028  0  0.134691  0.112401  0  1.034677  0
H  H7  1  0.65590184  0.27783479  0.14768939  1  0  0.10769  0  0.96183  0  0  0.114505  0  1.032187  0  0  0.117425  0  1.028549  0  0.197915  0  0.134648  0.112383  0  1.034656  0
H  H8  1  0.15589339  0.22217210  0.35231220  1  0  0.107743  0  0.961817  0  0  0.114514  0  1.032214  0  0  0.117442  0  1.028553  0  0.198017  0  0.134686  0.112394  0  1.034683  0
H  H9  1  0.34410070  0.72216723  0.85231027  1  0  0.107733  0  0.961804  0  0  0.114551  0  1.032145  0  0  0.117475  0  1.028496  0  0.197899  0  0.13468  0.11243  0  1.034613  0
H  H10  1  0.05974837  0.88107933  0.45262348  1  0  0.084976  0  0.956804  0  0  0.093031  0  1.020883  0  0  0.094276  0  1.019977  0  0.138534  0  0.130563  0.092055  0  1.021601  0
H  H11  1  0.44025290  0.38107949  0.95262530  1  0  0.08494  0  0.956884  0  0  0.093033  0  1.02092  0  0  0.094277  0  1.020013  0  0.138568  0  0.130572  0.092056  0  1.021638  0
H  H12  1  0.94025177  0.11891799  0.54737542  1  0  0.084895  0  0.956901  0  0  0.093025  0  1.020897  0  0  0.09427  0  1.01999  0  0.13855  0  0.130572  0.092047  0  1.021616  0
H  H13  1  0.55974844  0.61892135  0.04737563  1  0  0.084955  0  0.956858  0  0  0.093049  0  1.020886  0  0  0.094293  0  1.01998  0  0.138545  0  0.130571  0.092071  0  1.021604  0
H  H14  1  0.25927086  0.63176975  0.65641373  1  0  0.11261  0  0.973066  0  0  0.118694  0  1.043971  0  0  0.121772  0  1.040031  0  0.212407  0  0.135496  0.116442  0  1.046687  0
H  H15  1  0.24072921  0.13176992  0.15641555  1  0  0.112599  0  0.97306  0  0  0.118681  0  1.043971  0  0  0.121759  0  1.040032  0  0.212355  0  0.135493  0.116429  0  1.046685  0
H  H16  1  0.74072689  0.36822991  0.34358587  1  0  0.112591  0  0.973049  0  0  0.118672  0  1.043959  0  0  0.121751  0  1.040019  0  0.212419  0  0.135506  0.116421  0  1.046673  0
H  H17  1  0.75927213  0.86823210  0.84358606  1  0  0.112581  0  0.973032  0  0  0.118666  0  1.043945  0  0  0.121743  0  1.040002  0  0.212396  0  0.135498  0.116414  0  1.046662  0
H  H18  1  0.54319135  0.05202868  0.58071073  1  0  0.098666  0  0.958764  0  0  0.100704  0  1.040701  0  0  0.103239  0  1.038447  0  0.137481  0  0.114939  0.098908  0  1.042219  0
H  H19  1  0.95681126  0.55203322  0.08071226  1  0  0.098641  0  0.958784  0  0  0.100686  0  1.040718  0  0  0.103218  0  1.038465  0  0.137451  0  0.114927  0.098892  0  1.042233  0
H  H20  1  0.45680760  0.94797217  0.41928825  1  0  0.098681  0  0.958759  0  0  0.100719  0  1.040705  0  0  0.103252  0  1.038449  0  0.137504  0  0.114953  0.098923  0  1.042224  0
H  H21  1  0.04319008  0.44796880  0.91928740  1  0  0.098648  0  0.958789  0  0  0.100701  0  1.040725  0  0  0.103231  0  1.038467  0  0.137488  0  0.11495  0.098907  0  1.04224  0
H  H22  1  0.65104273  0.00143361  0.67533167  1  0  0.095853  0  0.927373  0  0  0.111491  0  0.989467  0  0  0.111321  0  0.990924  0  0.112837  0  0.119577  0.111499  0  0.988532  0
H  H23  1  0.84895748  0.50143815  0.17533191  1  0  0.095896  0  0.92743  0  0  0.11152  0  0.989537  0  0  0.111349  0  0.990992  0  0.112827  0  0.119598  0.111529  0  0.988599  0
H  H24  1  0.34895621  0.99856606  0.32466858  1  0  0.09587  0  0.927486  0  0  0.111522  0  0.989561  0  0  0.111352  0  0.991016  0  0.112828  0  0.119592  0.111531  0  0.988625  0
H  H25  1  0.15104386  0.49856269  0.82466707  1  0  0.095866  0  0.927444  0  0  0.111508  0  0.989539  0  0  0.111332  0  0.990994  0  0.112803  0  0.119594  0.111517  0  0.9886  0
H  H26  1  0.42104734  0.84427233  0.72593345  1  0  0.094367  0  0.934382  0  0  0.107887  0  1.001222  0  0  0.108439  0  1.000946  0  0.12  0  0.117981  0.107424  0  1.001477  0
H  H27  1  0.07895153  0.34427485  0.22593338  1  0  0.094362  0  0.934476  0  0  0.107878  0  1.00129  0  0  0.108422  0  1.001013  0  0.120016  0  0.117988  0.107416  0  1.001543  0
H  H28  1  0.57895161  0.15572734  0.27406615  1  0  0.094362  0  0.934419  0  0  0.107883  0  1.001266  0  0  0.108444  0  1.000987  0  0.119989  0  0.117983  0.107417  0  1.001517  0
H  H29  1  0.92104861  0.65572717  0.77406628  1  0  0.094393  0  0.934395  0  0  0.107909  0  1.001229  0  0  0.108465  0  1.000947  0  0.119992  0  0.117992  0.107446  0  1.001483  0
H  H30  1  0.36201193  0.04222861  0.70736591  1  0  0.097933  0  0.933429  0  0  0.108344  0  1.001014  0  0  0.108793  0  1.001556  0  0.110815  0  0.117861  0.107973  0  1.000644  0
H  H31  1  0.13799173  0.54223197  0.20736872  1  0  0.09803  0  0.933401  0  0  0.108426  0  1.000985  0  0  0.10887  0  1.001522  0  0.110972  0  0.117936  0.108055  0  1.000617  0
H  H32  1  0.63798821  0.95777106  0.29263369  1  0  0.097931  0  0.933433  0  0  0.108345  0  1.001022  0  0  0.108802  0  1.001564  0  0.110792  0  0.117856  0.107971  0  1.000649  0
H  H33  1  0.86200721  0.45777475  0.79263105  1  0  0.097972  0  0.933423  0  0  0.108381  0  1.000992  0  0  0.108835  0  1.001529  0  0.1108  0  0.117897  0.108011  0  1.000621  0
C  C34  1  0.64393949  0.64102766  0.48486677  1  0  0.202562  0  3.711824  0  0  0.150824  0  4.003204  0  0  0.161856  0  4.016301  0  0.985334  0  0.144325  0.143697  0  3.994086  0
C  C35  1  0.85606073  0.14103135  0.98486932  1  0  0.202454  0  3.711773  0  0  0.150721  0  4.003138  0  0  0.161753  0  4.016233  0  0.985171  0  0.144275  0.143596  0  3.994017  0
C  C36  1  0.35606066  0.35897201  0.51513349  1  0  0.202522  0  3.711697  0  0  0.150788  0  4.003079  0  0  0.16182  0  4.016177  0  0.985175  0  0.144283  0.143662  0  3.99396  0
C  C37  1  0.14394181  0.85896949  0.01513031  1  0  0.202548  0  3.711842  0  0  0.150833  0  4.003183  0  0  0.161865  0  4.016279  0  0.985259  0  0.144356  0.143708  0  3.994061  0
C  C38  1  0.76093011  0.74415358  0.59594476  1  0  0.173777  0  3.626069  0  0  0.096501  0  3.889293  0  0  0.110414  0  3.900509  0  0.949564  0  0.160125  0.087842  0  3.881273  0
C  C39  1  0.73906651  0.24416198  0.09594548  1  0  0.173838  0  3.625919  0  0  0.096543  0  3.889116  0  0  0.110451  0  3.900325  0  0.949574  0  0.160167  0.087891  0  3.881093  0
C  C40  1  0.23906884  0.25584491  0.40405546  1  0  0.173783  0  3.626065  0  0  0.096492  0  3.889289  0  0  0.110408  0  3.900504  0  0.94956  0  0.160135  0.087836  0  3.881267  0
C  C41  1  0.26093123  0.75584357  0.90405231  1  0  0.173729  0  3.625866  0  0  0.096481  0  3.889096  0  0  0.110392  0  3.900306  0  0.94956  0  0.160156  0.087831  0  3.88107  0
C  C42  1  0.12916471  0.85158034  0.50901985  1  0  0.195004  0  3.713987  0  0  0.143755  0  4.004137  0  0  0.154909  0  4.017363  0  0.977063  0  0.144225  0.136609  0  3.994867  0
C  C43  1  0.37083536  0.35158050  0.00902037  1  0  0.195107  0  3.713963  0  0  0.143841  0  4.00411  0  0  0.154996  0  4.017334  0  0.977045  0  0.144237  0.136694  0  3.994841  0
C  C44  1  0.87083663  0.14841698  0.49097905  1  0  0.195146  0  3.71387  0  0  0.143843  0  4.003999  0  0  0.154996  0  4.017225  0  0.977042  0  0.144248  0.136695  0  3.99473  0
C  C45  1  0.62916478  0.64842034  0.99097991  1  0  0.195061  0  3.71399  0  0  0.143795  0  4.00414  0  0  0.154952  0  4.017361  0  0.976933  0  0.144233  0.136647  0  3.994871  0
C  C46  1  0.22524275  0.72124168  0.61169687  1  0  0.175093  0  3.629362  0  0  0.092955  0  3.897554  0  0  0.107213  0  3.907854  0  0.979217  0  0.162194  0.084122  0  3.890085  0
C  C47  1  0.27475613  0.22124184  0.11169804  1  0  0.17521  0  3.629256  0  0  0.09309  0  3.897443  0  0  0.107349  0  3.907746  0  0.979223  0  0.162287  0.084256  0  3.889974  0
C  C48  1  0.77475979  0.27875682  0.38830141  1  0  0.175265  0  3.629239  0  0  0.093148  0  3.897429  0  0  0.107409  0  3.907723  0  0.97936  0  0.162277  0.084314  0  3.889961  0
C  C49  1  0.72524401  0.77875783  0.88830286  1  0  0.17529  0  3.629298  0  0  0.09316  0  3.897503  0  0  0.107431  0  3.907791  0  0.979394  0  0.162279  0.084326  0  3.890035  0
C  C50  1  0.55993864  0.96080293  0.62828049  1  0  -0.03968  0  3.610616  0  0  -0.115269  0  3.868622  0  0  -0.112552  0  3.879344  0  0.268032  0  -0.045395  -0.116621  0  3.860956  0
C  C51  1  0.94006277  0.46080780  0.12828112  1  0  -0.039706  0  3.610536  0  0  -0.115254  0  3.86845  0  0  -0.112547  0  3.87918  0  0.268026  0  -0.045421  -0.1166  0  3.860777  0
C  C52  1  0.44006270  0.03919674  0.37171846  1  0  -0.039722  0  3.610606  0  0  -0.115275  0  3.868522  0  0  -0.112561  0  3.879285  0  0.268018  0  -0.045408  -0.116629  0  3.860849  0
C  C53  1  0.05993737  0.53919305  0.87171721  1  0  -0.039658  0  3.610336  0  0  -0.115198  0  3.86833  0  0  -0.112483  0  3.879087  0  0.268037  0  -0.045401  -0.116543  0  3.860657  0
C  C54  1  0.40359666  0.93126983  0.67643090  1  0  -0.030515  0  3.614035  0  0  -0.108092  0  3.871252  0  0  -0.104826  0  3.882186  0  0.292087  0  -0.042948  -0.109944  0  3.86359  0
C  C55  1  0.09640461  0.43127353  0.17643216  1  0  -0.03066  0  3.614096  0  0  -0.108172  0  3.87124  0  0  -0.104871  0  3.882125  0  0.292027  0  -0.043001  -0.110027  0  3.86358  0
C  C56  1  0.59640348  0.06872984  0.32356805  1  0  -0.030558  0  3.614082  0  0  -0.10815  0  3.871358  0  0  -0.104909  0  3.882317  0  0.292066  0  -0.042962  -0.109983  0  3.863672  0
C  C57  1  0.90359553  0.56872967  0.82356817  1  0  -0.030636  0  3.61405  0  0  -0.108194  0  3.871278  0  0  -0.104928  0  3.882199  0  0.292127  0  -0.042979  -0.110048  0  3.86362  0
C  C58  1  0.94711099  0.69222252  0.32389246  1  0  0.496859  0  3.994977  0  0  0.458403  0  4.281746  0  0  0.484834  0  4.291523  0  1.536603  0  0.303572  0.440366  0  4.27489  0
C  C59  1  0.55289162  0.19222386  0.82389171  1  0  0.496832  0  3.995022  0  0  0.458385  0  4.281792  0  0  0.484815  0  4.29157  0  1.53656  0  0.303529  0.440349  0  4.274934  0
C  C60  1  0.05289155  0.30777480  0.67610904  1  0  0.496811  0  3.99498  0  0  0.45836  0  4.281766  0  0  0.484792  0  4.291541  0  1.536972  0  0.303506  0.440323  0  4.274907  0
C  C61  1  0.44710254  0.80778287  0.17611066  1  0  0.496861  0  3.994891  0  0  0.458436  0  4.281664  0  0  0.484864  0  4.291437  0  1.537086  0  0.303535  0.440401  0  4.274808  0
C  C62  1  0.99208465  0.92537074  0.25861586  1  0  0.475742  0  4.00649  0  0  0.446988  0  4.29548  0  0  0.471104  0  4.306267  0  1.524943  0  0.282558  0.430585  0  4.28775  0
C  C63  1  0.50791317  0.42537326  0.75861514  1  0  0.475647  0  4.006562  0  0  0.446901  0  4.295559  0  0  0.471017  0  4.306343  0  1.524999  0  0.282515  0.430497  0  4.287827  0
C  C64  1  0.00791429  0.07462775  0.74138566  1  0  0.475596  0  4.006471  0  0  0.446849  0  4.295468  0  0  0.470966  0  4.306255  0  1.524992  0  0.282488  0.430446  0  4.287735  0
C  C65  1  0.49208578  0.57462524  0.24138898  1  0  0.475433  0  4.006686  0  0  0.446706  0  4.295691  0  0  0.470822  0  4.306479  0  1.525  0  0.282402  0.430301  0  4.287961  0
N  N66  1  0.62252926  0.82033138  0.58283041  1  0  0.041813  0  3.562103  0  0  0.162203  0  3.75161  0  0  0.151062  0  3.776997  0  -0.817506  0  -0.134363  0.168462  0  3.736162  0
N  N67  1  0.87746616  0.32033507  0.08283036  1  0  0.042017  0  3.561788  0  0  0.162351  0  3.751368  0  0  0.151209  0  3.776754  0  -0.817073  0  -0.134322  0.168585  0  3.735963  0
N  N68  1  0.37747088  0.17966829  0.41716855  1  0  0.04188  0  3.561922  0  0  0.162271  0  3.751443  0  0  0.151128  0  3.776826  0  -0.817511  0  -0.134346  0.168517  0  3.736019  0
N  N69  1  0.12253517  0.67966813  0.91716738  1  0  0.042125  0  3.561503  0  0  0.162329  0  3.751244  0  0  0.151183  0  3.776621  0  -0.817058  0  -0.134337  0.168553  0  3.735858  0
N  N70  1  0.54608982  0.75586239  0.51164738  1  0  -0.267249  0  2.882347  0  0  -0.267886  0  3.156347  0  0  -0.275578  0  3.169892  0  -0.685797  0  -0.219115  -0.262463  0  3.147172  0
N  N71  1  0.95390919  0.25586608  0.01165059  1  0  -0.267323  0  2.882193  0  0  -0.267954  0  3.156204  0  0  -0.275644  0  3.169745  0  -0.686083  0  -0.21912  -0.262528  0  3.147033  0
N  N72  1  0.45391151  0.24413728  0.48835157  1  0  -0.267294  0  2.882193  0  0  -0.267941  0  3.156202  0  0  -0.27563  0  3.169744  0  -0.68562  0  -0.219128  -0.262515  0  3.147026  0
N  N73  1  0.04609334  0.74413476  0.98834904  1  0  -0.267502  0  2.882243  0  0  -0.268102  0  3.156306  0  0  -0.275789  0  3.169846  0  -0.686022  0  -0.21922  -0.262674  0  3.147136  0
N  N74  1  0.77813437  0.62918949  0.53472817  1  0  -0.396245  0  3.199072  0  0  -0.328264  0  3.489326  0  0  -0.348514  0  3.502935  0  -1.194691  0  -0.335565  -0.314605  0  3.479588  0
N  N75  1  0.72186226  0.12919201  0.03472875  1  0  -0.396333  0  3.199001  0  0  -0.328334  0  3.489242  0  0  -0.348586  0  3.502854  0  -1.194562  0  -0.335566  -0.314671  0  3.479495  0
N  N76  1  0.22186578  0.37080900  0.46527140  1  0  -0.396237  0  3.199048  0  0  -0.328252  0  3.4893  0  0  -0.348502  0  3.50291  0  -1.19467  0  -0.33556  -0.314591  0  3.479558  0
N  N77  1  0.27813788  0.87081001  0.96527026  1  0  -0.396271  0  3.199024  0  0  -0.328286  0  3.489262  0  0  -0.348538  0  3.502872  0  -1.19468  0  -0.335565  -0.314623  0  3.479515  0
N  N78  1  0.27955782  0.86969276  0.61829122  1  0  0.042416  0  3.580866  0  0  0.165652  0  3.765969  0  0  0.155182  0  3.789613  0  -0.835088  0  -0.135095  0.171283  0  3.752093  0
N  N79  1  0.22044226  0.36969410  0.11829242  1  0  0.042543  0  3.580875  0  0  0.165746  0  3.765983  0  0  0.155267  0  3.789616  0  -0.835235  0  -0.135085  0.171379  0  3.752104  0
N  N80  1  0.72044352  0.13030691  0.38170709  1  0  0.04245  0  3.580865  0  0  0.165632  0  3.766026  0  0  0.155163  0  3.789685  0  -0.835273  0  -0.135105  0.171258  0  3.752145  0
N  N81  1  0.77955789  0.63030792  0.88170789  1  0  0.042407  0  3.580955  0  0  0.165635  0  3.766042  0  0  0.15513  0  3.78975  0  -0.83534  0  -0.135152  0.171268  0  3.752165  0
N  N82  1  0.21918382  0.95555067  0.55331141  1  0  -0.268232  0  2.856645  0  0  -0.275854  0  3.135953  0  0  -0.283632  0  3.150276  0  -0.661862  0  -0.223001  -0.270367  0  3.126282  0
N  N83  1  0.28081745  0.45555201  0.05331261  1  0  -0.268351  0  2.856746  0  0  -0.275973  0  3.136061  0  0  -0.283752  0  3.150388  0  -0.661861  0  -0.223046  -0.270483  0  3.126389  0
N  N84  1  0.78081393  0.04444783  0.44668752  1  0  -0.268324  0  2.856607  0  0  -0.275921  0  3.135928  0  0  -0.283698  0  3.15025  0  -0.661874  0  -0.22305  -0.270434  0  3.126259  0
N  N85  1  0.71918269  0.54444766  0.94668765  1  0  -0.268309  0  2.856716  0  0  -0.275925  0  3.136026  0  0  -0.283698  0  3.150352  0  -0.661706  0  -0.223029  -0.270438  0  3.126354  0
N  N86  1  0.12879986  0.70592826  0.54273535  1  0  -0.396631  0  3.246007  0  0  -0.321453  0  3.53629  0  0  -0.342341  0  3.549587  0  -1.245694  0  -0.338645  -0.307312  0  3.526581  0
N  N87  1  0.37119782  0.20592725  0.04273584  1  0  -0.396778  0  3.246025  0  0  -0.321646  0  3.536385  0  0  -0.342528  0  3.549659  0  -1.245662  0  -0.338732  -0.307503  0  3.526673  0
N  N88  1  0.87119789  0.29407023  0.45726423  1  0  -0.396764  0  3.24601  0  0  -0.321573  0  3.536289  0  0  -0.342463  0  3.549591  0  -1.245649  0  -0.338682  -0.30743  0  3.526577  0
N  N89  1  0.62880352  0.79407359  0.95726444  1  0  -0.396706  0  3.246038  0  0  -0.32157  0  3.536398  0  0  -0.342449  0  3.549662  0  -1.245689  0  -0.338663  -0.307427  0  3.526685  0
N  N90  1  0.97023063  0.58762182  0.37035333  1  0  -0.599536  0  2.826735  0  0  -0.550377  0  3.109709  0  0  -0.571525  0  3.11366  0  -1.271211  0  -0.380814  -0.536054  0  3.107003  0
N  N91  1  0.52977078  0.08762787  0.87035334  1  0  -0.599474  0  2.826758  0  0  -0.550321  0  3.109737  0  0  -0.571471  0  3.113688  0  -1.271147  0  -0.38075  -0.535999  0  3.107029  0
N  N92  1  0.02976951  0.41237432  0.62964749  1  0  -0.599507  0  2.82673  0  0  -0.550351  0  3.109707  0  0  -0.571499  0  3.113657  0  -1.27153  0  -0.380765  -0.536029  0  3.107  0
N  N93  1  0.47022218  0.91236827  0.12965202  1  0  -0.59946  0  2.827027  0  0  -0.5503  0  3.109965  0  0  -0.571444  0  3.113908  0  -1.271521  0  -0.380732  -0.535982  0  3.107262  0
N  N94  1  0.91158638  0.79649039  0.26847348  1  0  -0.464114  0  3.269313  0  0  -0.411169  0  3.524385  0  0  -0.434489  0  3.52822  0  -1.329559  0  -0.316462  -0.394949  0  3.52107  0
N  N95  1  0.58841502  0.29649173  0.76847209  1  0  -0.464119  0  3.269246  0  0  -0.411194  0  3.524329  0  0  -0.434511  0  3.528162  0  -1.329585  0  -0.316487  -0.394974  0  3.521014  0
N  N96  1  0.08841495  0.20350811  0.73152869  1  0  -0.46404  0  3.269268  0  0  -0.411115  0  3.52436  0  0  -0.434435  0  3.528195  0  -1.329631  0  -0.316438  -0.394896  0  3.521046  0
N  N97  1  0.41157914  0.70350559  0.23153330  1  0  -0.464059  0  3.268918  0  0  -0.411175  0  3.524038  0  0  -0.434497  0  3.527874  0  -1.329575  0  -0.316459  -0.394955  0  3.520721  0
N  N98  1  0.05590367  0.04588732  0.24503108  1  0  -0.601314  0  2.626301  0  0  -0.579333  0  2.866375  0  0  -0.59591  0  2.873188  0  -1.278255  0  -0.383512  -0.567942  0  2.861606  0
N  N99  1  0.44409640  0.54588833  0.74502929  1  0  -0.60123  0  2.626394  0  0  -0.579247  0  2.866466  0  0  -0.59582  0  2.873272  0  -1.278333  0  -0.383471  -0.567857  0  2.861695  0
N  N100  1  0.94409647  0.95411117  0.75497044  1  0  -0.601232  0  2.626284  0  0  -0.579235  0  2.866335  0  0  -0.59581  0  2.873146  0  -1.27831  0  -0.383472  -0.567844  0  2.861562  0
N  N101  1  0.55590733  0.45411134  0.25496967  1  0  -0.601141  0  2.626442  0  0  -0.579155  0  2.866499  0  0  -0.595729  0  2.87331  0  -1.27839  0  -0.383435  -0.567764  0  2.861729  0
