# generated using pymatgen
data_ZnH11C10NO7
_symmetry_space_group_name_H-M   'P 1'
_cell_length_a   6.27014001
_cell_length_b   9.93833017
_cell_length_c   10.44538451
_cell_angle_alpha   90.00073305
_cell_angle_beta   110.96906818
_cell_angle_gamma   89.99933240
_symmetry_Int_Tables_number   1
_chemical_formula_structural   ZnH11C10NO7
_chemical_formula_sum   'Zn2 H22 C20 N2 O14'
_cell_volume   607.79448718
_cell_formula_units_Z   2
loop_
 _symmetry_equiv_pos_site_id
 _symmetry_equiv_pos_as_xyz
  1  'x, y, z'
loop_
 _atom_site_type_symbol
 _atom_site_label
 _atom_site_symmetry_multiplicity
 _atom_site_fract_x
 _atom_site_fract_y
 _atom_site_fract_z
 _atom_site_occupancy
 _atom_site_hle17_bader_spin_density
 _atom_site_hle17_ddec_charge
 _atom_site_hle17_ddec_spin_density
 _atom_site_hle17_ddec_sum_bond_order
 _atom_site_hle17_magmom
 _atom_site_hse06_10hf_bader_spin_density
 _atom_site_hse06_10hf_ddec_charge
 _atom_site_hse06_10hf_ddec_spin_density
 _atom_site_hse06_10hf_ddec_sum_bond_order
 _atom_site_hse06_10hf_magmom
 _atom_site_hse06_bader_spin_density
 _atom_site_hse06_ddec_charge
 _atom_site_hse06_ddec_spin_density
 _atom_site_hse06_ddec_sum_bond_order
 _atom_site_hse06_magmom
 _atom_site_pbe_bader_spin_density
 _atom_site_pbe_cm5_charge
 _atom_site_pbe_ddec_charge
 _atom_site_pbe_ddec_spin_density
 _atom_site_pbe_ddec_sum_bond_order
 _atom_site_pbe_magmom
Zn  Zn0  1  0.77968413  0.73492890  0.64072676  1  0  1.211436  0  1.646631  0  0  1.038861  0  2.118223  0  0  1.088378  0  2.050547  0  0  0.696646  1.003671  0  2.165272  0
Zn  Zn1  1  0.22029965  0.23493198  0.35926616  1  0  1.211552  0  1.646634  0  0  1.039017  0  2.118186  0  0  1.088501  0  2.050556  0  0  0.696719  1.003842  0  2.165219  0
H  H2  1  0.03523590  0.18410930  0.00274242  1  0  0.305586  0  0.904896  0  0  0.28679  0  0.969652  0  0  0.294535  0  0.963934  0  0  0.309932  0.281138  0  0.974089  0
H  H3  1  0.96474457  0.68412686  0.99726074  1  0  0.305571  0  0.904752  0  0  0.286746  0  0.969554  0  0  0.294498  0  0.963851  0  0  0.309883  0.281092  0  0.973996  0
H  H4  1  0.55849201  0.03271479  0.73063931  1  0  0.123381  0  0.957888  0  0  0.131244  0  1.020394  0  0  0.135264  0  1.016937  0  0  0.114029  0.128372  0  1.022948  0
H  H5  1  0.44150475  0.53272503  0.26935466  1  0  0.123447  0  0.957861  0  0  0.131285  0  1.020392  0  0  0.135305  0  1.016934  0  0  0.114059  0.128415  0  1.022946  0
H  H6  1  0.12870417  0.26462043  0.71373591  1  0  0.157406  0  0.921519  0  0  0.177513  0  0.977297  0  0  0.180492  0  0.975588  0  0  0.108119  0.1753  0  0.978745  0
H  H7  1  0.87132308  0.76463070  0.28628925  1  0  0.157295  0  0.921801  0  0  0.177395  0  0.977605  0  0  0.180374  0  0.975897  0  0  0.108067  0.175183  0  0.979057  0
H  H8  1  0.22964311  0.30389021  0.89253763  1  0  0.131904  0  0.950571  0  0  0.149305  0  1.012468  0  0  0.150709  0  1.014361  0  0  0.095134  0.14833  0  1.011093  0
H  H9  1  0.77034799  0.80390229  0.10748977  1  0  0.131808  0  0.950632  0  0  0.149192  0  1.012551  0  0  0.150594  0  1.014447  0  0  0.095119  0.148225  0  1.011168  0
H  H10  1  0.04661286  0.41775911  0.76877593  1  0  0.145076  0  0.949163  0  0  0.162828  0  1.011359  0  0  0.165547  0  1.010199  0  0  0.101966  0.160872  0  1.01228  0
H  H11  1  0.95338747  0.91776481  0.23125058  1  0  0.144964  0  0.949287  0  0  0.162753  0  1.011454  0  0  0.165468  0  1.010297  0  0  0.101914  0.160814  0  1.012359  0
H  H12  1  0.80476170  0.17858042  0.14464594  1  0  0.10725  0  0.998804  0  0  0.11379  0  1.068446  0  0  0.117373  0  1.065895  0  0  0.106605  0.111029  0  1.07076  0
H  H13  1  0.19524456  0.67861565  0.85536326  1  0  0.107211  0  0.998983  0  0  0.113776  0  1.068597  0  0  0.117354  0  1.06605  0  0  0.106605  0.111017  0  1.070908  0
H  H14  1  0.17556608  0.95434345  0.99185130  1  0  0.110174  0  0.9507  0  0  0.116343  0  1.018996  0  0  0.120126  0  1.016267  0  0  0.106057  0.113542  0  1.021211  0
H  H15  1  0.82442911  0.45435272  0.00813181  1  0  0.110107  0  0.950586  0  0  0.116355  0  1.018815  0  0  0.120189  0  1.016021  0  0  0.106025  0.113553  0  1.021027  0
H  H16  1  0.43211282  0.81532271  0.43893644  1  0  0.44387  0  0.858362  0  0  0.411249  0  0.922742  0  0  0.423179  0  0.905651  0  0  0.295741  0.402844  0  0.934746  0
H  H17  1  0.56790645  0.31530059  0.56105903  1  0  0.443891  0  0.858358  0  0  0.411287  0  0.922704  0  0  0.423219  0  0.905611  0  0  0.29577  0.402883  0  0.934708  0
H  H18  1  0.40929937  0.86879893  0.57725418  1  0  0.429646  0  0.875598  0  0  0.397112  0  0.941598  0  0  0.407846  0  0.926215  0  0  0.293827  0.389539  0  0.9524  0
H  H19  1  0.59069001  0.36880109  0.42274084  1  0  0.429627  0  0.875619  0  0  0.397098  0  0.941614  0  0  0.40783  0  0.926233  0  0  0.293798  0.389522  0  0.952417  0
H  H20  1  0.88233828  0.54652297  0.48601923  1  0  0.446074  0  0.848274  0  0  0.415296  0  0.909188  0  0  0.425735  0  0.894265  0  0  0.301213  0.407874  0  0.919811  0
H  H21  1  0.11766481  0.04651807  0.51397301  1  0  0.446063  0  0.848291  0  0  0.415292  0  0.909197  0  0  0.42573  0  0.894274  0  0  0.301207  0.40787  0  0.919818  0
H  H22  1  0.10848261  0.61744535  0.59328019  1  0  0.452891  0  0.842131  0  0  0.420181  0  0.90714  0  0  0.431765  0  0.890358  0  0  0.299017  0.411929  0  0.919071  0
H  H23  1  0.89151739  0.11743340  0.40671479  1  0  0.452913  0  0.842122  0  0  0.420204  0  0.907137  0  0  0.431787  0  0.890356  0  0  0.299019  0.411954  0  0.919063  0
C  C24  1  0.17090969  0.91561530  0.73511735  1  0  0.672605  0  3.874125  0  0  0.617554  0  4.165743  0  0  0.651808  0  4.159172  0  0  0.22228  0.594209  0  4.16974  0
C  C25  1  0.82908657  0.41561313  0.26486911  1  0  0.672805  0  3.874162  0  0  0.61771  0  4.165818  0  0  0.651965  0  4.159241  0  0  0.222292  0.594365  0  4.169819  0
C  C26  1  0.35259262  0.98360078  0.85142004  1  0  -0.079634  0  3.79262  0  0  -0.053967  0  4.033836  0  0  -0.063935  0  4.058837  0  0  -0.023741  -0.047365  0  4.017309  0
C  C27  1  0.64740397  0.48361126  0.14856889  1  0  -0.079854  0  3.792815  0  0  -0.054145  0  4.034036  0  0  -0.064116  0  4.059052  0  0  -0.023804  -0.047542  0  4.01751  0
C  C28  1  0.54085400  0.04079940  0.82997054  1  0  -0.131567  0  3.67047  0  0  -0.168047  0  3.920301  0  0  -0.166792  0  3.936589  0  0  -0.077354  -0.16886  0  3.909398  0
C  C29  1  0.45915287  0.54081115  0.17002631  1  0  -0.131508  0  3.670478  0  0  -0.167995  0  3.920324  0  0  -0.166736  0  3.936608  0  0  -0.077335  -0.168808  0  3.909422  0
C  C30  1  0.70322854  0.11152871  0.93631820  1  0  0.250662  0  3.783015  0  0  0.24819  0  4.033522  0  0  0.253625  0  4.054281  0  0  0.097238  0.244516  0  4.019235  0
C  C31  1  0.29675811  0.61154423  0.06367709  1  0  0.250807  0  3.782469  0  0  0.248359  0  4.033013  0  0  0.253792  0  4.053773  0  0  0.097368  0.244686  0  4.018722  0
C  C32  1  0.87161282  0.24563778  0.80121592  1  0  0.661231  0  3.751951  0  0  0.622393  0  4.037755  0  0  0.65196  0  4.036372  0  0  0.254917  0.602526  0  4.037904  0
C  C33  1  0.12839020  0.74565024  0.19879218  1  0  0.660733  0  3.752949  0  0  0.622165  0  4.038384  0  0  0.651754  0  4.036965  0  0  0.254818  0.602291  0  4.038541  0
C  C34  1  0.08363825  0.31144679  0.79598505  1  0  -0.450829  0  3.652917  0  0  -0.528587  0  3.884859  0  0  -0.535561  0  3.88857  0  0  -0.239306  -0.52371  0  3.882317  0
C  C35  1  0.91635779  0.81146194  0.20404327  1  0  -0.450332  0  3.653148  0  0  -0.528191  0  3.885007  0  0  -0.535169  0  3.888714  0  0  -0.23917  -0.523334  0  3.88244  0
C  C36  1  0.67981051  0.12124096  0.06388925  1  0  -0.14987  0  3.692165  0  0  -0.183391  0  3.941277  0  0  -0.184466  0  3.960484  0  0  -0.08194  -0.182727  0  3.928913  0
C  C37  1  0.32018928  0.62126884  0.93610375  1  0  -0.149862  0  3.69197  0  0  -0.183438  0  3.941165  0  0  -0.184515  0  3.960377  0  0  -0.081968  -0.182768  0  3.928791  0
C  C38  1  0.48971693  0.06646228  0.08470525  1  0  -0.060034  0  3.786027  0  0  -0.032296  0  4.019447  0  0  -0.040412  0  4.041858  0  0  -0.019001  -0.027429  0  4.004717  0
C  C39  1  0.51028453  0.56647580  0.91529516  1  0  -0.05987  0  3.78618  0  0  -0.03219  0  4.01971  0  0  -0.040307  0  4.042138  0  0  -0.018883  -0.027321  0  4.004973  0
C  C40  1  0.32614076  0.99663139  0.97845208  1  0  -0.079438  0  3.709761  0  0  -0.120816  0  3.966341  0  0  -0.117976  0  3.98498  0  0  -0.083856  -0.122669  0  3.954274  0
C  C41  1  0.67383670  0.49665042  0.02153206  1  0  -0.079496  0  3.710169  0  0  -0.120935  0  3.966784  0  0  -0.118137  0  3.985416  0  0  -0.083922  -0.122785  0  3.954708  0
C  C42  1  0.45422902  0.10057903  0.21539941  1  0  0.66047  0  3.901951  0  0  0.608988  0  4.193533  0  0  0.643054  0  4.186566  0  0  0.213899  0.586033  0  4.197296  0
C  C43  1  0.54577814  0.60060391  0.78459613  1  0  0.660388  0  3.902209  0  0  0.608961  0  4.193736  0  0  0.643024  0  4.18677  0  0  0.213795  0.586007  0  4.197494  0
N  N44  1  0.88887655  0.17783353  0.91767934  1  0  -0.462029  0  3.321203  0  0  -0.405516  0  3.556503  0  0  -0.428167  0  3.565573  0  0  -0.396661  -0.38979  0  3.550234  0
N  N45  1  0.11113061  0.67786028  0.08234440  1  0  -0.461991  0  3.321623  0  0  -0.405516  0  3.556742  0  0  -0.42818  0  3.565807  0  0  -0.396685  -0.389797  0  3.55049  0
O  O46  1  0.00623144  0.86328372  0.76338072  1  0  -0.64857  0  2.060698  0  0  -0.575324  0  2.332498  0  0  -0.604348  0  2.317578  0  0  -0.317521  -0.555244  0  2.342445  0
O  O47  1  0.99376660  0.36328326  0.23661602  1  0  -0.648611  0  2.060987  0  0  -0.57532  0  2.332769  0  0  -0.604343  0  2.317852  0  0  -0.317507  -0.555244  0  2.342721  0
O  O48  1  0.18484726  0.91252116  0.61671166  1  0  -0.64991  0  2.025798  0  0  -0.582247  0  2.238953  0  0  -0.607176  0  2.227559  0  0  -0.3122  -0.564888  0  2.246466  0
O  O49  1  0.81514577  0.41252414  0.38327610  1  0  -0.649969  0  2.025679  0  0  -0.582319  0  2.238864  0  0  -0.607246  0  2.227467  0  0  -0.312174  -0.564957  0  2.246378  0
O  O50  1  0.68441383  0.25180092  0.70407861  1  0  -0.575076  0  1.971208  0  0  -0.517825  0  2.176848  0  0  -0.541673  0  2.168787  0  0  -0.288662  -0.501173  0  2.181864  0
O  O51  1  0.31559823  0.75182821  0.29591397  1  0  -0.574968  0  1.971333  0  0  -0.51779  0  2.176832  0  0  -0.541648  0  2.168757  0  0  -0.288656  -0.501131  0  2.181851  0
O  O52  1  0.24465286  0.13064305  0.20052478  1  0  -0.683437  0  2.037617  0  0  -0.607583  0  2.305301  0  0  -0.6374  0  2.289622  0  0  -0.324122  -0.586376  0  2.315385  0
O  O53  1  0.75534349  0.63062544  0.79947035  1  0  -0.683334  0  2.037961  0  0  -0.607475  0  2.305607  0  0  -0.637294  0  2.289935  0  0  -0.324099  -0.586275  0  2.315699  0
O  O54  1  0.52500537  0.85048880  0.53366257  1  0  -0.855733  0  1.900594  0  0  -0.785897  0  2.124729  0  0  -0.809799  0  2.083563  0  0  -0.575341  -0.768859  0  2.153162  0
O  O55  1  0.47500168  0.35047630  0.46633890  1  0  -0.855747  0  1.900608  0  0  -0.785926  0  2.124714  0  0  -0.809822  0  2.083547  0  0  -0.575334  -0.768887  0  2.153147  0
O  O56  1  0.61663749  0.10808253  0.32776493  1  0  -0.616065  0  1.991359  0  0  -0.56156  0  2.209728  0  0  -0.585814  0  2.198557  0  0  -0.305073  -0.5445  0  2.216766  0
O  O57  1  0.38336285  0.60809991  0.67223210  1  0  -0.616098  0  1.991393  0  0  -0.561606  0  2.209738  0  0  -0.585864  0  2.198566  0  0  -0.305032  -0.544538  0  2.216772  0
O  O58  1  0.93993106  0.62926997  0.54194754  1  0  -0.867482  0  1.879221  0  0  -0.794621  0  2.10211  0  0  -0.8179  0  2.060884  0  0  -0.571855  -0.77819  0  2.130952  0
O  O59  1  0.06006649  0.12926164  0.45803922  1  0  -0.867529  0  1.879257  0  0  -0.794711  0  2.102142  0  0  -0.817984  0  2.060913  0  0  -0.571871  -0.778277  0  2.13097  0
