# generated using pymatgen
data_H6Pb2C8SO9
_symmetry_space_group_name_H-M   'P 1'
_cell_length_a   6.81743594
_cell_length_b   8.45760983
_cell_length_c   10.88418604
_cell_angle_alpha   89.91518231
_cell_angle_beta   107.28867068
_cell_angle_gamma   91.48636267
_symmetry_Int_Tables_number   1
_chemical_formula_structural   H6Pb2C8SO9
_chemical_formula_sum   'H12 Pb4 C16 S2 O18'
_cell_volume   599.00519187
_cell_formula_units_Z   2
loop_
 _symmetry_equiv_pos_site_id
 _symmetry_equiv_pos_as_xyz
  1  'x, y, z'
loop_
 _atom_site_type_symbol
 _atom_site_label
 _atom_site_symmetry_multiplicity
 _atom_site_fract_x
 _atom_site_fract_y
 _atom_site_fract_z
 _atom_site_occupancy
 _atom_site_hle17_bader_spin_density
 _atom_site_hle17_ddec_charge
 _atom_site_hle17_ddec_spin_density
 _atom_site_hle17_ddec_sum_bond_order
 _atom_site_hle17_magmom
 _atom_site_hse06_10hf_bader_spin_density
 _atom_site_hse06_10hf_ddec_charge
 _atom_site_hse06_10hf_ddec_spin_density
 _atom_site_hse06_10hf_ddec_sum_bond_order
 _atom_site_hse06_10hf_magmom
 _atom_site_hse06_bader_spin_density
 _atom_site_hse06_ddec_charge
 _atom_site_hse06_ddec_spin_density
 _atom_site_hse06_ddec_sum_bond_order
 _atom_site_hse06_magmom
 _atom_site_pbe_bader_spin_density
 _atom_site_pbe_cm5_charge
 _atom_site_pbe_ddec_charge
 _atom_site_pbe_ddec_spin_density
 _atom_site_pbe_ddec_sum_bond_order
 _atom_site_pbe_magmom
H  H0  1  0.55840162  0.34117747  0.43159725  1  0  0.127192  0  0.919657  0  0  0.134645  0  0.981769  0  0  0.139182  0  0.977498  0  0  0.118163  0.131357  0  0.984859  0
H  H1  1  0.44158609  0.65882521  0.56841272  1  0  0.127094  0  0.919739  0  0  0.134584  0  0.98178  0  0  0.139121  0  0.97751  0  0  0.118144  0.131295  0  0.984874  0
H  H2  1  0.84986979  0.91406198  0.59811822  1  0  0.10706  0  0.941473  0  0  0.113517  0  1.010883  0  0  0.11772  0  1.007027  0  0  0.108813  0.110519  0  1.013617  0
H  H3  1  0.15015712  0.08596097  0.40188829  1  0  0.107054  0  0.941349  0  0  0.113627  0  1.010696  0  0  0.117832  0  1.00684  0  0  0.108843  0.110629  0  1.013432  0
H  H4  1  0.57693493  0.94253886  0.18777268  1  0  0.114238  0  0.955527  0  0  0.11885  0  1.026851  0  0  0.122745  0  1.023392  0  0  0.113338  0.116172  0  1.02903  0
H  H5  1  0.42306200  0.05746152  0.81223352  1  0  0.114249  0  0.955451  0  0  0.118835  0  1.026833  0  0  0.122731  0  1.023373  0  0  0.113354  0.116159  0  1.029012  0
H  H6  1  0.17281577  0.34482492  0.91205122  1  0  0.410766  0  0.876498  0  0  0.381307  0  0.950443  0  0  0.391835  0  0.935385  0  0  0.291999  0.373953  0  0.958988  0
H  H7  1  0.82717204  0.65517438  0.08794221  1  0  0.410671  0  0.876674  0  0  0.381225  0  0.950571  0  0  0.391756  0  0.935511  0  0  0.291975  0.373866  0  0.959149  0
H  H8  1  0.00026238  0.09512001  0.12426337  1  0  0.439713  0  0.83217  0  0  0.409252  0  0.903723  0  0  0.419222  0  0.888914  0  0  0.306029  0.402174  0  0.91421  0
H  H9  1  0.99973853  0.90486145  0.87574350  1  0  0.439731  0  0.83211  0  0  0.409276  0  0.903694  0  0  0.419249  0  0.88888  0  0  0.306069  0.402193  0  0.914189  0
H  H10  1  0.79177639  0.02149190  0.03609953  1  0  0.443633  0  0.847428  0  0  0.41467  0  0.906921  0  0  0.424608  0  0.892433  0  0  0.299576  0.407654  0  0.917123  0
H  H11  1  0.20822458  0.97849076  0.96390645  1  0  0.44361  0  0.84751  0  0  0.414624  0  0.907023  0  0  0.424561  0  0.892536  0  0  0.299592  0.40761  0  0.91722  0
Pb  Pb12  1  0.06418069  0.54696780  0.70571268  1  0  1.395549  0  1.475955  0  0  1.229649  0  1.873577  0  0  1.283685  0  1.832119  0  0  0.647673  1.19049  0  1.902601  0
Pb  Pb13  1  0.93580235  0.45302675  0.29428074  1  0  1.395548  0  1.475936  0  0  1.229622  0  1.873569  0  0  1.283662  0  1.832108  0  0  0.647685  1.190463  0  1.902594  0
Pb  Pb14  1  0.75029806  0.35635710  0.91464949  1  0  1.424159  0  1.347826  0  0  1.253927  0  1.728594  0  0  1.311231  0  1.684875  0  0  0.648746  1.21275  0  1.758453  0
Pb  Pb15  1  0.24968951  0.64363624  0.08534754  1  0  1.42413  0  1.347777  0  0  1.253899  0  1.72853  0  0  1.3112  0  1.684819  0  0  0.648714  1.212716  0  1.758391  0
C  C16  1  0.55446118  0.14910203  0.29804184  1  0  -0.144795  0  3.78443  0  0  -0.111566  0  4.030111  0  0  -0.122239  0  4.052705  0  0  -0.019003  -0.1048  0  4.015061  0
C  C17  1  0.44553283  0.85090308  0.70196291  1  0  -0.145056  0  3.784718  0  0  -0.111688  0  4.030213  0  0  -0.122369  0  4.052816  0  0  -0.019022  -0.104925  0  4.015168  0
C  C18  1  0.60571848  0.22150164  0.41916787  1  0  -0.064037  0  3.696554  0  0  -0.100325  0  3.948888  0  0  -0.095704  0  3.965785  0  0  -0.066226  -0.102755  0  3.937013  0
C  C19  1  0.39428011  0.77850230  0.58083774  1  0  -0.063726  0  3.696477  0  0  -0.100082  0  3.948778  0  0  -0.095467  0  3.965693  0  0  -0.066152  -0.102515  0  3.936908  0
C  C20  1  0.71631959  0.13682843  0.52749902  1  0  -0.060001  0  3.729608  0  0  -0.035642  0  3.967621  0  0  -0.046081  0  3.991518  0  0  -0.01394  -0.029192  0  3.951748  0
C  C21  1  0.28369151  0.86318262  0.47250901  1  0  -0.06024  0  3.729748  0  0  -0.035822  0  3.967727  0  0  -0.046267  0  3.991632  0  0  -0.013967  -0.029369  0  3.95185  0
C  C22  1  0.76876395  0.98058323  0.51333608  1  0  -0.03358  0  3.654896  0  0  -0.071125  0  3.903816  0  0  -0.066049  0  3.921475  0  0  -0.062512  -0.074189  0  3.892124  0
C  C23  1  0.23125489  0.01942672  0.48666608  1  0  -0.033472  0  3.655043  0  0  -0.07126  0  3.904096  0  0  -0.066188  0  3.921765  0  0  -0.062539  -0.074325  0  3.8924  0
C  C24  1  0.71772096  0.91022427  0.39125864  1  0  -0.065696  0  3.73027  0  0  -0.038489  0  3.964726  0  0  -0.049822  0  3.987546  0  0  -0.014316  -0.0315  0  3.949741  0
C  C25  1  0.28228680  0.08977619  0.60874320  1  0  -0.065826  0  3.730576  0  0  -0.038548  0  3.965078  0  0  -0.049883  0  3.987903  0  0  -0.01434  -0.031557  0  3.950093  0
C  C26  1  0.61303917  0.99599903  0.28288318  1  0  -0.030133  0  3.702885  0  0  -0.073052  0  3.956648  0  0  -0.066575  0  3.972563  0  0  -0.06699  -0.076834  0  3.945439  0
C  C27  1  0.38695953  0.00400615  0.71711695  1  0  -0.029957  0  3.703137  0  0  -0.072901  0  3.956841  0  0  -0.066425  0  3.972762  0  0  -0.06695  -0.07669  0  3.945639  0
C  C28  1  0.77338420  0.21292345  0.65835649  1  0  0.638475  0  3.919701  0  0  0.587021  0  4.210437  0  0  0.620427  0  4.20698  0  0  0.207135  0.564615  0  4.211735  0
C  C29  1  0.22662058  0.78707938  0.34164387  1  0  0.638408  0  3.919703  0  0  0.587047  0  4.210303  0  0  0.620454  0  4.206848  0  0  0.207142  0.564638  0  4.211603  0
C  C30  1  0.77221905  0.74428652  0.37196594  1  0  0.657224  0  3.907157  0  0  0.606024  0  4.194282  0  0  0.641214  0  4.188037  0  0  0.211032  0.582129  0  4.197768  0
C  C31  1  0.22779359  0.25571876  0.62802767  1  0  0.657272  0  3.907402  0  0  0.606027  0  4.194559  0  0  0.641218  0  4.188319  0  0  0.211033  0.58213  0  4.198044  0
S  S32  1  0.40753450  0.25199313  0.16024702  1  0  1.317484  0  5.639342  0  0  1.216056  0  6.149676  0  0  1.265517  0  6.127314  0  0  0.52587  1.181547  0  6.164658  0
S  S33  1  0.59245786  0.74800613  0.83975187  1  0  1.317689  0  5.639473  0  0  1.216279  0  6.149726  0  0  1.265741  0  6.127363  0  0  0.525957  1.181764  0  6.164726  0
O  O34  1  0.83161077  0.12868720  0.75786477  1  0  -0.631154  0  1.934152  0  0  -0.572781  0  2.163251  0  0  -0.600037  0  2.157579  0  0  -0.301048  -0.553973  0  2.16644  0
O  O35  1  0.16838484  0.87131681  0.24213293  1  0  -0.631152  0  1.93416  0  0  -0.572822  0  2.163222  0  0  -0.600081  0  2.157549  0  0  -0.301091  -0.554014  0  2.166414  0
O  O36  1  0.75462623  0.36488297  0.66253386  1  0  -0.701344  0  1.988665  0  0  -0.624128  0  2.22563  0  0  -0.654738  0  2.217776  0  0  -0.306372  -0.60259  0  2.230081  0
O  O37  1  0.24536620  0.63511865  0.33746506  1  0  -0.701269  0  1.988723  0  0  -0.624076  0  2.225624  0  0  -0.654688  0  2.217774  0  0  -0.306357  -0.602537  0  2.230069  0
O  O38  1  0.87765536  0.66468743  0.46666757  1  0  -0.704734  0  2.030389  0  0  -0.634095  0  2.271487  0  0  -0.666114  0  2.266448  0  0  -0.299366  -0.61159  0  2.274171  0
O  O39  1  0.12237430  0.33531911  0.53332378  1  0  -0.704757  0  2.030618  0  0  -0.634104  0  2.271735  0  0  -0.666127  0  2.266698  0  0  -0.299428  -0.611596  0  2.274416  0
O  O40  1  0.71402334  0.68809375  0.25718027  1  0  -0.666818  0  2.013721  0  0  -0.598379  0  2.252707  0  0  -0.628633  0  2.246449  0  0  -0.295721  -0.577244  0  2.2562  0
O  O41  1  0.28596780  0.31191382  0.74281476  1  0  -0.666808  0  2.013752  0  0  -0.598353  0  2.252748  0  0  -0.628606  0  2.246492  0  0  -0.295659  -0.577221  0  2.256241  0
O  O42  1  0.35143972  0.14167902  0.05090953  1  0  -0.659059  0  1.971056  0  0  -0.599194  0  2.213494  0  0  -0.619596  0  2.197146  0  0  -0.323473  -0.585028  0  2.224461  0
O  O43  1  0.64854721  0.85830000  0.94910110  1  0  -0.659137  0  1.971234  0  0  -0.599309  0  2.213697  0  0  -0.619717  0  2.197352  0  0  -0.323451  -0.585106  0  2.224601  0
O  O44  1  0.22998631  0.31201963  0.19512273  1  0  -0.7104  0  2.007667  0  0  -0.646418  0  2.26841  0  0  -0.672229  0  2.256123  0  0  -0.32045  -0.628046  0  2.276309  0
O  O45  1  0.77001423  0.68799154  0.80486951  1  0  -0.7104  0  2.00743  0  0  -0.646489  0  2.268244  0  0  -0.672295  0  2.255956  0  0  -0.320496  -0.628116  0  2.276143  0
O  O46  1  0.54171623  0.38418862  0.13952598  1  0  -0.762414  0  2.080621  0  0  -0.693111  0  2.34387  0  0  -0.722174  0  2.335421  0  0  -0.31547  -0.672178  0  2.348953  0
O  O47  1  0.45828802  0.61579419  0.86046501  1  0  -0.76245  0  2.080726  0  0  -0.693157  0  2.34397  0  0  -0.722216  0  2.335519  0  0  -0.315535  -0.672211  0  2.349022  0
O  O48  1  0.08797384  0.43641993  0.91300785  1  0  -0.979265  0  1.799114  0  0  -0.864406  0  2.023555  0  0  -0.902241  0  1.999958  0  0  -0.510173  -0.837579  0  2.037101  0
O  O49  1  0.91201094  0.56357939  0.08698225  1  0  -0.979158  0  1.79929  0  0  -0.86434  0  2.023698  0  0  -0.902163  0  2.000049  0  0  -0.510165  -0.837517  0  2.037276  0
O  O50  1  0.85847809  0.12063319  0.07817591  1  0  -0.862053  0  1.80911  0  0  -0.802151  0  1.994813  0  0  -0.825095  0  1.966175  0  0  -0.563311  -0.785814  0  2.014452  0
O  O51  1  0.14152154  0.87935307  0.92182339  1  0  -0.862058  0  1.809152  0  0  -0.802148  0  1.994931  0  0  -0.825094  0  1.966291  0  0  -0.563358  -0.78581  0  2.014576  0
