# generated using pymatgen
data_NiH14C14S2N2O5
_symmetry_space_group_name_H-M   'P 1'
_cell_length_a   8.15111713
_cell_length_b   10.31237480
_cell_length_c   10.68287733
_cell_angle_alpha   66.64949361
_cell_angle_beta   72.11433571
_cell_angle_gamma   86.79094638
_symmetry_Int_Tables_number   1
_chemical_formula_structural   NiH14C14S2N2O5
_chemical_formula_sum   'Ni2 H28 C28 S4 N4 O10'
_cell_volume   782.35998154
_cell_formula_units_Z   2
loop_
 _symmetry_equiv_pos_site_id
 _symmetry_equiv_pos_as_xyz
  1  'x, y, z'
loop_
 _atom_site_type_symbol
 _atom_site_label
 _atom_site_symmetry_multiplicity
 _atom_site_fract_x
 _atom_site_fract_y
 _atom_site_fract_z
 _atom_site_occupancy
 _atom_site_hle17_ddec_charge
 _atom_site_hle17_ddec_spin_density
 _atom_site_hle17_ddec_sum_bond_order
 _atom_site_hle17_magmom
 _atom_site_hse06_10hf_ddec_charge
 _atom_site_hse06_10hf_ddec_spin_density
 _atom_site_hse06_10hf_ddec_sum_bond_order
 _atom_site_hse06_10hf_magmom
 _atom_site_hse06_ddec_charge
 _atom_site_hse06_ddec_spin_density
 _atom_site_hse06_ddec_sum_bond_order
 _atom_site_hse06_magmom
 _atom_site_pbe_cm5_charge
 _atom_site_pbe_ddec_charge
 _atom_site_pbe_ddec_spin_density
 _atom_site_pbe_ddec_sum_bond_order
 _atom_site_pbe_magmom
Ni  Ni0  1  0.50752870  0.71121092  0.78248994  1  0.825793  -1.766104  1.96496  -1.499  0.826044  -1.820984  2.352387  -1.622  0.922962  -1.87628  2.274433  -1.71  0.630831  0.753535  -1.772535  2.411964  -1.546
Ni  Ni1  1  0.49247401  0.28878813  0.21751071  1  0.825661  -1.766097  1.965135  -1.499  0.825879  -1.820977  2.352593  -1.622  0.922791  -1.876275  2.27466  -1.71  0.630796  0.753454  -1.772531  2.412032  -1.546
H  H2  1  0.23120850  0.58456465  0.84480154  1  0.397274  0.001166  0.920865  0.002  0.366834  0.000385  0.988176  0.001  0.379245  0.000515  0.970391  0.001  0.279763  0.357913  0.000188  1.001029  0.001
H  H3  1  0.76878644  0.41543334  0.15519660  1  0.39726  0.001166  0.920919  0.002  0.366887  0.000385  0.988107  0.001  0.379298  0.000515  0.970322  0.001  0.279783  0.357966  0.000189  1.000961  0.001
H  H4  1  0.31464840  0.47886661  0.96444182  1  0.418654  0.000415  0.887286  0.001  0.391293  -0.000322  0.947401  0.0  0.402955  -8.5e-05  0.931002  0.0  0.288341  0.382758  -0.00059  0.95943  0.0
H  H5  1  0.68534531  0.52113242  0.03555902  1  0.418603  0.000415  0.887356  0.001  0.391287  -0.000321  0.947426  0.0  0.402917  -8.5e-05  0.931057  0.0  0.288305  0.382759  -0.00059  0.959452  0.0
H  H6  1  0.96663098  0.92216125  0.81169580  1  0.119358  -0.00015  0.959309  0.0  0.124944  -0.000262  1.032516  0.0  0.126784  -0.000167  1.032812  0.0  0.101695  0.123832  -0.000345  1.032314  0.0
H  H7  1  0.03337141  0.07783460  0.18830987  1  0.11933  -0.000151  0.959332  0.0  0.124934  -0.000262  1.032517  0.0  0.126759  -0.000166  1.032825  0.0  0.101683  0.123818  -0.000345  1.032316  0.0
H  H8  1  0.01785669  0.74536508  0.84574214  1  0.154465  0.000395  0.932496  0.0  0.17013  0.000188  0.982262  0.0  0.172989  0.000149  0.981032  0.0  0.118009  0.168062  0.000214  0.983531  0.0
H  H9  1  0.98215127  0.25463607  0.15426308  1  0.154472  0.000393  0.932568  0.0  0.170158  0.000188  0.982297  0.0  0.173007  0.000149  0.98108  0.0  0.118016  0.168086  0.000214  0.983562  0.0
H  H10  1  0.76139820  0.03937621  0.88179845  1  0.099219  -0.000227  0.991486  0.0  0.10582  -0.000243  1.060449  0.0  0.108803  -0.000172  1.060345  0.0  0.097497  0.103633  -0.000288  1.060841  0.0
H  H11  1  0.23859951  0.96062493  0.11820443  1  0.09919  -0.000229  0.991521  0.0  0.105787  -0.000243  1.060491  0.0  0.108769  -0.000172  1.060386  0.0  0.097484  0.103601  -0.000288  1.060886  0.0
H  H12  1  0.62148504  0.22677692  0.95558824  1  0.09085  -0.000502  0.943055  -0.001  0.097406  -0.000405  1.007365  -0.001  0.099205  -0.000252  1.006134  -0.001  0.116297  0.0961  -0.000538  1.008337  -0.001
H  H13  1  0.37851525  0.77322423  0.04441311  1  0.090869  -0.000501  0.943038  -0.001  0.09743  -0.000405  1.007335  -0.001  0.09923  -0.000252  1.006103  -0.001  0.116301  0.096127  -0.000538  1.008308  -0.001
H  H14  1  0.60986365  0.00134232  0.37735569  1  0.09524  -0.000497  0.948286  -0.001  0.103917  -0.000402  1.00937  -0.001  0.106617  -0.000251  1.006452  -0.001  0.11964  0.101824  -0.00053  1.011711  -0.001
H  H15  1  0.39013023  0.99865881  0.62264525  1  0.09526  -0.000495  0.948253  -0.001  0.103915  -0.000402  1.009374  -0.001  0.10661  -0.000251  1.006455  -0.001  0.119641  0.101821  -0.000529  1.011716  -0.001
H  H16  1  0.75474529  0.80506984  0.32336608  1  0.110709  -0.00033  0.947483  0.0  0.120699  -0.000376  1.007849  0.0  0.124241  -0.000259  1.006421  0.0  0.104523  0.11834  -0.000465  1.008794  0.0
H  H17  1  0.24524991  0.19493233  0.67663791  1  0.110716  -0.000331  0.947461  0.0  0.120698  -0.000376  1.00784  0.0  0.124239  -0.000259  1.006414  0.0  0.104525  0.118337  -0.000465  1.008785  0.0
H  H18  1  0.34092472  0.90273101  0.38457891  1  0.122503  0.000475  0.962359  0.0  0.133054  0.000107  1.026268  0.0  0.135217  0.00011  1.025629  0.0  0.103023  0.131521  0.000118  1.026782  0.0
H  H19  1  0.65906991  0.09727863  0.61541490  1  0.122449  0.000472  0.962471  0.0  0.133053  0.000107  1.026306  0.0  0.135228  0.00011  1.025651  0.0  0.103038  0.131521  0.000118  1.026819  0.0
H  H20  1  0.15738884  0.93376189  0.50348482  1  0.150809  0.000113  0.903383  0.0  0.169395  -6.3e-05  0.951814  0.0  0.172654  -2e-05  0.949408  0.0  0.117123  0.166712  -0.000134  0.95417  0.0
H  H21  1  0.84261024  0.06623930  0.49651117  1  0.150863  0.00011  0.903305  0.0  0.16942  -6.3e-05  0.951763  0.0  0.172679  -2e-05  0.94936  0.0  0.117138  0.166737  -0.000134  0.954123  0.0
H  H22  1  0.97767975  0.58128896  0.32542222  1  0.109874  -0.000316  0.95395  0.0  0.117405  -0.000372  1.019765  0.0  0.121117  -0.000258  1.018347  0.0  0.101382  0.11482  -0.000458  1.020835  0.0
H  H23  1  0.02231903  0.41870903  0.67457786  1  0.109835  -0.000317  0.953994  0.0  0.117367  -0.000372  1.019807  0.0  0.121077  -0.000258  1.018394  0.0  0.101361  0.114782  -0.000458  1.020877  0.0
H  H24  1  0.13220043  0.40407330  0.25006477  1  0.083414  -0.000523  0.977572  -0.001  0.088556  -0.00048  1.045863  -0.001  0.091619  -0.00032  1.04186  -0.001  0.11286  0.08609  -0.00062  1.049058  -0.001
H  H25  1  0.86779833  0.59592468  0.74993625  1  0.083412  -0.000522  0.977613  -0.001  0.08859  -0.00048  1.045863  -0.001  0.091653  -0.000321  1.041862  -0.001  0.112874  0.086119  -0.00062  1.049065  -0.001
H  H26  1  0.58216022  0.50696488  0.30811212  1  0.072809  -0.00049  0.972653  -0.001  0.075549  -0.00044  1.046629  -0.001  0.07833  -0.000274  1.043506  -0.001  0.111844  0.073352  -0.000562  1.04922  -0.001
H  H27  1  0.41783710  0.49303099  0.69188815  1  0.072811  -0.000491  0.972615  -0.001  0.075552  -0.00044  1.046598  -0.001  0.078335  -0.000274  1.043471  -0.001  0.111833  0.073358  -0.000562  1.04918  -0.001
H  H28  1  0.44543995  0.69172517  0.38695212  1  0.108605  -0.000294  0.97939  0.0  0.119427  -0.00029  1.040055  0.0  0.122018  -0.000213  1.040624  0.0  0.103819  0.11738  -0.000337  1.040148  0.0
H  H29  1  0.55456280  0.30827391  0.61304476  1  0.108596  -0.000294  0.979394  0.0  0.119411  -0.00029  1.040085  0.0  0.121984  -0.000213  1.040676  0.0  0.103794  0.117362  -0.000337  1.040177  0.0
C  C30  1  0.76200427  0.77930706  0.83775209  1  0.677658  0.012316  3.846518  0.011  0.632426  0.004588  4.155556  0.005  0.667747  0.004077  4.151921  0.004  0.198828  0.608089  0.004903  4.156019  0.005
C  C31  1  0.23799694  0.22068985  0.16225158  1  0.677889  0.012313  3.846364  0.011  0.632673  0.004588  4.155361  0.005  0.667999  0.004077  4.15171  0.004  0.198948  0.608326  0.004903  4.155839  0.005
C  C32  1  0.91530147  0.81148046  0.87599562  1  -0.314441  -0.00265  3.633147  -0.003  -0.340998  -0.002049  3.879303  -0.002  -0.345266  -0.001335  3.883582  -0.001  -0.150563  -0.338619  -0.002727  3.877067  -0.003
C  C33  1  0.08469856  0.18851752  0.12400698  1  -0.314532  -0.002644  3.633137  -0.003  -0.341126  -0.00205  3.879324  -0.002  -0.345376  -0.001335  3.883617  -0.001  -0.150607  -0.338722  -0.002727  3.877061  -0.003
C  C34  1  0.77351090  0.90389958  0.09597877  1  0.08023  0.011999  3.803704  0.008  0.09583  0.004387  4.059358  0.003  0.10453  0.004365  4.07924  0.003  0.004972  0.089498  0.004919  4.046126  0.003
C  C35  1  0.22649067  0.09610157  0.90402322  1  0.08017  0.011957  3.803744  0.008  0.095817  0.004386  4.059335  0.003  0.104517  0.004364  4.079217  0.003  0.004943  0.089485  0.00492  4.0461  0.003
C  C36  1  0.73119389  0.02462896  0.99338936  1  -0.183459  -0.007206  3.749518  -0.009  -0.20202  -0.002606  4.000674  -0.004  -0.211529  -0.002454  4.021108  -0.003  -0.099196  -0.196163  -0.00279  3.987733  -0.004
C  C37  1  0.26880639  0.97537218  0.00661292  1  -0.183313  -0.007175  3.749716  -0.009  -0.201887  -0.002606  4.000845  -0.004  -0.211395  -0.002454  4.02128  -0.003  -0.099132  -0.196034  -0.002789  3.987907  -0.004
C  C38  1  0.65329714  0.13137255  0.03374478  1  0.142081  0.013354  3.69486  0.009  0.113673  0.004453  3.955159  0.003  0.125059  0.005114  3.972  0.003  0.045532  0.105677  0.004359  3.944263  0.003
C  C39  1  0.34670057  0.86862858  0.96625810  1  0.142001  0.013306  3.694898  0.009  0.113612  0.004454  3.955196  0.003  0.124996  0.005112  3.972041  0.003  0.045517  0.105615  0.004358  3.944298  0.003
C  C40  1  0.64792744  0.00667601  0.26832181  1  0.1228  0.010977  3.707938  0.007  0.09612  0.002908  3.965013  0.002  0.106496  0.003805  3.981523  0.003  0.037592  0.088741  0.002522  3.954171  0.002
C  C41  1  0.35206762  0.99332406  0.73168019  1  0.122762  0.010922  3.708018  0.007  0.096088  0.002907  3.965148  0.002  0.106473  0.003806  3.981651  0.003  0.037565  0.088708  0.002522  3.954296  0.002
C  C42  1  0.72805900  0.89618291  0.23733272  1  -0.185916  -0.006922  3.748895  -0.009  -0.204152  -0.002638  4.003436  -0.004  -0.212726  -0.002487  4.021731  -0.003  -0.0972  -0.198065  -0.003064  3.991158  -0.004
C  C43  1  0.27193735  0.10381717  0.76266899  1  -0.1859  -0.006892  3.748887  -0.009  -0.204135  -0.002637  4.003423  -0.004  -0.212708  -0.002486  4.021715  -0.003  -0.097174  -0.198048  -0.003064  3.99114  -0.004
C  C44  1  0.27674070  0.74700813  0.60414375  1  0.688258  0.00689  3.861842  0.006  0.643426  0.001845  4.17251  0.002  0.678522  0.001703  4.167112  0.001  0.207821  0.619046  0.001984  4.174943  0.002
C  C45  1  0.72326343  0.25299200  0.39585336  1  0.688381  0.006884  3.861741  0.006  0.643542  0.001846  4.172406  0.002  0.678638  0.001704  4.167005  0.001  0.207911  0.619162  0.001984  4.174842  0.002
C  C46  1  0.22583160  0.84948277  0.47511118  1  -0.314442  -0.004896  3.656969  -0.006  -0.348529  -0.002888  3.91359  -0.004  -0.352587  -0.001931  3.916959  -0.003  -0.153301  -0.345655  -0.003868  3.911709  -0.005
C  C47  1  0.77417140  0.15051947  0.52488633  1  -0.314489  -0.004888  3.657191  -0.006  -0.348585  -0.002888  3.913793  -0.004  -0.352652  -0.001932  3.917154  -0.003  -0.153333  -0.345715  -0.003867  3.911919  -0.005
C  C48  1  0.19675568  0.65516664  0.36331102  1  0.079846  0.011913  3.803991  0.008  0.095441  0.00441  4.058776  0.003  0.103855  0.004345  4.078816  0.003  0.004509  0.089351  0.005088  4.045443  0.003
C  C49  1  0.80324591  0.34483351  0.63668291  1  0.079922  0.011894  3.803901  0.008  0.095533  0.004411  4.058667  0.003  0.103935  0.004346  4.078725  0.003  0.00461  0.089444  0.005089  4.045332  0.003
C  C50  1  0.11250549  0.57122034  0.32198827  1  -0.176768  -0.007727  3.74745  -0.01  -0.196754  -0.002928  4.003919  -0.004  -0.206004  -0.002717  4.023346  -0.004  -0.09515  -0.190874  -0.003184  3.991576  -0.004
C  C51  1  0.88749467  0.42877872  0.67801014  1  -0.17672  -0.007712  3.747326  -0.01  -0.196696  -0.002928  4.003783  -0.004  -0.205943  -0.002718  4.023217  -0.004  -0.095104  -0.190817  -0.003184  3.991439  -0.004
C  C52  1  0.20071763  0.47001168  0.27851662  1  0.141904  0.011926  3.711696  0.008  0.111837  0.003452  3.974514  0.002  0.123707  0.004207  3.989845  0.003  0.042241  0.103339  0.003253  3.964972  0.002
C  C53  1  0.79928223  0.52998418  0.72148588  1  0.14179  0.011898  3.711721  0.008  0.11169  0.003452  3.97455  0.002  0.12356  0.004209  3.989888  0.003  0.042132  0.103195  0.003254  3.965006  0.002
C  C54  1  0.44810629  0.52697360  0.31288975  1  0.133274  0.013308  3.71137  0.009  0.107835  0.004563  3.96825  0.003  0.119023  0.005182  3.984579  0.003  0.038857  0.1001  0.004563  3.9574  0.003
C  C55  1  0.55189368  0.47302334  0.68711045  1  0.133263  0.013294  3.711282  0.009  0.107832  0.004563  3.968174  0.003  0.119025  0.00518  3.984492  0.003  0.038871  0.100095  0.004563  3.957323  0.003
C  C56  1  0.37003462  0.63112445  0.35758644  1  -0.184775  -0.006554  3.722864  -0.008  -0.199818  -0.002327  3.963291  -0.003  -0.209319  -0.002265  3.983967  -0.003  -0.101182  -0.193529  -0.002685  3.949992  -0.004
C  C57  1  0.62996553  0.36887460  0.64241292  1  -0.184793  -0.006543  3.722936  -0.008  -0.199859  -0.002327  3.963392  -0.003  -0.209342  -0.002265  3.984081  -0.003  -0.101219  -0.193567  -0.002685  3.950089  -0.004
S  S58  1  0.88177462  0.76472497  0.06340438  1  0.088968  0.000423  2.418939  -0.001  0.089368  -4e-05  2.743541  -0.001  0.084823  0.000561  2.744063  0.0  0.049919  0.092916  -0.000835  2.744181  -0.001
S  S59  1  0.11822832  0.23527724  0.93659783  1  0.089027  0.000415  2.418874  -0.001  0.089399  -4e-05  2.743479  -0.001  0.08486  0.000562  2.743989  0.0  0.049935  0.092935  -0.000835  2.74411  -0.001
S  S60  1  0.07827603  0.77896814  0.41914628  1  0.075068  0.001081  2.445631  -0.001  0.073565  0.000746  2.781364  0.0  0.069768  0.001077  2.780644  0.0  0.047868  0.076341  0.000196  2.782357  -0.001
S  S61  1  0.92172544  0.22103093  0.58085089  1  0.075078  0.001079  2.445723  -0.001  0.073553  0.000747  2.781463  0.0  0.069761  0.001078  2.780752  0.0  0.047842  0.076326  0.000197  2.782456  -0.001
N  N62  1  0.61173002  0.12455220  0.16849065  1  -0.301144  -0.051378  3.283288  -0.08  -0.259287  -0.033138  3.568871  -0.053  -0.288537  -0.026413  3.588941  -0.045  -0.337885  -0.23898  -0.038508  3.555967  -0.059
N  N63  1  0.38826754  0.87544683  0.83151118  1  -0.301171  -0.051355  3.283169  -0.08  -0.259349  -0.033138  3.568791  -0.053  -0.288601  -0.026413  3.588857  -0.045  -0.337903  -0.23903  -0.038508  3.555893  -0.059
N  N64  1  0.36658250  0.44610441  0.27361954  1  -0.310857  -0.051182  3.28947  -0.081  -0.270325  -0.032375  3.578272  -0.052  -0.29978  -0.025659  3.596435  -0.044  -0.338516  -0.250034  -0.037769  3.566675  -0.058
N  N65  1  0.63341636  0.55389464  0.72638012  1  -0.31079  -0.051174  3.289362  -0.081  -0.270267  -0.032375  3.578177  -0.052  -0.29972  -0.025659  3.596334  -0.044  -0.338457  -0.249957  -0.037769  3.566585  -0.058
O  O66  1  0.64169727  0.68517446  0.93302816  1  -0.620972  -0.047936  2.068183  -0.079  -0.578291  -0.032444  2.318513  -0.055  -0.61802  -0.023703  2.313355  -0.043  -0.303982  -0.548239  -0.040484  2.320734  -0.066
O  O67  1  0.35830528  0.31482248  0.06697238  1  -0.621073  -0.047945  2.068142  -0.079  -0.578388  -0.032448  2.318469  -0.055  -0.618127  -0.023706  2.31332  -0.043  -0.304034  -0.548343  -0.04049  2.320684  -0.066
O  O68  1  0.75896790  0.84148963  0.71005441  1  -0.577723  -0.041839  1.931913  -0.068  -0.55461  -0.028177  2.186258  -0.047  -0.591109  -0.019769  2.181391  -0.035  -0.300618  -0.526387  -0.036884  2.188434  -0.059
O  O69  1  0.24103247  0.15851258  0.28994745  1  -0.577798  -0.041835  1.931999  -0.068  -0.554675  -0.028176  2.186313  -0.047  -0.591176  -0.019769  2.18145  -0.035  -0.300655  -0.526463  -0.036881  2.188491  -0.059
O  O70  1  0.42589262  0.77981343  0.60409938  1  -0.607309  -0.050486  2.058163  -0.085  -0.582123  -0.032231  2.337003  -0.056  -0.621987  -0.02374  2.327725  -0.043  -0.314726  -0.552219  -0.040263  2.342543  -0.066
O  O71  1  0.57411575  0.22019198  0.39590038  1  -0.607335  -0.050474  2.058368  -0.084  -0.582102  -0.032226  2.33715  -0.056  -0.62196  -0.023737  2.327872  -0.043  -0.314722  -0.55221  -0.040256  2.342674  -0.066
O  O72  1  0.17201593  0.64498801  0.70039864  1  -0.623071  0.001287  1.981925  0.0  -0.56607  0.000891  2.200103  0.0  -0.591147  0.001122  2.19174  0.001  -0.312918  -0.548502  0.000639  2.205592  0.0
O  O73  1  0.82799768  0.35501647  0.29958718  1  -0.623149  0.001287  1.9817  0.0  -0.566172  0.00089  2.199841  0.0  -0.59125  0.001121  2.191477  0.001  -0.312986  -0.548604  0.000638  2.205331  0.0
O  O74  1  0.28790491  0.57882745  0.91832041  1  -0.78871  -0.049782  1.947513  -0.081  -0.766936  -0.034447  2.151789  -0.057  -0.8002  -0.025311  2.117542  -0.045  -0.579542  -0.741649  -0.04249  2.176545  -0.067
O  O75  1  0.71209262  0.42117056  0.08167620  1  -0.788618  -0.049788  1.947686  -0.081  -0.766948  -0.034451  2.15177  -0.057  -0.800168  -0.025314  2.117599  -0.045  -0.579525  -0.741683  -0.042494  2.176486  -0.067
