# generated using pymatgen
data_CdH10C10N5Cl3O
_symmetry_space_group_name_H-M   'P 1'
_cell_length_a   7.01788486
_cell_length_b   13.79266446
_cell_length_c   15.53966335
_cell_angle_alpha   104.05518975
_cell_angle_beta   90.00005856
_cell_angle_gamma   89.99996498
_symmetry_Int_Tables_number   1
_chemical_formula_structural   CdH10C10N5Cl3O
_chemical_formula_sum   'Cd4 H40 C40 N20 Cl12 O4'
_cell_volume   1459.13548329
_cell_formula_units_Z   4
loop_
 _symmetry_equiv_pos_site_id
 _symmetry_equiv_pos_as_xyz
  1  'x, y, z'
loop_
 _atom_site_type_symbol
 _atom_site_label
 _atom_site_symmetry_multiplicity
 _atom_site_fract_x
 _atom_site_fract_y
 _atom_site_fract_z
 _atom_site_occupancy
 _atom_site_hle17_bader_spin_density
 _atom_site_hle17_ddec_charge
 _atom_site_hle17_ddec_spin_density
 _atom_site_hle17_ddec_sum_bond_order
 _atom_site_hle17_magmom
 _atom_site_hse06_10hf_bader_spin_density
 _atom_site_hse06_10hf_ddec_charge
 _atom_site_hse06_10hf_ddec_spin_density
 _atom_site_hse06_10hf_ddec_sum_bond_order
 _atom_site_hse06_10hf_magmom
 _atom_site_hse06_bader_spin_density
 _atom_site_hse06_ddec_charge
 _atom_site_hse06_ddec_spin_density
 _atom_site_hse06_ddec_sum_bond_order
 _atom_site_hse06_magmom
 _atom_site_pbe_bader_spin_density
 _atom_site_pbe_cm5_charge
 _atom_site_pbe_ddec_charge
 _atom_site_pbe_ddec_spin_density
 _atom_site_pbe_ddec_sum_bond_order
 _atom_site_pbe_magmom
Cd  Cd0  1  0.08723847  0.57797530  0.25043883  1  0  0.969942  0  1.950237  0  0  0.820312  0  2.408027  0  0  0.865882  0  2.367373  0  0  0.547849  0.788072  0  2.435552  0
Cd  Cd1  1  0.58723736  0.42202398  0.74956175  1  0  0.969937  0  1.950248  0  0  0.82029  0  2.40805  0  0  0.865861  0  2.367394  0  0  0.547845  0.788049  0  2.43557  0
Cd  Cd2  1  0.56518030  0.44981547  0.27092522  1  0  0.974625  0  1.944531  0  0  0.825036  0  2.402182  0  0  0.870737  0  2.36133  0  0  0.546375  0.792693  0  2.429838  0
Cd  Cd3  1  0.06517683  0.55018380  0.72907471  1  0  0.974618  0  1.94445  0  0  0.825027  0  2.402087  0  0  0.870727  0  2.36124  0  0  0.546361  0.792682  0  2.429741  0
H  H4  1  0.23245626  0.23827555  0.28919298  1  0  0.074662  0  0.972391  0  0  0.078025  0  1.046601  0  0  0.080848  0  1.041988  0  0  0.11771  0.075889  0  1.049957  0
H  H5  1  0.73245751  0.76172070  0.71080574  1  0  0.074651  0  0.972422  0  0  0.078008  0  1.046644  0  0  0.080832  0  1.042026  0  0  0.117724  0.075871  0  1.05  0
H  H6  1  0.19632949  0.59200861  0.02917116  1  0  0.110561  0  0.919049  0  0  0.117683  0  0.981954  0  0  0.120657  0  0.977853  0  0  0.134447  0.115422  0  0.984997  0
H  H7  1  0.69632747  0.40799213  0.97082914  1  0  0.110609  0  0.919047  0  0  0.117693  0  0.981997  0  0  0.120667  0  0.977895  0  0  0.134437  0.11543  0  0.985042  0
H  H8  1  0.36038697  0.87403853  0.99369331  1  0  0.104651  0  0.946268  0  0  0.119868  0  1.005667  0  0  0.121187  0  1.004902  0  0  0.119894  0.11886  0  1.006258  0
H  H9  1  0.86038737  0.12596142  0.00630560  1  0  0.104646  0  0.946296  0  0  0.119866  0  1.005678  0  0  0.121185  0  1.004911  0  0  0.119903  0.118858  0  1.00627  0
H  H10  1  0.35179598  0.80169167  0.88229383  1  0  0.093328  0  0.933678  0  0  0.100344  0  1.006101  0  0  0.101856  0  1.004312  0  0  0.097777  0.099159  0  1.007469  0
H  H11  1  0.85179940  0.19830605  0.11770526  1  0  0.093279  0  0.933685  0  0  0.100271  0  1.006131  0  0  0.101782  0  1.004342  0  0  0.097772  0.099086  0  1.007501  0
H  H12  1  0.29810745  0.15700422  0.55474477  1  0  0.094521  0  0.91485  0  0  0.105398  0  0.982915  0  0  0.105913  0  0.982155  0  0  0.10698  0.104904  0  0.983652  0
H  H13  1  0.79810514  0.84299801  0.44525782  1  0  0.094575  0  0.914831  0  0  0.105457  0  0.982881  0  0  0.105976  0  0.982121  0  0  0.107  0.104963  0  0.98362  0
H  H14  1  0.20788935  0.05588306  0.47226987  1  0  0.096571  0  0.925145  0  0  0.10463  0  0.993585  0  0  0.107128  0  0.990319  0  0  0.114097  0.102873  0  0.995899  0
H  H15  1  0.70788996  0.94411696  0.52773479  1  0  0.096534  0  0.925232  0  0  0.104604  0  0.993656  0  0  0.107101  0  0.990394  0  0  0.114099  0.10285  0  0.995967  0
H  H16  1  0.37247337  0.10293472  0.70856112  1  0  0.122119  0  0.991958  0  0  0.127195  0  1.062185  0  0  0.129957  0  1.061934  0  0  0.092507  0.125172  0  1.062498  0
H  H17  1  0.87246780  0.89706824  0.29144101  1  0  0.122112  0  0.991892  0  0  0.127171  0  1.062156  0  0  0.129932  0  1.061906  0  0  0.092482  0.125148  0  1.062468  0
H  H18  1  0.61883124  0.16779894  0.88688922  1  0  0.114408  0  0.988706  0  0  0.119214  0  1.058338  0  0  0.121654  0  1.058081  0  0  0.099415  0.117428  0  1.058697  0
H  H19  1  0.11882746  0.83219881  0.11310784  1  0  0.114368  0  0.988729  0  0  0.119174  0  1.058372  0  0  0.121614  0  1.058115  0  0  0.099388  0.117388  0  1.05873  0
H  H20  1  0.22402793  0.95429295  0.78000569  1  0  0.119194  0  0.970968  0  0  0.127917  0  1.030918  0  0  0.130825  0  1.030369  0  0  0.101558  0.125904  0  1.03124  0
H  H21  1  0.72402037  0.04570855  0.21999670  1  0  0.119218  0  0.970835  0  0  0.12793  0  1.030819  0  0  0.130838  0  1.030268  0  0  0.101534  0.125913  0  1.031146  0
H  H22  1  0.70809595  0.01367796  0.74431444  1  0  0.098607  0  0.959152  0  0  0.102361  0  1.025493  0  0  0.104921  0  1.023629  0  0  0.116521  0.100517  0  1.026826  0
H  H23  1  0.20808804  0.98631903  0.25568379  1  0  0.098626  0  0.959051  0  0  0.102351  0  1.025424  0  0  0.10492  0  1.02355  0  0  0.116517  0.100505  0  1.026761  0
H  H24  1  0.94498724  0.86667583  0.66039171  1  0  0.097138  0  0.984655  0  0  0.09885  0  1.059664  0  0  0.101232  0  1.057456  0  0  0.111877  0.097236  0  1.061147  0
H  H25  1  0.44498623  0.13332488  0.33961062  1  0  0.097071  0  0.984763  0  0  0.098795  0  1.059735  0  0  0.101176  0  1.057529  0  0  0.111844  0.09718  0  1.061219  0
H  H26  1  0.68805048  0.69620906  0.24767819  1  0  0.312282  0  0.905646  0  0  0.289272  0  0.975283  0  0  0.298273  0  0.968291  0  0  0.290476  0.282854  0  0.980404  0
H  H27  1  0.18804736  0.30379094  0.75232259  1  0  0.312227  0  0.905704  0  0  0.289237  0  0.97531  0  0  0.298237  0  0.968317  0  0  0.290472  0.282819  0  0.980429  0
H  H28  1  0.96597634  0.33686700  0.27077872  1  0  0.306864  0  0.920217  0  0  0.28437  0  0.990779  0  0  0.293335  0  0.983763  0  0  0.285165  0.278001  0  0.995825  0
H  H29  1  0.46597559  0.66313145  0.72922121  1  0  0.306856  0  0.920251  0  0  0.284343  0  0.990807  0  0  0.293331  0  0.983791  0  0  0.285158  0.277977  0  0.995849  0
H  H30  1  0.99026341  0.68002238  0.93262638  1  0  0.305981  0  0.926376  0  0  0.283478  0  0.996536  0  0  0.29186  0  0.990092  0  0  0.284713  0.277521  0  1.001185  0
H  H31  1  0.49026156  0.31997830  0.06737404  1  0  0.305972  0  0.926379  0  0  0.283464  0  0.99654  0  0  0.291847  0  0.990096  0  0  0.284713  0.277506  0  1.001191  0
H  H32  1  0.41931700  0.78914401  0.21959121  1  0  0.077978  0  0.955375  0  0  0.08371  0  1.022877  0  0  0.086027  0  1.019567  0  0  0.120146  0.081873  0  1.025399  0
H  H33  1  0.91931336  0.21085519  0.78040887  1  0  0.078002  0  0.955306  0  0  0.083739  0  1.022824  0  0  0.086057  0  1.019514  0  0  0.120161  0.081904  0  1.025345  0
H  H34  1  0.70876682  0.77244339  0.90078058  1  0  0.281201  0  0.932725  0  0  0.261579  0  1.002535  0  0  0.269322  0  0.996872  0  0  0.284086  0.256072  0  1.006651  0
H  H35  1  0.20876801  0.22755585  0.09921941  1  0  0.281294  0  0.932594  0  0  0.261651  0  1.002464  0  0  0.269394  0  0.996794  0  0  0.284109  0.256146  0  1.006579  0
H  H36  1  0.61759965  0.27875245  0.55549545  1  0  0.301327  0  0.93032  0  0  0.278565  0  1.002293  0  0  0.286921  0  0.995574  0  0  0.28506  0.272609  0  1.007168  0
H  H37  1  0.11759961  0.72124756  0.44450465  1  0  0.301324  0  0.930308  0  0  0.278568  0  1.002283  0  0  0.286925  0  0.995564  0  0  0.28506  0.272612  0  1.007161  0
H  H38  1  0.42657470  0.39106464  0.47636149  1  0  0.106473  0  0.927141  0  0  0.112685  0  0.992443  0  0  0.115385  0  0.98874  0  0  0.130844  0.11063  0  0.995187  0
H  H39  1  0.92657143  0.60893531  0.52363874  1  0  0.106449  0  0.927158  0  0  0.112695  0  0.992431  0  0  0.115397  0  0.988725  0  0  0.130838  0.110641  0  0.995177  0
H  H40  1  0.44838150  0.07637540  0.00682102  1  0  0.130013  0  0.956002  0  0  0.138788  0  1.016611  0  0  0.142175  0  1.015361  0  0  0.102854  0.13636  0  1.017571  0
H  H41  1  0.94838034  0.92362452  0.99317471  1  0  0.130034  0  0.9561  0  0  0.13884  0  1.016669  0  0  0.142228  0  1.015419  0  0  0.102859  0.136412  0  1.017628  0
H  H42  1  0.90376431  0.17610433  0.57867291  1  0  0.28184  0  0.936569  0  0  0.262574  0  1.007196  0  0  0.270292  0  1.001442  0  0  0.283402  0.257081  0  1.011346  0
H  H43  1  0.40376409  0.82389638  0.42132812  1  0  0.281858  0  0.936525  0  0  0.262597  0  1.007154  0  0  0.270314  0  1.001401  0  0  0.283396  0.257104  0  1.011305  0
C  C44  1  0.52863194  0.76943626  0.16825764  1  0  0.345357  0  3.689071  0  0  0.282004  0  3.974375  0  0  0.303387  0  3.980363  0  0  0.19601  0.267971  0  3.970017  0
C  C45  1  0.02862909  0.23056451  0.83174130  1  0  0.345356  0  3.688881  0  0  0.281932  0  3.974232  0  0  0.303314  0  3.98022  0  0  0.195973  0.267898  0  3.969876  0
C  C46  1  0.11548517  0.24476917  0.33664018  1  0  0.341157  0  3.697591  0  0  0.274123  0  3.989663  0  0  0.296116  0  3.994074  0  0  0.192461  0.259605  0  3.986517  0
C  C47  1  0.61548632  0.75523009  0.66335912  1  0  0.341177  0  3.697641  0  0  0.274107  0  3.989711  0  0  0.296142  0  3.994135  0  0  0.192423  0.259591  0  3.986561  0
C  C48  1  0.81588801  0.69028443  0.12516551  1  0  0.342052  0  3.807835  0  0  0.304828  0  4.073064  0  0  0.320324  0  4.090652  0  0  0.2244  0.294706  0  4.061049  0
C  C49  1  0.31588943  0.30971777  0.87483321  1  0  0.341956  0  3.808042  0  0  0.304664  0  4.073309  0  0  0.32016  0  4.090896  0  0  0.224378  0.294543  0  4.061289  0
C  C50  1  0.82071761  0.31361458  0.38147908  1  0  0.34541  0  3.805195  0  0  0.309387  0  4.067874  0  0  0.32451  0  4.08606  0  0  0.224786  0.299527  0  4.055389  0
C  C51  1  0.32071801  0.68638389  0.61852015  1  0  0.345422  0  3.805282  0  0  0.309365  0  4.067943  0  0  0.324528  0  4.086138  0  0  0.224781  0.299506  0  4.055455  0
C  C52  1  0.79796227  0.71408997  0.04324089  1  0  -0.036761  0  3.747548  0  0  -0.039635  0  3.993768  0  0  -0.046762  0  4.015149  0  0  0.0959  -0.035463  0  3.979766  0
C  C53  1  0.29796106  0.28591000  0.95675865  1  0  -0.036715  0  3.747455  0  0  -0.039577  0  3.99371  0  0  -0.046704  0  4.015092  0  0  0.095928  -0.035407  0  3.979713  0
C  C54  1  0.82377705  0.26716435  0.45183958  1  0  -0.0291  0  3.745154  0  0  -0.035081  0  3.994285  0  0  -0.042141  0  4.015965  0  0  0.097603  -0.030907  0  3.980005  0
C  C55  1  0.32377580  0.73283487  0.54815981  1  0  -0.02907  0  3.745199  0  0  -0.035079  0  3.994308  0  0  -0.042136  0  4.015979  0  0  0.097591  -0.030908  0  3.980026  0
C  C56  1  0.63565263  0.76779308  0.02605955  1  0  0.406152  0  3.828478  0  0  0.366148  0  4.103693  0  0  0.39026  0  4.112973  0  0  0.257021  0.350176  0  4.097154  0
C  C57  1  0.13564868  0.23220543  0.97393961  1  0  0.406176  0  3.828445  0  0  0.366152  0  4.103689  0  0  0.39026  0  4.112967  0  0  0.257015  0.350181  0  4.097156  0
C  C58  1  0.98416160  0.20872353  0.46306752  1  0  0.402892  0  3.81597  0  0  0.366193  0  4.087397  0  0  0.390047  0  4.097105  0  0  0.255668  0.350372  0  4.080548  0
C  C59  1  0.48416596  0.79127567  0.53693387  1  0  0.402754  0  3.816171  0  0  0.366188  0  4.087438  0  0  0.390042  0  4.097146  0  0  0.25567  0.350369  0  4.080587  0
C  C60  1  0.06262538  0.63026578  0.04933658  1  0  0.294296  0  3.580752  0  0  0.226536  0  3.860932  0  0  0.245348  0  3.867737  0  0  0.171919  0.214234  0  3.856047  0
C  C61  1  0.56262337  0.36973423  0.95066222  1  0  0.294186  0  3.580746  0  0  0.226437  0  3.860924  0  0  0.24525  0  3.867728  0  0  0.171879  0.214135  0  3.856043  0
C  C62  1  0.56193030  0.35597004  0.45386103  1  0  0.301271  0  3.591563  0  0  0.233282  0  3.874912  0  0  0.251988  0  3.882638  0  0  0.170798  0.220997  0  3.869511  0
C  C63  1  0.06192915  0.64402998  0.54613905  1  0  0.301342  0  3.591602  0  0  0.233333  0  3.874939  0  0  0.25204  0  3.882667  0  0  0.170821  0.221046  0  3.869541  0
C  C64  1  0.44272084  0.85105177  0.93226118  1  0  -0.028988  0  3.690447  0  0  -0.092889  0  3.943538  0  0  -0.087706  0  3.951132  0  0  -0.056705  -0.096238  0  3.938374  0
C  C65  1  0.94271993  0.14894742  0.06773761  1  0  -0.028941  0  3.690512  0  0  -0.092775  0  3.943608  0  0  -0.087595  0  3.951199  0  0  -0.056656  -0.096123  0  3.938447  0
C  C66  1  0.17619039  0.10578039  0.53728706  1  0  -0.01807  0  3.708249  0  0  -0.084083  0  3.973799  0  0  -0.078345  0  3.98119  0  0  -0.055001  -0.088018  0  3.968974  0
C  C67  1  0.67619233  0.89422112  0.46271532  1  0  -0.018119  0  3.708338  0  0  -0.08416  0  3.973837  0  0  -0.07843  0  3.98124  0  0  -0.055025  -0.088099  0  3.969017  0
C  C68  1  0.50331308  0.94085755  0.90280255  1  0  0.186399  0  3.701291  0  0  0.181614  0  3.970764  0  0  0.189061  0  3.987639  0  0  0.056671  0.176565  0  3.959324  0
C  C69  1  0.00331161  0.05914096  0.09719397  1  0  0.186616  0  3.701203  0  0  0.181747  0  3.970808  0  0  0.189189  0  3.987683  0  0  0.056675  0.176696  0  3.95937  0
C  C70  1  0.15876644  0.04864508  0.60617599  1  0  0.186371  0  3.696634  0  0  0.181439  0  3.963674  0  0  0.18897  0  3.980694  0  0  0.053955  0.176444  0  3.952028  0
C  C71  1  0.65876389  0.95136092  0.39382668  1  0  0.186293  0  3.696722  0  0  0.181538  0  3.963568  0  0  0.189071  0  3.980588  0  0  0.053974  0.176542  0  3.951929  0
C  C72  1  0.50273372  0.04127002  0.94122493  1  0  -0.210839  0  3.772079  0  0  -0.236379  0  4.029509  0  0  -0.240969  0  4.049449  0  0  -0.123524  -0.233154  0  4.015935  0
C  C73  1  0.00273821  0.95873073  0.05876948  1  0  -0.211059  0  3.772222  0  0  -0.236592  0  4.029688  0  0  -0.241185  0  4.049628  0  0  -0.123533  -0.233362  0  4.016106  0
C  C74  1  0.25743301  0.05163250  0.68267217  1  0  -0.215674  0  3.795719  0  0  -0.241428  0  4.0534  0  0  -0.24633  0  4.074853  0  0  -0.130744  -0.23794  0  4.038689  0
C  C75  1  0.75742886  0.94837049  0.31733120  1  0  -0.215662  0  3.795642  0  0  -0.241443  0  4.053287  0  0  -0.246345  0  4.074738  0  0  -0.130703  -0.237957  0  4.038577  0
C  C76  1  0.59021297  0.08903178  0.87892051  1  0  -0.167435  0  3.830863  0  0  -0.189342  0  4.099203  0  0  -0.193471  0  4.119701  0  0  -0.130177  -0.186512  0  4.085276  0
C  C77  1  0.09020483  0.91096370  0.12107156  1  0  -0.167375  0  3.830568  0  0  -0.189276  0  4.098871  0  0  -0.193405  0  4.119373  0  0  -0.13017  -0.186445  0  4.08494  0
C  C78  1  0.18183137  0.97352420  0.71909298  1  0  -0.16098  0  3.82002  0  0  -0.182147  0  4.083014  0  0  -0.186565  0  4.104125  0  0  -0.13022  -0.178915  0  4.068408  0
C  C79  1  0.68182255  0.02647805  0.28090892  1  0  -0.161025  0  3.819986  0  0  -0.182191  0  4.083001  0  0  -0.186608  0  4.104112  0  0  -0.130246  -0.178965  0  4.068401  0
C  C80  1  0.63938729  0.01494362  0.80699108  1  0  0.082182  0  3.631842  0  0  0.048653  0  3.896106  0  0  0.05605  0  3.909256  0  0  -0.011987  0.043844  0  3.887078  0
C  C81  1  0.13938066  0.98505339  0.19300777  1  0  0.082166  0  3.631248  0  0  0.048721  0  3.895499  0  0  0.056108  0  3.908645  0  0  -0.011933  0.04391  0  3.886475  0
C  C82  1  0.04270822  0.92781512  0.66220970  1  0  0.056065  0  3.656946  0  0  0.01912  0  3.931429  0  0  0.026529  0  3.945001  0  0  -0.025107  0.013391  0  3.92361  0
C  C83  1  0.54270089  0.07218791  0.33779294  1  0  0.05611  0  3.656872  0  0  0.019206  0  3.93136  0  0  0.026612  0  3.944935  0  0  -0.025054  0.013503  0  3.923494  0
N  N84  1  0.50338492  0.79316325  0.09209987  1  0  -0.429683  0  3.027047  0  0  -0.39041  0  3.305747  0  0  -0.410599  0  3.315253  0  0  -0.319037  -0.376975  0  3.29911  0
N  N85  1  0.00338227  0.20683604  0.90790067  1  0  -0.429769  0  3.027133  0  0  -0.390448  0  3.305834  0  0  -0.410636  0  3.315341  0  0  -0.319065  -0.377009  0  3.299189  0
N  N86  1  0.12818426  0.20031624  0.40240505  1  0  -0.430618  0  3.007463  0  0  -0.394233  0  3.293538  0  0  -0.414191  0  3.301967  0  0  -0.322114  -0.380888  0  3.287607  0
N  N87  1  0.62818377  0.79968153  0.59759459  1  0  -0.430503  0  3.00763  0  0  -0.394171  0  3.293678  0  0  -0.414127  0  3.302098  0  0  -0.322088  -0.380824  0  3.287744  0
N  N88  1  0.68104116  0.71957996  0.18888447  1  0  -0.344726  0  3.430014  0  0  -0.278736  0  3.661631  0  0  -0.299303  0  3.672119  0  0  -0.360106  -0.265041  0  3.654238  0
N  N89  1  0.18103821  0.28041929  0.81111486  1  0  -0.344623  0  3.430046  0  0  -0.278579  0  3.661621  0  0  -0.299144  0  3.672108  0  0  -0.360042  -0.264887  0  3.654227  0
N  N90  1  0.96666466  0.30070176  0.32247564  1  0  -0.339047  0  3.42204  0  0  -0.272828  0  3.652061  0  0  -0.293096  0  3.662249  0  0  -0.361071  -0.25942  0  3.645083  0
N  N91  1  0.46666375  0.69929669  0.67752430  1  0  -0.339105  0  3.422018  0  0  -0.272774  0  3.651935  0  0  -0.29316  0  3.662224  0  0  -0.361059  -0.259366  0  3.644952  0
N  N92  1  0.60800146  0.79397849  0.95007362  1  0  -0.341817  0  3.324667  0  0  -0.281586  0  3.567127  0  0  -0.302677  0  3.577485  0  0  -0.393709  -0.267371  0  3.559852  0
N  N93  1  0.10799971  0.20601929  0.04992666  1  0  -0.341873  0  3.32463  0  0  -0.281645  0  3.567074  0  0  -0.302725  0  3.577419  0  0  -0.393713  -0.267425  0  3.559785  0
N  N94  1  0.00339326  0.16239570  0.52846427  1  0  -0.344325  0  3.301446  0  0  -0.286721  0  3.541463  0  0  -0.307762  0  3.551846  0  0  -0.393345  -0.272437  0  3.534141  0
N  N95  1  0.50339245  0.83760583  0.47153675  1  0  -0.344273  0  3.301458  0  0  -0.286739  0  3.541448  0  0  -0.307777  0  3.551829  0  0  -0.393322  -0.272459  0  3.534143  0
N  N96  1  0.95920427  0.67526247  0.99685839  1  0  -0.284835  0  3.434069  0  0  -0.221321  0  3.66012  0  0  -0.237473  0  3.674781  0  0  -0.364467  -0.210522  0  3.650381  0
N  N97  1  0.45920084  0.32473822  0.00314137  1  0  -0.284854  0  3.434029  0  0  -0.221331  0  3.660088  0  0  -0.237484  0  3.674749  0  0  -0.364528  -0.210536  0  3.65036  0
N  N98  1  0.65420320  0.29470411  0.49578183  1  0  -0.291441  0  3.440333  0  0  -0.231754  0  3.673867  0  0  -0.24763  0  3.687909  0  0  -0.367123  -0.220986  0  3.664313  0
N  N99  1  0.15420188  0.70529515  0.50421814  1  0  -0.291453  0  3.440338  0  0  -0.231805  0  3.673917  0  0  -0.247686  0  3.687962  0  0  -0.367133  -0.221032  0  3.664359  0
N  N100  1  0.97942307  0.63832572  0.12859858  1  0  -0.444283  0  3.144966  0  0  -0.379795  0  3.427883  0  0  -0.402971  0  3.441249  0  0  -0.345828  -0.364079  0  3.418237  0
N  N101  1  0.47942300  0.36167271  0.87139943  1  0  -0.444213  0  3.145072  0  0  -0.379663  0  3.427947  0  0  -0.402844  0  3.441325  0  0  -0.345773  -0.363943  0  3.418291  0
N  N102  1  0.65927293  0.36878715  0.38305667  1  0  -0.446841  0  3.128591  0  0  -0.381616  0  3.410165  0  0  -0.405076  0  3.42344  0  0  -0.343997  -0.365716  0  3.400645  0
N  N103  1  0.15927196  0.63121434  0.61694312  1  0  -0.446894  0  3.128676  0  0  -0.38167  0  3.410262  0  0  -0.405124  0  3.423519  0  0  -0.343999  -0.365768  0  3.400743  0
Cl  Cl104  1  0.16484302  0.76997968  0.32565681  1  0  -0.591895  0  0.846451  0  0  -0.540192  0  1.079827  0  0  -0.554941  0  1.061075  0  0  -0.311394  -0.529396  0  1.092744  0
Cl  Cl105  1  0.66483912  0.23001883  0.67434300  1  0  -0.591884  0  0.846441  0  0  -0.540192  0  1.079837  0  0  -0.55494  0  1.061084  0  0  -0.311403  -0.529402  0  1.092755  0
Cl  Cl106  1  0.39926831  0.52907872  0.15413667  1  0  -0.580639  0  1.034723  0  0  -0.522715  0  1.316661  0  0  -0.542618  0  1.298636  0  0  -0.319583  -0.508367  0  1.328698  0
Cl  Cl107  1  0.89927163  0.47092200  0.84586564  1  0  -0.580647  0  1.034729  0  0  -0.522715  0  1.316667  0  0  -0.542617  0  1.298642  0  0  -0.319569  -0.508374  0  1.32871  0
Cl  Cl108  1  0.89025251  0.41206164  0.17338445  1  0  -0.568097  0  0.993641  0  0  -0.510376  0  1.257909  0  0  -0.52912  0  1.239295  0  0  -0.300732  -0.496842  0  1.270482  0
Cl  Cl109  1  0.39025492  0.58793832  0.82661706  1  0  -0.568094  0  0.993629  0  0  -0.510377  0  1.257903  0  0  -0.529119  0  1.239287  0  0  -0.30074  -0.496848  0  1.270478  0
Cl  Cl110  1  0.75661546  0.61823108  0.34795190  1  0  -0.571055  0  0.941488  0  0  -0.513379  0  1.203281  0  0  -0.531613  0  1.183998  0  0  -0.30484  -0.500113  0  1.216225  0
Cl  Cl111  1  0.25661772  0.38176966  0.65204907  1  0  -0.57104  0  0.941506  0  0  -0.513363  0  1.203284  0  0  -0.531598  0  1.184005  0  0  -0.304841  -0.500103  0  1.216233  0
Cl  Cl112  1  0.47220500  0.26278648  0.18201162  1  0  -0.597231  0  0.854827  0  0  -0.548534  0  1.087483  0  0  -0.56344  0  1.069164  0  0  -0.316282  -0.537534  0  1.099967  0
Cl  Cl113  1  0.97219940  0.73721572  0.81799104  1  0  -0.597203  0  0.854805  0  0  -0.548529  0  1.087466  0  0  -0.563434  0  1.06915  0  0  -0.316286  -0.537535  0  1.099961  0
Cl  Cl114  1  0.25160442  0.49635449  0.36489625  1  0  -0.565856  0  1.033751  0  0  -0.504598  0  1.314917  0  0  -0.524839  0  1.296795  0  0  -0.312675  -0.490056  0  1.326949  0
Cl  Cl115  1  0.75160010  0.50364473  0.63510117  1  0  -0.565866  0  1.033738  0  0  -0.5046  0  1.314891  0  0  -0.524836  0  1.296756  0  0  -0.312665  -0.490059  0  1.326916  0
O  O116  1  0.58706330  0.92379082  0.82007135  1  0  -0.217402  0  2.415818  0  0  -0.142669  0  2.643768  0  0  -0.160118  0  2.651101  0  0  -0.13583  -0.130755  0  2.638438  0
O  O117  1  0.08705773  0.07620544  0.17992538  1  0  -0.217412  0  2.415731  0  0  -0.142743  0  2.643759  0  0  -0.160183  0  2.651094  0  0  -0.135892  -0.130829  0  2.63843  0
O  O118  1  0.02655652  0.97235039  0.59237188  1  0  -0.206242  0  2.387514  0  0  -0.132702  0  2.615082  0  0  -0.149192  0  2.620918  0  0  -0.135336  -0.121281  0  2.610718  0
O  O119  1  0.52655653  0.02765415  0.40763235  1  0  -0.206149  0  2.387508  0  0  -0.132755  0  2.615095  0  0  -0.149246  0  2.620932  0  0  -0.135354  -0.121339  0  2.610734  0
