# generated using pymatgen
data_CdH4C5(NO)4
_symmetry_space_group_name_H-M   'P 1'
_cell_length_a   7.86293111
_cell_length_b   7.95253526
_cell_length_c   13.56500299
_cell_angle_alpha   89.98769708
_cell_angle_beta   90.01794029
_cell_angle_gamma   113.26443879
_symmetry_Int_Tables_number   1
_chemical_formula_structural   CdH4C5(NO)4
_chemical_formula_sum   'Cd4 H16 C20 N16 O16'
_cell_volume   779.25525349
_cell_formula_units_Z   4
loop_
 _symmetry_equiv_pos_site_id
 _symmetry_equiv_pos_as_xyz
  1  'x, y, z'
loop_
 _atom_site_type_symbol
 _atom_site_label
 _atom_site_symmetry_multiplicity
 _atom_site_fract_x
 _atom_site_fract_y
 _atom_site_fract_z
 _atom_site_occupancy
 _atom_site_hle17_bader_spin_density
 _atom_site_hle17_ddec_charge
 _atom_site_hle17_ddec_spin_density
 _atom_site_hle17_ddec_sum_bond_order
 _atom_site_hle17_magmom
 _atom_site_hse06_10hf_bader_spin_density
 _atom_site_hse06_10hf_ddec_charge
 _atom_site_hse06_10hf_ddec_spin_density
 _atom_site_hse06_10hf_ddec_sum_bond_order
 _atom_site_hse06_10hf_magmom
 _atom_site_hse06_bader_spin_density
 _atom_site_hse06_ddec_charge
 _atom_site_hse06_ddec_spin_density
 _atom_site_hse06_ddec_sum_bond_order
 _atom_site_hse06_magmom
 _atom_site_pbe_bader_spin_density
 _atom_site_pbe_cm5_charge
 _atom_site_pbe_ddec_charge
 _atom_site_pbe_ddec_spin_density
 _atom_site_pbe_ddec_sum_bond_order
 _atom_site_pbe_magmom
Cd  Cd0  1  0.30353662  0.52900848  0.27347867  1  0  1.176952  0  1.711321  0  0  0.979002  0  2.195886  0  0  1.036017  0  2.136066  0  0  0.804374  0.938102  0  2.237112  0
Cd  Cd1  1  0.69646166  0.47099134  0.72651990  1  0  1.176948  0  1.711255  0  0  0.978997  0  2.195808  0  0  1.036011  0  2.13599  0  0  0.804388  0.938094  0  2.237032  0
Cd  Cd2  1  0.30368001  0.02900227  0.22668408  1  0  1.176885  0  1.711065  0  0  0.978935  0  2.195627  0  0  1.035953  0  2.135807  0  0  0.804431  0.938032  0  2.236856  0
Cd  Cd3  1  0.69632278  0.97099614  0.77331448  1  0  1.176972  0  1.711021  0  0  0.979012  0  2.195593  0  0  1.036027  0  2.135771  0  0  0.804449  0.938108  0  2.236821  0
H  H4  1  0.26859436  0.08230400  0.64779720  1  0  0.157674  0  0.910626  0  0  0.1673  0  0.968373  0  0  0.171113  0  0.965904  0  0  0.116616  0.164548  0  0.970212  0
H  H5  1  0.73141153  0.91769577  0.35220505  1  0  0.15763  0  0.910697  0  0  0.16729  0  0.968411  0  0  0.171114  0  0.965924  0  0  0.116599  0.16454  0  0.970248  0
H  H6  1  0.28708994  0.88102736  0.69501018  1  0  0.152826  0  0.944217  0  0  0.161301  0  1.006701  0  0  0.16495  0  1.004621  0  0  0.115429  0.158705  0  1.008223  0
H  H7  1  0.71291175  0.11896831  0.30498986  1  0  0.152705  0  0.944318  0  0  0.161216  0  1.006779  0  0  0.164861  0  1.004699  0  0  0.115394  0.158621  0  1.008302  0
H  H8  1  0.73184074  0.41771525  0.14759113  1  0  0.157589  0  0.910778  0  0  0.16727  0  0.968251  0  0  0.171109  0  0.96582  0  0  0.116647  0.164556  0  0.970052  0
H  H9  1  0.26815626  0.58228458  0.85240965  1  0  0.157647  0  0.91076  0  0  0.167317  0  0.968204  0  0  0.171165  0  0.965776  0  0  0.116667  0.164601  0  0.970005  0
H  H10  1  0.71281753  0.61874239  0.19475022  1  0  0.1528  0  0.944467  0  0  0.160947  0  1.007167  0  0  0.164628  0  1.005129  0  0  0.115167  0.158348  0  1.008694  0
H  H11  1  0.28718383  0.38125878  0.80525130  1  0  0.152815  0  0.944444  0  0  0.16092  0  1.007174  0  0  0.16461  0  1.005142  0  0  0.115155  0.15832  0  1.0087  0
H  H12  1  0.77587901  0.04523221  0.00869662  1  0  0.145268  0  0.928045  0  0  0.152066  0  0.992948  0  0  0.155774  0  0.989882  0  0  0.129128  0.149453  0  0.995074  0
H  H13  1  0.22412656  0.95477305  0.99130269  1  0  0.145174  0  0.927985  0  0  0.152019  0  0.992866  0  0  0.155727  0  0.989801  0  0  0.129102  0.149404  0  0.994993  0
H  H14  1  0.87950117  0.97781057  0.11089814  1  0  0.140611  0  0.925391  0  0  0.148817  0  0.990197  0  0  0.151778  0  0.988447  0  0  0.125623  0.146708  0  0.991485  0
H  H15  1  0.12049750  0.02219336  0.88910485  1  0  0.140589  0  0.925396  0  0  0.148782  0  0.990254  0  0  0.151745  0  0.9885  0  0  0.125592  0.146672  0  0.99154  0
H  H16  1  0.22356554  0.45457714  0.50887452  1  0  0.144908  0  0.927974  0  0  0.151584  0  0.993035  0  0  0.155306  0  0.989968  0  0  0.128942  0.148973  0  0.99514  0
H  H17  1  0.77643472  0.54542130  0.49112626  1  0  0.144857  0  0.928017  0  0  0.151535  0  0.993082  0  0  0.155256  0  0.990017  0  0  0.128924  0.148925  0  0.995185  0
H  H18  1  0.12032487  0.52221485  0.61111218  1  0  0.140372  0  0.925581  0  0  0.148581  0  0.990417  0  0  0.15156  0  0.988665  0  0  0.125477  0.146442  0  0.991731  0
H  H19  1  0.87967301  0.47778086  0.38888860  1  0  0.140331  0  0.92556  0  0  0.148571  0  0.990354  0  0  0.151551  0  0.988599  0  0  0.125478  0.146435  0  0.991666  0
C  C20  1  0.21350361  0.93269038  0.64192759  1  0  -0.371456  0  3.661099  0  0  -0.404293  0  3.896135  0  0  -0.41254  0  3.899498  0  0  -0.155951  -0.398499  0  3.893707  0
C  C21  1  0.78649918  0.06730804  0.35807392  1  0  -0.371328  0  3.661145  0  0  -0.404223  0  3.896192  0  0  -0.41246  0  3.899525  0  0  -0.155889  -0.39843  0  3.893768  0
C  C22  1  0.24648663  0.88370600  0.54095695  1  0  0.347594  0  3.65971  0  0  0.302705  0  3.944351  0  0  0.315747  0  3.95706  0  0  0.250877  0.294077  0  3.935693  0
C  C23  1  0.75351545  0.11629379  0.45904308  1  0  0.34765  0  3.659584  0  0  0.302785  0  3.944228  0  0  0.31582  0  3.956939  0  0  0.250896  0.294156  0  3.935572  0
C  C24  1  0.99132123  0.64995962  0.17184917  1  0  0.748589  0  3.832865  0  0  0.697854  0  4.132274  0  0  0.733604  0  4.123478  0  0  0.216675  0.673493  0  4.137408  0
C  C25  1  0.00867942  0.35004292  0.82814940  1  0  0.748561  0  3.833142  0  0  0.697842  0  4.132508  0  0  0.733606  0  4.123723  0  0  0.216744  0.673477  0  4.137638  0
C  C26  1  0.78672367  0.56733633  0.14176723  1  0  -0.370939  0  3.66181  0  0  -0.403704  0  3.896971  0  0  -0.412164  0  3.900635  0  0  -0.155495  -0.397938  0  3.894567  0
C  C27  1  0.21327207  0.43266351  0.85823207  1  0  -0.3711  0  3.662052  0  0  -0.40374  0  3.897051  0  0  -0.41225  0  3.900772  0  0  -0.155551  -0.39797  0  3.894636  0
C  C28  1  0.75392829  0.61641278  0.04075930  1  0  0.346872  0  3.661109  0  0  0.301818  0  3.945622  0  0  0.314945  0  3.958326  0  0  0.250213  0.293137  0  3.937067  0
C  C29  1  0.24607109  0.38358978  0.95924074  1  0  0.346904  0  3.660912  0  0  0.301836  0  3.945415  0  0  0.31497  0  3.958138  0  0  0.250291  0.293164  0  3.936844  0
C  C30  1  0.75622864  0.93792488  0.06328680  1  0  -0.176568  0  3.538899  0  0  -0.242214  0  3.777022  0  0  -0.244174  0  3.780349  0  0  -0.046647  -0.240645  0  3.77483  0
C  C31  1  0.24377383  0.06207903  0.93671250  1  0  -0.176449  0  3.538585  0  0  -0.242197  0  3.776879  0  0  -0.244131  0  3.780147  0  0  -0.046598  -0.240637  0  3.774711  0
C  C32  1  0.24349185  0.56191620  0.56347031  1  0  -0.17559  0  3.537928  0  0  -0.240825  0  3.775873  0  0  -0.24291  0  3.779339  0  0  -0.046143  -0.239213  0  3.773684  0
C  C33  1  0.75650587  0.43808225  0.43653120  1  0  -0.175491  0  3.537907  0  0  -0.240749  0  3.775888  0  0  -0.24283  0  3.77935  0  0  -0.046124  -0.23914  0  3.773697  0
C  C34  1  0.40803808  0.58625605  0.63146088  1  0  0.716598  0  3.850134  0  0  0.664363  0  4.155039  0  0  0.699669  0  4.146768  0  0  0.217969  0.640398  0  4.159652  0
C  C35  1  0.59196107  0.41373964  0.36853915  1  0  0.716568  0  3.850196  0  0  0.664308  0  4.155112  0  0  0.699613  0  4.146841  0  0  0.21796  0.640347  0  4.159725  0
C  C36  1  0.59175789  0.91335142  0.13133824  1  0  0.716501  0  3.849606  0  0  0.664477  0  4.154102  0  0  0.699763  0  4.14584  0  0  0.218216  0.640523  0  4.158718  0
C  C37  1  0.40823935  0.08665527  0.86865663  1  0  0.716716  0  3.849246  0  0  0.664686  0  4.153767  0  0  0.699973  0  4.145514  0  0  0.218361  0.640731  0  4.158379  0
C  C38  1  0.00882260  0.85034513  0.67179697  1  0  0.749117  0  3.832452  0  0  0.698025  0  4.132623  0  0  0.733715  0  4.123862  0  0  0.216962  0.673667  0  4.137728  0
C  C39  1  0.99118091  0.14965191  0.32820307  1  0  0.749163  0  3.832295  0  0  0.69804  0  4.132533  0  0  0.733724  0  4.123772  0  0  0.216959  0.673683  0  4.137642  0
N  N40  1  0.26338690  0.99001320  0.46242245  1  0  -0.246423  0  2.860489  0  0  -0.242467  0  3.147208  0  0  -0.250762  0  3.159829  0  0  -0.202605  -0.237109  0  3.138688  0
N  N41  1  0.73661407  0.00998385  0.53757759  1  0  -0.246441  0  2.860441  0  0  -0.242509  0  3.147156  0  0  -0.250803  0  3.159778  0  0  -0.202637  -0.237151  0  3.138636  0
N  N42  1  0.28574986  0.89549527  0.38512716  1  0  -0.091121  0  3.199721  0  0  -0.049208  0  3.512772  0  0  -0.054992  0  3.525495  0  0  -0.087459  -0.044811  0  3.503842  0
N  N43  1  0.71425167  0.10450315  0.61487288  1  0  -0.091165  0  3.199769  0  0  -0.049239  0  3.512777  0  0  -0.055023  0  3.525501  0  0  -0.087479  -0.044842  0  3.503845  0
N  N44  1  0.28463566  0.73757637  0.41150863  1  0  -0.105433  0  2.988047  0  0  -0.097078  0  3.26739  0  0  -0.099528  0  3.279031  0  0  -0.071341  -0.094978  0  3.25949  0
N  N45  1  0.71536531  0.26242068  0.58849215  1  0  -0.10548  0  2.988126  0  0  -0.097066  0  3.267395  0  0  -0.099516  0  3.279039  0  0  -0.071298  -0.094964  0  3.259492  0
N  N46  1  0.25960565  0.72679181  0.50989330  1  0  0.042267  0  3.461329  0  0  0.146656  0  3.652928  0  0  0.137439  0  3.674429  0  0  -0.098789  0.151333  0  3.640657  0
N  N47  1  0.74039278  0.27320526  0.49010673  1  0  0.042328  0  3.461361  0  0  0.146658  0  3.652996  0  0  0.137441  0  3.674498  0  0  -0.098796  0.151334  0  3.640724  0
N  N48  1  0.73761146  0.51037533  0.96219378  1  0  -0.245456  0  2.8612  0  0  -0.241174  0  3.147579  0  0  -0.249459  0  3.160158  0  0  -0.201752  -0.2358  0  3.139074  0
N  N49  1  0.26238357  0.48962588  0.03780773  1  0  -0.245416  0  2.861016  0  0  -0.241148  0  3.14741  0  0  -0.24943  0  3.159986  0  0  -0.201815  -0.235777  0  3.138904  0
N  N50  1  0.74040607  0.77317062  0.00970130  1  0  0.041817  0  3.461649  0  0  0.14656  0  3.653182  0  0  0.137213  0  3.674885  0  0  -0.099075  0.15128  0  3.640866  0
N  N51  1  0.25959586  0.22683192  0.99029874  1  0  0.041795  0  3.46152  0  0  0.146548  0  3.653083  0  0  0.137201  0  3.674791  0  0  -0.099092  0.151264  0  3.640768  0
N  N52  1  0.71513519  0.60487346  0.88488976  1  0  -0.092043  0  3.199299  0  0  -0.050192  0  3.512668  0  0  -0.055948  0  3.525355  0  0  -0.087777  -0.045808  0  3.503746  0
N  N53  1  0.28486054  0.39512637  0.11511102  1  0  -0.092069  0  3.19923  0  0  -0.050194  0  3.512576  0  0  -0.055948  0  3.525261  0  0  -0.08774  -0.045811  0  3.503656  0
N  N54  1  0.71565457  0.76253248  0.91129039  1  0  -0.103708  0  2.985944  0  0  -0.095861  0  3.265922  0  0  -0.09831  0  3.277578  0  0  -0.070849  -0.093747  0  3.258002  0
N  N55  1  0.28434608  0.23747007  0.08871038  1  0  -0.103715  0  2.985916  0  0  -0.095879  0  3.265909  0  0  -0.09833  0  3.277567  0  0  -0.070877  -0.093764  0  3.257991  0
O  O56  1  0.03539810  0.56255529  0.23830874  1  0  -0.66766  0  2.041777  0  0  -0.603235  0  2.303763  0  0  -0.634271  0  2.293257  0  0  -0.333754  -0.581338  0  2.310145  0
O  O57  1  0.96460216  0.43744314  0.76169130  1  0  -0.667575  0  2.041814  0  0  -0.603185  0  2.303807  0  0  -0.634223  0  2.293303  0  0  -0.333779  -0.581288  0  2.310187  0
O  O58  1  0.09503860  0.79979237  0.13220475  1  0  -0.662254  0  2.033493  0  0  -0.60143  0  2.299206  0  0  -0.629782  0  2.285885  0  0  -0.329473  -0.581393  0  2.307535  0
O  O59  1  0.90496039  0.20020607  0.86779529  1  0  -0.66223  0  2.033512  0  0  -0.601457  0  2.299285  0  0  -0.629786  0  2.285906  0  0  -0.32948  -0.581421  0  2.307612  0
O  O60  1  0.47916726  0.73214111  0.67993652  1  0  -0.673173  0  2.081213  0  0  -0.614516  0  2.359505  0  0  -0.643502  0  2.346691  0  0  -0.326831  -0.594074  0  2.367479  0
O  O61  1  0.52083482  0.26785868  0.32006573  1  0  -0.673182  0  2.081325  0  0  -0.614497  0  2.359593  0  0  -0.643483  0  2.346779  0  0  -0.326848  -0.594058  0  2.367571  0
O  O62  1  0.44789412  0.44613934  0.63677235  1  0  -0.634897  0  1.995917  0  0  -0.566467  0  2.247595  0  0  -0.597202  0  2.236248  0  0  -0.324177  -0.544839  0  2.254491  0
O  O63  1  0.55210305  0.55385774  0.36322621  1  0  -0.634871  0  1.995916  0  0  -0.566418  0  2.247581  0  0  -0.597152  0  2.236232  0  0  -0.324144  -0.544789  0  2.254476  0
O  O64  1  0.96470038  0.93797274  0.73805611  1  0  -0.667726  0  2.042056  0  0  -0.603051  0  2.303857  0  0  -0.634095  0  2.293388  0  0  -0.333595  -0.581157  0  2.310224  0
O  O65  1  0.03530225  0.06202842  0.26194467  1  0  -0.667731  0  2.04215  0  0  -0.603046  0  2.303969  0  0  -0.634088  0  2.293507  0  0  -0.333592  -0.581153  0  2.310338  0
O  O66  1  0.55203031  0.05352583  0.13686808  1  0  -0.635099  0  1.995999  0  0  -0.566547  0  2.247331  0  0  -0.597273  0  2.235953  0  0  -0.323977  -0.544935  0  2.254273  0
O  O67  1  0.44797930  0.94648626  0.86313343  1  0  -0.635415  0  1.996048  0  0  -0.566781  0  2.247296  0  0  -0.597519  0  2.235933  0  0  -0.32416  -0.54517  0  2.254241  0
O  O68  1  0.52062465  0.76722583  0.17963371  1  0  -0.673053  0  2.080844  0  0  -0.614324  0  2.358659  0  0  -0.64336  0  2.346015  0  0  -0.3271  -0.59384  0  2.366495  0
O  O69  1  0.47935491  0.23276864  0.82035380  1  0  -0.672966  0  2.080582  0  0  -0.614262  0  2.358463  0  0  -0.643286  0  2.345787  0  0  -0.327057  -0.593777  0  2.366296  0
O  O70  1  0.90509332  0.70043851  0.63218523  1  0  -0.662694  0  2.032663  0  0  -0.601702  0  2.298414  0  0  -0.630064  0  2.285117  0  0  -0.329982  -0.581675  0  2.306757  0
O  O71  1  0.09491241  0.29956400  0.36781555  1  0  -0.662674  0  2.032412  0  0  -0.601739  0  2.298303  0  0  -0.630103  0  2.28501  0  0  -0.329977  -0.58171  0  2.306646  0
