# generated using pymatgen
data_AlH11C16NO5
_symmetry_space_group_name_H-M   'P 1'
_cell_length_a   6.63552216
_cell_length_b   17.01249453
_cell_length_c   17.78038727
_cell_angle_alpha   86.64279274
_cell_angle_beta   78.59901379
_cell_angle_gamma   81.93860206
_symmetry_Int_Tables_number   1
_chemical_formula_structural   AlH11C16NO5
_chemical_formula_sum   'Al2 H22 C32 N2 O10'
_cell_volume   1947.13833022
_cell_formula_units_Z   2
loop_
 _symmetry_equiv_pos_site_id
 _symmetry_equiv_pos_as_xyz
  1  'x, y, z'
loop_
 _atom_site_type_symbol
 _atom_site_label
 _atom_site_symmetry_multiplicity
 _atom_site_fract_x
 _atom_site_fract_y
 _atom_site_fract_z
 _atom_site_occupancy
 _atom_site_pbe_bader_charge
 _atom_site_pbe_bader_spin_density
 _atom_site_pbe_cm5_charge
 _atom_site_pbe_ddec_charge
 _atom_site_pbe_ddec_spin_density
 _atom_site_pbe_ddec_sum_bond_order
 _atom_site_pbe_magmom
Al  Al0  1  0.50011833  0.49997255  0.50000334  1  2.502999  0  0.398922  1.647209  0  2.575857  0
Al  Al1  1  0.00010437  0.49995828  0.50005113  1  2.502621  0  0.398488  1.6468  0  2.587511  0
H  H2  1  0.75466809  0.58234037  0.43397945  1  0.625766  0  0.357959  0.434555  0  0.845506  0
H  H3  1  0.24615190  0.41720594  0.56552838  1  0.6241  0  0.357542  0.434895  0  0.845251  0
H  H4  1  0.17016422  0.25986615  0.46783516  1  0.094179  0  0.108537  0.110678  0  1.000581  0
H  H5  1  0.22413318  0.11058597  0.46782253  1  0.082857  0  0.105877  0.106133  0  1.024387  0
H  H6  1  0.56423327  0.10902581  0.52609799  1  0.114715  0  0.107618  0.110194  0  1.002984  0
H  H7  1  0.51050982  0.25873953  0.52566241  1  0.102369  0  0.108418  0.110235  0  1.002592  0
H  H8  1  0.43595067  0.89089480  0.47383672  1  0.113328  0  0.107661  0.110068  0  1.003242  0
H  H9  1  0.77604084  0.88933725  0.53207284  1  0.083813  0  0.105943  0.106368  0  1.024416  0
H  H10  1  0.83002782  0.74004835  0.53212851  1  0.094041  0  0.108399  0.110264  0  1.001078  0
H  H11  1  0.48968460  0.74118054  0.47436436  1  0.100844  0  0.108485  0.110165  0  1.002674  0
H  H12  1  0.65754792  0.53021541  0.26776798  1  0.069024  0  0.108133  0.109893  0  1.004393  0
H  H13  1  0.72894905  0.53848841  0.12429876  1  0.060487  0  0.104941  0.109957  0  0.992527  0
H  H14  1  0.17717964  0.43090311  0.12604145  1  0.075695  0  0.103818  0.109908  0  1.000285  0
H  H15  1  0.82221204  0.56941269  0.87400992  1  0.063044  0  0.103697  0.109838  0  1.000894  0
H  H16  1  0.34234812  0.46988967  0.73222738  1  0.070881  0  0.108408  0.110515  0  1.00395  0
H  H17  1  0.27050288  0.46183187  0.87569005  1  0.080463  0  0.104831  0.109645  0  0.992495  0
H  H18  1  0.93261150  0.45296125  0.31110757  1  0.088543  0  0.099182  0.147496  0  1.00969  0
H  H19  1  0.09778007  0.36463625  0.32049694  1  0.050406  0  0.094748  0.135724  0  0.991225  0
H  H20  1  0.98552732  0.38268095  0.23691117  1  0.039115  0  0.090393  0.12444  0  1.00146  0
H  H21  1  0.01451189  0.61729639  0.76318592  1  0.041446  0  0.090147  0.124315  0  1.001663  0
H  H22  1  0.90249438  0.63539530  0.67954871  1  0.044003  0  0.094862  0.135831  0  0.991292  0
H  H23  1  0.06732408  0.54698636  0.68900703  1  0.089043  0  0.099259  0.147482  0  1.00956  0
C  C24  1  0.33374465  0.48609909  0.36213808  1  1.559044  0  0.266111  0.647541  0  4.09536  0
C  C25  1  0.19264652  0.64381449  0.49992990  1  1.558557  0  0.271239  0.641177  0  4.093332  0
C  C26  1  0.66636958  0.51388455  0.63789022  1  1.559408  0  0.266106  0.647915  0  4.094782  0
C  C27  1  0.80755462  0.35610371  0.50011054  1  1.562594  0  0.271334  0.642189  0  4.092861  0
C  C28  1  0.83738458  0.26766608  0.49808987  1  0.043603  0  -0.007876  -0.037163  0  3.952694  0
C  C29  1  0.03898058  0.22602869  0.48112342  1  -0.031018  0  -0.077647  -0.079275  0  3.971331  0
C  C30  1  0.06931353  0.14375094  0.48118286  1  -0.041295  0  -0.082116  -0.140042  0  3.943289  0
C  C31  1  0.89654020  0.10171762  0.49864779  1  0.337925  0  0.092958  0.176744  0  4.033662  0
C  C32  1  0.69499053  0.14314899  0.51364477  1  -0.108915  0  -0.076538  -0.137476  0  3.945154  0
C  C33  1  0.66568679  0.22568902  0.51352326  1  -0.022914  0  -0.078928  -0.079951  0  3.969955  0
C  C34  1  0.30520202  0.85677339  0.48629091  1  -0.105024  0  -0.076773  -0.137718  0  3.945294  0
C  C35  1  0.10363845  0.89820071  0.50127167  1  0.337808  0  0.093251  0.17825  0  4.032471  0
C  C36  1  0.93087183  0.85616549  0.51875590  1  -0.040938  0  -0.082336  -0.141378  0  3.943246  0
C  C37  1  0.96120603  0.77388818  0.51884222  1  -0.033407  0  -0.077181  -0.078128  0  3.970823  0
C  C38  1  0.16279248  0.73225116  0.50191413  1  0.044733  0  -0.007887  -0.03668  0  3.951803  0
C  C39  1  0.33449884  0.77423484  0.48646628  1  -0.023795  0  -0.079108  -0.080334  0  3.96968  0
C  C40  1  0.37489283  0.47948913  0.27710053  1  -0.026814  0  -0.014734  -0.108307  0  3.920129  0
C  C41  1  0.55280961  0.50922590  0.23568972  1  -0.063421  0  -0.082649  -0.084794  0  4.02538  0
C  C42  1  0.59286521  0.51383351  0.15615091  1  0.078299  0  -0.087437  -0.140522  0  3.969545  0
C  C43  1  0.45331900  0.48736168  0.11584960  1  0.092105  0  0.000966  0.150925  0  4.137842  0
C  C44  1  0.28058015  0.45370311  0.15771195  1  -0.068574  0  -0.087772  -0.198308  0  3.898206  0
C  C45  1  0.23740958  0.44920683  0.23788677  1  0.028112  0  0.003531  0.170775  0  3.943845  0
C  C46  1  0.48551329  0.49553758  0.03491020  1  -0.552384  0  -0.045485  -0.107272  0  4.118284  0
C  C47  1  0.51355333  0.50500456  0.96515010  1  0.103012  0  -0.045539  -0.10825  0  4.118346  0
C  C48  1  0.54599030  0.51302432  0.88418625  1  0.089361  0  0.000997  0.150866  0  4.137335  0
C  C49  1  0.71889007  0.54658536  0.84233507  1  -0.055522  0  -0.087739  -0.198111  0  3.899071  0
C  C50  1  0.76239545  0.55091640  0.76215931  1  0.031376  0  0.003209  0.17053  0  3.94384  0
C  C51  1  0.62503808  0.52058544  0.72293037  1  -0.029921  0  -0.014745  -0.108216  0  3.920294  0
C  C52  1  0.44702443  0.49089399  0.76431504  1  -0.064817  0  -0.082774  -0.085192  0  4.025848  0
C  C53  1  0.40663230  0.48646111  0.84385667  1  0.059673  0  -0.087054  -0.140029  0  3.968615  0
C  C54  1  0.05331841  0.41049140  0.27847379  1  -0.08267  0  -0.238465  -0.414069  0  3.953384  0
C  C55  1  0.94670363  0.58952290  0.72160019  1  -0.079036  0  -0.238314  -0.414069  0  3.953609  0
N  N56  1  0.90908283  0.01807261  0.50180636  1  -0.4836  0  -0.147004  -0.134318  0  3.27317  0
N  N57  1  0.09109618  0.98184050  0.49809197  1  -0.437622  0  -0.146717  -0.134849  0  3.273583  0
O  O58  1  0.48993292  0.48074144  0.39491273  1  -1.257302  0  -0.2414  -0.600035  0  2.338567  0
O  O59  1  0.02994802  0.60984772  0.50845088  1  -1.256477  0  -0.234248  -0.593081  0  2.352799  0
O  O60  1  0.85553814  0.49938448  0.60427709  1  -1.265749  0  -0.236191  -0.597591  0  2.370504  0
O  O61  1  0.62199067  0.39140582  0.51118555  1  -1.264172  0  -0.235775  -0.596064  0  2.343262  0
O  O62  1  0.51026356  0.51921805  0.60507365  1  -1.258158  0  -0.241513  -0.600232  0  2.338829  0
O  O63  1  0.97026039  0.39005687  0.49168364  1  -1.256489  0  -0.234869  -0.594092  0  2.35247  0
O  O64  1  0.14460047  0.50056326  0.39579455  1  -1.266995  0  -0.236693  -0.597907  0  2.370998  0
O  O65  1  0.37821032  0.60850915  0.48879995  1  -1.262668  0  -0.236268  -0.595959  0  2.342787  0
O  O66  1  0.75693480  0.53321793  0.46429916  1  -1.430659  0  -0.448282  -0.995028  0  2.221987  0
O  O67  1  0.24335768  0.46666700  0.53573797  1  -1.429034  0  -0.447912  -0.995077  0  2.220459  0
