# generated using pymatgen
data_CdH12C12(NO3)2
_symmetry_space_group_name_H-M   'P 1'
_cell_length_a   10.34870468
_cell_length_b   9.87790184
_cell_length_c   17.00378425
_cell_angle_alpha   89.99968038
_cell_angle_beta   90.00024796
_cell_angle_gamma   119.85750961
_symmetry_Int_Tables_number   1
_chemical_formula_structural   CdH12C12(NO3)2
_chemical_formula_sum   'Cd4 H48 C48 N8 O24'
_cell_volume   1507.47007818
_cell_formula_units_Z   4
loop_
 _symmetry_equiv_pos_site_id
 _symmetry_equiv_pos_as_xyz
  1  'x, y, z'
loop_
 _atom_site_type_symbol
 _atom_site_label
 _atom_site_symmetry_multiplicity
 _atom_site_fract_x
 _atom_site_fract_y
 _atom_site_fract_z
 _atom_site_occupancy
 _atom_site_pbe_bader_charge
 _atom_site_pbe_bader_spin_density
 _atom_site_pbe_cm5_charge
 _atom_site_pbe_ddec_charge
 _atom_site_pbe_ddec_spin_density
 _atom_site_pbe_ddec_sum_bond_order
 _atom_site_pbe_magmom
Cd  Cd0  1  0.59873058  0.78135874  0.98263726  1  1.28382  0  0.762297  0.952925  0  2.103612  0
Cd  Cd1  1  0.90127094  0.71863740  0.48263318  1  1.283732  0  0.762268  0.952893  0  2.103534  0
Cd  Cd2  1  0.40126943  0.21864175  0.01736455  1  1.283718  0  0.762253  0.952862  0  2.103579  0
Cd  Cd3  1  0.09872623  0.28135726  0.51736627  1  1.283702  0  0.762291  0.952931  0  2.103511  0
H  H4  1  0.79840739  0.02379095  0.08408113  1  0.613956  0  0.315505  0.401483  0  0.88425  0
H  H5  1  0.70159984  0.47621510  0.58408426  1  0.614018  0  0.315477  0.401389  0  0.884403  0
H  H6  1  0.20160068  0.97620824  0.91592009  1  0.614059  0  0.315463  0.401438  0  0.884368  0
H  H7  1  0.29840113  0.52378538  0.41591872  1  0.614015  0  0.315489  0.40144  0  0.884382  0
H  H8  1  0.68805238  0.08167545  0.05339242  1  0.65514  0  0.281248  0.377938  0  0.974714  0
H  H9  1  0.81194864  0.41832624  0.55339603  1  0.655151  0  0.281215  0.377901  0  0.974782  0
H  H10  1  0.31195608  0.91832255  0.94661055  1  0.655082  0  0.28113  0.377758  0  0.974957  0
H  H11  1  0.18804775  0.58167079  0.44660459  1  0.655275  0  0.281218  0.377881  0  0.974798  0
H  H12  1  0.42483862  0.48083850  0.90828642  1  0.649104  0  0.282624  0.379739  0  0.968291  0
H  H13  1  0.07515753  0.01916570  0.40828683  1  0.649134  0  0.282598  0.379716  0  0.96834  0
H  H14  1  0.57515869  0.51916439  0.09171186  1  0.6493  0  0.282598  0.379708  0  0.968339  0
H  H15  1  0.92484423  0.98083241  0.59171380  1  0.649147  0  0.282612  0.379737  0  0.968308  0
H  H16  1  0.59017131  0.52984284  0.89877867  1  0.646663  0  0.295264  0.398245  0  0.923003  0
H  H17  1  0.90982584  0.97016344  0.39877851  1  0.64657  0  0.295241  0.398195  0  0.923045  0
H  H18  1  0.40982696  0.47016003  0.10122489  1  0.646634  0  0.295259  0.398237  0  0.923005  0
H  H19  1  0.09017303  0.02983472  0.60122447  1  0.646565  0  0.295244  0.398192  0  0.92305  0
H  H20  1  0.74354369  0.99078841  0.64413834  1  0.102299  0  0.106384  0.108139  0  1.039037  0
H  H21  1  0.75645369  0.50920220  0.14413221  1  0.102814  0  0.106394  0.108131  0  1.039044  0
H  H22  1  0.25645310  0.00920743  0.35585935  1  0.102293  0  0.106371  0.108093  0  1.03907  0
H  H23  1  0.24353912  0.49078547  0.85586077  1  0.102316  0  0.106395  0.108141  0  1.039037  0
H  H24  1  0.39136513  0.72491914  0.48288009  1  0.102889  0  0.102398  0.083885  0  1.079038  0
H  H25  1  0.10863708  0.77507630  0.98288068  1  0.102916  0  0.102353  0.083827  0  1.079041  0
H  H26  1  0.60863069  0.27507672  0.51712054  1  0.102904  0  0.102404  0.083974  0  1.079002  0
H  H27  1  0.89136442  0.22493123  0.01712230  1  0.102844  0  0.102368  0.083891  0  1.079083  0
H  H28  1  0.34164669  0.02083287  0.65118429  1  0.076928  0  0.107439  0.114709  0  0.997835  0
H  H29  1  0.15834605  0.47915220  0.15118636  1  0.076576  0  0.107416  0.114689  0  0.997748  0
H  H30  1  0.65835510  0.97915935  0.34881810  1  0.076661  0  0.107439  0.114724  0  0.99779  0
H  H31  1  0.84165030  0.52085071  0.84881544  1  0.076761  0  0.107432  0.114725  0  0.997753  0
H  H32  1  0.71151911  0.25346820  0.69462355  1  0.063139  0  0.116079  0.105425  0  0.974857  0
H  H33  1  0.78847379  0.24652664  0.19462497  1  0.063048  0  0.116102  0.105517  0  0.974798  0
H  H34  1  0.28848417  0.74653106  0.30537413  1  0.06316  0  0.116085  0.105462  0  0.974849  0
H  H35  1  0.21151820  0.75346928  0.80537095  1  0.063115  0  0.116077  0.105441  0  0.974852  0
H  H36  1  0.53798585  0.16854812  0.74462762  1  0.082806  0  0.124498  0.116117  0  0.947913  0
H  H37  1  0.96200953  0.33144511  0.24462981  1  0.082829  0  0.124521  0.116172  0  0.947885  0
H  H38  1  0.46202279  0.83145223  0.25536830  1  0.08271  0  0.12449  0.116092  0  0.947839  0
H  H39  1  0.03798494  0.66855195  0.75536611  1  0.082721  0  0.124503  0.116116  0  0.94786  0
H  H40  1  0.49078952  0.97799706  0.85668718  1  0.168081  0  0.133864  0.111881  0  1.028709  0
H  H41  1  0.00920979  0.52199823  0.35668565  1  0.168139  0  0.133861  0.111857  0  1.02874  0
H  H42  1  0.50920482  0.02199176  0.14330639  1  0.168145  0  0.133876  0.111838  0  1.028711  0
H  H43  1  0.99079100  0.47799989  0.64330910  1  0.168055  0  0.133869  0.1119  0  1.028684  0
H  H44  1  0.90213319  0.98709818  0.86687074  1  0.141342  0  0.120967  0.129805  0  1.002927  0
H  H45  1  0.59787908  0.51292575  0.36686006  1  0.141374  0  0.120941  0.129794  0  1.002892  0
H  H46  1  0.09787970  0.01292681  0.13313930  1  0.141355  0  0.120973  0.129843  0  1.0029  0
H  H47  1  0.40212700  0.48708523  0.63313821  1  0.141407  0  0.120954  0.129823  0  1.002852  0
H  H48  1  0.90490041  0.16458533  0.73816250  1  0.149419  0  0.125758  0.13191  0  1.00429  0
H  H49  1  0.59510534  0.33543131  0.23815723  1  0.149484  0  0.125756  0.131964  0  1.004329  0
H  H50  1  0.09511309  0.83543494  0.26184225  1  0.149567  0  0.125743  0.131925  0  1.004391  0
H  H51  1  0.40489367  0.66457508  0.76184163  1  0.149537  0  0.12578  0.131993  0  1.004238  0
C  C52  1  0.55126740  0.02145823  0.65422800  1  -0.037572  0  -0.013917  0.078798  0  3.979062  0
C  C53  1  0.94872466  0.47852752  0.15422850  1  -0.037644  0  -0.013881  0.078852  0  3.978903  0
C  C54  1  0.44873321  0.97853755  0.34577203  1  -0.037567  0  -0.013954  0.078691  0  3.978867  0
C  C55  1  0.05126811  0.52146603  0.84577213  1  -0.037598  0  -0.013879  0.078798  0  3.978966  0
C  C56  1  0.63313498  0.95723063  0.62166031  1  -0.068655  0  -0.078817  -0.128529  0  3.911858  0
C  C57  1  0.86686328  0.54276013  0.12165436  1  -0.069303  0  -0.078828  -0.12855  0  3.911899  0
C  C58  1  0.36686237  0.04276637  0.37833973  1  -0.068802  0  -0.078824  -0.128474  0  3.911634  0
C  C59  1  0.13313179  0.45723221  0.87834038  1  -0.068744  0  -0.078892  -0.128654  0  3.91193  0
C  C60  1  0.57457621  0.84929604  0.56048579  1  -0.005185  0  -0.018818  -0.031805  0  3.995323  0
C  C61  1  0.92541762  0.65069645  0.06047965  1  -0.005217  0  -0.018844  -0.031852  0  3.995374  0
C  C62  1  0.42542228  0.15070330  0.43951484  1  -0.005135  0  -0.018822  -0.031747  0  3.99526  0
C  C63  1  0.07457894  0.34930293  0.93951921  1  -0.00513  0  -0.018807  -0.031747  0  3.995211  0
C  C64  1  0.43275364  0.80529910  0.53198437  1  -0.031264  0  -0.074725  -0.096112  0  3.96591  0
C  C65  1  0.06724440  0.69469638  0.03198360  1  -0.03048  0  -0.074699  -0.096001  0  3.965683  0
C  C66  1  0.56724239  0.19469322  0.46801861  1  -0.030832  0  -0.074751  -0.096258  0  3.965766  0
C  C67  1  0.93275976  0.30531463  0.96802114  1  -0.030209  0  -0.074634  -0.096086  0  3.965602  0
C  C68  1  0.34749617  0.86401049  0.56489154  1  -0.063562  0  -0.018947  -0.036813  0  3.997224  0
C  C69  1  0.15249780  0.63598010  0.06489178  1  -0.064195  0  -0.018972  -0.036794  0  3.997166  0
C  C70  1  0.65250310  0.13598649  0.43511143  1  -0.064307  0  -0.018988  -0.036783  0  3.997137  0
C  C71  1  0.84749781  0.36401929  0.93510885  1  -0.06481  0  -0.019034  -0.036864  0  3.997191  0
C  C72  1  0.40775655  0.97298196  0.62649597  1  0.049516  0  -0.076425  -0.133927  0  3.923665  0
C  C73  1  0.09223155  0.52699766  0.12649346  1  0.049683  0  -0.076383  -0.133897  0  3.92347  0
C  C74  1  0.59224275  0.02700913  0.37350760  1  0.050016  0  -0.076349  -0.133893  0  3.923546  0
C  C75  1  0.90775681  0.47299479  0.87350540  1  0.049857  0  -0.0764  -0.133903  0  3.923574  0
C  C76  1  0.62074727  0.14349547  0.71838656  1  0.321051  0  -0.037427  -0.103866  0  3.886179  0
C  C77  1  0.87925089  0.35649792  0.21838550  1  0.321341  0  -0.037566  -0.104137  0  3.886282  0
C  C78  1  0.37925736  0.85650260  0.28161230  1  0.321259  0  -0.037458  -0.103869  0  3.88609  0
C  C79  1  0.12074244  0.64349680  0.78161101  1  0.321277  0  -0.037463  -0.103854  0  3.886066  0
C  C80  1  0.60218153  0.00120923  0.84259735  1  0.961635  0  0.137475  0.085679  0  3.917081  0
C  C81  1  0.89782085  0.49878900  0.34259471  1  0.96154  0  0.13758  0.085838  0  3.91709  0
C  C82  1  0.39781795  0.99878421  0.15740034  1  0.961901  0  0.137575  0.085891  0  3.917039  0
C  C83  1  0.10218126  0.50121381  0.65740239  1  0.961672  0  0.137498  0.08571  0  3.916897  0
C  C84  1  0.81766677  0.01167992  0.84496709  1  0.431363  0  0.002035  -0.020354  0  3.98518  0
C  C85  1  0.68234012  0.48833352  0.34495803  1  0.431324  0  0.002099  -0.020309  0  3.985  0
C  C86  1  0.18234520  0.98833920  0.15503648  1  0.431009  0  0.001977  -0.020498  0  3.98508  0
C  C87  1  0.31765929  0.51167169  0.65503613  1  0.431184  0  0.002042  -0.020403  0  3.985198  0
C  C88  1  0.81986887  0.09943665  0.78177161  1  0.272603  0  0.004102  -0.10293  0  3.914323  0
C  C89  1  0.68013322  0.40057383  0.28176576  1  0.27207  0  0.004031  -0.10307  0  3.914482  0
C  C90  1  0.18013756  0.90057903  0.21823196  1  0.272156  0  0.004176  -0.102822  0  3.914296  0
C  C91  1  0.31986505  0.59942905  0.71822957  1  0.272272  0  0.004079  -0.103012  0  3.914379  0
C  C92  1  0.66067202  0.78054852  0.52370009  1  1.567834  0  0.196422  0.568622  0  4.228049  0
C  C93  1  0.83932627  0.71944771  0.02369761  1  1.567753  0  0.196486  0.568585  0  4.228066  0
C  C94  1  0.33932572  0.21944730  0.47629936  1  1.567833  0  0.196462  0.568615  0  4.228064  0
C  C95  1  0.16067222  0.28055163  0.97629890  1  1.5679  0  0.196453  0.568652  0  4.22791  0
C  C96  1  0.19476851  0.81163303  0.53384716  1  1.557023  0  0.200146  0.567964  0  4.213072  0
C  C97  1  0.30522862  0.68835656  0.03384881  1  1.557062  0  0.200159  0.567939  0  4.213014  0
C  C98  1  0.80522998  0.18836631  0.46615758  1  1.557633  0  0.200196  0.56809  0  4.21329  0
C  C99  1  0.69476759  0.31163811  0.96615241  1  1.557305  0  0.200201  0.568065  0  4.212821  0
N  N100  1  0.68255566  0.09169555  0.78119745  1  -1.215193  0  -0.243563  0.037061  0  3.789291  0
N  N101  1  0.81744665  0.40831140  0.28119312  1  -1.215275  0  -0.243468  0.037148  0  3.78923  0
N  N102  1  0.31744701  0.90830842  0.21880318  1  -1.215248  0  -0.243573  0.036956  0  3.789376  0
N  N103  1  0.18255467  0.59169378  0.71880398  1  -1.215262  0  -0.243529  0.037067  0  3.78931  0
N  N104  1  0.68163780  0.95179504  0.88232118  1  -1.222058  0  -0.360936  -0.299915  0  3.572155  0
N  N105  1  0.81837042  0.54821236  0.38231509  1  -1.221598  0  -0.361037  -0.299997  0  3.572056  0
N  N106  1  0.31837081  0.04821119  0.11767885  1  -1.221692  0  -0.360994  -0.299953  0  3.5721  0
N  N107  1  0.18163304  0.45178925  0.61768142  1  -1.221696  0  -0.360975  -0.29994  0  3.572046  0
O  O108  1  0.78447148  0.81219543  0.55844658  1  -1.167354  0  -0.338795  -0.57934  0  2.306034  0
O  O109  1  0.71552540  0.68779938  0.05844212  1  -1.167318  0  -0.338801  -0.579319  0  2.306079  0
O  O110  1  0.21552513  0.18779805  0.44155345  1  -1.167378  0  -0.338806  -0.579345  0  2.306035  0
O  O111  1  0.28446833  0.31219416  0.94155204  1  -1.167356  0  -0.338816  -0.579364  0  2.306014  0
O  O112  1  0.61238840  0.69735901  0.46331654  1  -1.185194  0  -0.330432  -0.558046  0  2.09952  0
O  O113  1  0.88762108  0.80264186  0.96331720  1  -1.185178  0  -0.330445  -0.557979  0  2.099457  0
O  O114  1  0.38760934  0.30263682  0.53668291  1  -1.185231  0  -0.330424  -0.558043  0  2.099494  0
O  O115  1  0.11238369  0.19736444  0.03668460  1  -1.185186  0  -0.330409  -0.558027  0  2.099334  0
O  O116  1  0.14129054  0.70841888  0.47929411  1  -1.194689  0  -0.323963  -0.570358  0  2.229722  0
O  O117  1  0.35870992  0.79157897  0.97929943  1  -1.194574  0  -0.323886  -0.570317  0  2.229856  0
O  O118  1  0.85870660  0.29158166  0.52070946  1  -1.194751  0  -0.323968  -0.570376  0  2.229973  0
O  O119  1  0.64129375  0.20841911  0.02070414  1  -1.194645  0  -0.323997  -0.570447  0  2.229636  0
O  O120  1  0.11937087  0.87007963  0.56222065  1  -1.182872  0  -0.320799  -0.559466  0  2.23634  0
O  O121  1  0.38063303  0.62991552  0.06222092  1  -1.182992  0  -0.32086  -0.559489  0  2.236258  0
O  O122  1  0.88062399  0.12991624  0.43778351  1  -1.183304  0  -0.320828  -0.55958  0  2.236482  0
O  O123  1  0.61937213  0.37008960  0.93778147  1  -1.183276  0  -0.320811  -0.559507  0  2.236272  0
O  O124  1  0.69331602  0.99280866  0.07963099  1  -1.253356  0  -0.581451  -0.760068  0  2.028355  0
O  O125  1  0.80669178  0.50719639  0.57963298  1  -1.253427  0  -0.581387  -0.759968  0  2.02857  0
O  O126  1  0.30669205  0.00719052  0.92037140  1  -1.253353  0  -0.581339  -0.759925  0  2.028519  0
O  O127  1  0.19330918  0.49280408  0.42036706  1  -1.253538  0  -0.581425  -0.76  0  2.028538  0
O  O128  1  0.52258627  0.57251224  0.89242405  1  -1.269574  0  -0.59547  -0.768755  0  2.021105  0
O  O129  1  0.97741126  0.92749290  0.39242420  1  -1.269479  0  -0.595418  -0.768682  0  2.021203  0
O  O130  1  0.47741449  0.42749177  0.10757599  1  -1.269731  0  -0.595433  -0.768715  0  2.021154  0
O  O131  1  0.02258971  0.07250757  0.60757702  1  -1.269503  0  -0.595433  -0.7687  0  2.021168  0
