# generated using pymatgen
data_CdH12C10(NO4)2
_symmetry_space_group_name_H-M   'P 1'
_cell_length_a   7.55821537
_cell_length_b   10.68108395
_cell_length_c   17.87410162
_cell_angle_alpha   90.00069948
_cell_angle_beta   89.99855560
_cell_angle_gamma   104.75907504
_symmetry_Int_Tables_number   1
_chemical_formula_structural   CdH12C10(NO4)2
_chemical_formula_sum   'Cd4 H48 C40 N8 O32'
_cell_volume   1395.36492843
_cell_formula_units_Z   4
loop_
 _symmetry_equiv_pos_site_id
 _symmetry_equiv_pos_as_xyz
  1  'x, y, z'
loop_
 _atom_site_type_symbol
 _atom_site_label
 _atom_site_symmetry_multiplicity
 _atom_site_fract_x
 _atom_site_fract_y
 _atom_site_fract_z
 _atom_site_occupancy
 _atom_site_hle17_bader_spin_density
 _atom_site_hle17_ddec_charge
 _atom_site_hle17_ddec_spin_density
 _atom_site_hle17_ddec_sum_bond_order
 _atom_site_hle17_magmom
 _atom_site_hse06_10hf_bader_spin_density
 _atom_site_hse06_10hf_ddec_charge
 _atom_site_hse06_10hf_ddec_spin_density
 _atom_site_hse06_10hf_ddec_sum_bond_order
 _atom_site_hse06_10hf_magmom
 _atom_site_hse06_bader_spin_density
 _atom_site_hse06_ddec_charge
 _atom_site_hse06_ddec_spin_density
 _atom_site_hse06_ddec_sum_bond_order
 _atom_site_hse06_magmom
 _atom_site_pbe_bader_spin_density
 _atom_site_pbe_cm5_charge
 _atom_site_pbe_ddec_charge
 _atom_site_pbe_ddec_spin_density
 _atom_site_pbe_ddec_sum_bond_order
 _atom_site_pbe_magmom
Cd  Cd0  1  0.90602977  0.75641151  0.96241440  1  0  1.188722  0  1.61255  0  0  1.018142  0  2.049663  0  0  1.071992  0  1.995671  0  0  0.776714  0.979748  0  2.086623  0
Cd  Cd1  1  0.59396881  0.24358366  0.46240864  1  0  1.188734  0  1.612549  0  0  1.01815  0  2.049612  0  0  1.071999  0  1.995626  0  0  0.776699  0.97976  0  2.086563  0
Cd  Cd2  1  0.09396720  0.24358704  0.03758382  1  0  1.188684  0  1.612583  0  0  1.018091  0  2.049701  0  0  1.071943  0  1.99571  0  0  0.776688  0.979698  0  2.086658  0
Cd  Cd3  1  0.40603213  0.75641487  0.53759070  1  0  1.188716  0  1.612569  0  0  1.018122  0  2.049643  0  0  1.071974  0  1.995654  0  0  0.776665  0.979728  0  2.086601  0
H  H4  1  0.78395810  0.94060727  0.05164996  1  0  0.439796  0  0.8602  0  0  0.406552  0  0.927765  0  0  0.417957  0  0.911202  0  0  0.289572  0.398464  0  0.939494  0
H  H5  1  0.71602734  0.05939746  0.55164871  1  0  0.439772  0  0.860237  0  0  0.406502  0  0.92785  0  0  0.417911  0  0.911282  0  0  0.289549  0.398413  0  0.939582  0
H  H6  1  0.21604355  0.05939319  0.94835050  1  0  0.439675  0  0.860348  0  0  0.40647  0  0.927865  0  0  0.417878  0  0.911296  0  0  0.289537  0.398382  0  0.939594  0
H  H7  1  0.28397527  0.94060203  0.44835175  1  0  0.439791  0  0.860225  0  0  0.40653  0  0.927819  0  0  0.417936  0  0.911254  0  0  0.289565  0.398439  0  0.939554  0
H  H8  1  0.59161216  0.84945408  0.01875782  1  0  0.416847  0  0.893554  0  0  0.381982  0  0.965  0  0  0.39307  0  0.948946  0  0  0.283729  0.374185  0  0.976259  0
H  H9  1  0.90838174  0.15053961  0.51875462  1  0  0.416862  0  0.893536  0  0  0.382019  0  0.964949  0  0  0.393109  0  0.948893  0  0  0.283771  0.374223  0  0.976206  0
H  H10  1  0.40838781  0.15054542  0.98124320  1  0  0.416856  0  0.893545  0  0  0.382001  0  0.964975  0  0  0.39309  0  0.94892  0  0  0.283761  0.374205  0  0.976232  0
H  H11  1  0.09162423  0.84946180  0.48124585  1  0  0.41687  0  0.893523  0  0  0.382014  0  0.964936  0  0  0.393103  0  0.948881  0  0  0.283783  0.374221  0  0.976185  0
H  H12  1  0.13304052  0.64046897  0.86617385  1  0  0.427655  0  0.814861  0  0  0.413081  0  0.864575  0  0  0.421304  0  0.855324  0  0  0.323992  0.407175  0  0.871301  0
H  H13  1  0.36694495  0.35951591  0.36617552  1  0  0.427709  0  0.81476  0  0  0.413141  0  0.864472  0  0  0.421366  0  0.855214  0  0  0.323986  0.407234  0  0.871202  0
H  H14  1  0.86695742  0.35952860  0.13382605  1  0  0.427679  0  0.814821  0  0  0.413111  0  0.864525  0  0  0.421332  0  0.855276  0  0  0.323983  0.407208  0  0.871246  0
H  H15  1  0.63305563  0.64048166  0.63382382  1  0  0.427741  0  0.814737  0  0  0.413172  0  0.864446  0  0  0.421396  0  0.855187  0  0  0.323983  0.407264  0  0.871172  0
H  H16  1  0.22782788  0.69966084  0.94370808  1  0  0.410187  0  0.901069  0  0  0.373929  0  0.974765  0  0  0.385845  0  0.957368  0  0  0.284539  0.365552  0  0.986967  0
H  H17  1  0.27216481  0.30032380  0.44370922  1  0  0.410442  0  0.900736  0  0  0.37427  0  0.974372  0  0  0.386186  0  0.956972  0  0  0.284662  0.365887  0  0.986582  0
H  H18  1  0.77217173  0.30033770  0.05629126  1  0  0.410248  0  0.900994  0  0  0.37399  0  0.9747  0  0  0.385908  0  0.957301  0  0  0.284564  0.365608  0  0.986911  0
H  H19  1  0.72783781  0.69967569  0.55629124  1  0  0.41044  0  0.900731  0  0  0.374269  0  0.974366  0  0  0.386186  0  0.956965  0  0  0.284659  0.365881  0  0.986587  0
H  H20  1  0.75057917  0.49313889  0.97585271  1  0  0.270598  0  0.883377  0  0  0.267055  0  0.928019  0  0  0.271537  0  0.926911  0  0  0.304978  0.263743  0  0.929067  0
H  H21  1  0.74942635  0.50685929  0.47584442  1  0  0.270657  0  0.883295  0  0  0.267129  0  0.927917  0  0  0.271615  0  0.926796  0  0  0.305022  0.263818  0  0.928963  0
H  H22  1  0.24941720  0.50686161  0.02414831  1  0  0.270586  0  0.883358  0  0  0.267048  0  0.927992  0  0  0.271529  0  0.926885  0  0  0.304964  0.263738  0  0.929038  0
H  H23  1  0.25057819  0.49313825  0.52415716  1  0  0.270627  0  0.883253  0  0  0.267104  0  0.927878  0  0  0.271589  0  0.926757  0  0  0.305001  0.263795  0  0.928924  0
H  H24  1  0.31833212  0.83713186  0.32839214  1  0  0.127027  0  0.94206  0  0  0.132169  0  1.010931  0  0  0.136944  0  1.006351  0  0  0.117141  0.128737  0  1.014224  0
H  H25  1  0.18167657  0.16285252  0.82839147  1  0  0.127029  0  0.94214  0  0  0.13217  0  1.011028  0  0  0.136928  0  1.006465  0  0  0.117114  0.128719  0  1.014343  0
H  H26  1  0.68166317  0.16286573  0.67160608  1  0  0.127038  0  0.942044  0  0  0.132179  0  1.010902  0  0  0.136953  0  1.00632  0  0  0.117147  0.128744  0  1.014196  0
H  H27  1  0.81831595  0.83715187  0.17160787  1  0  0.127007  0  0.942149  0  0  0.132159  0  1.011031  0  0  0.136897  0  1.006489  0  0  0.117103  0.128674  0  1.014385  0
H  H28  1  0.60775107  0.16085927  0.19631209  1  0  0.102654  0  0.932757  0  0  0.112865  0  0.991534  0  0  0.116903  0  0.987828  0  0  0.109302  0.109861  0  0.994342  0
H  H29  1  0.89224321  0.83912455  0.69631917  1  0  0.102738  0  0.933006  0  0  0.112955  0  0.991716  0  0  0.117012  0  0.987988  0  0  0.109358  0.109949  0  0.994526  0
H  H30  1  0.39224602  0.83914316  0.80368837  1  0  0.102667  0  0.932744  0  0  0.112875  0  0.991528  0  0  0.116912  0  0.987822  0  0  0.109295  0.109872  0  0.994334  0
H  H31  1  0.10776337  0.16087492  0.30368017  1  0  0.102705  0  0.933028  0  0  0.112937  0  0.991727  0  0  0.116994  0  0.988  0  0  0.109345  0.109932  0  0.994531  0
H  H32  1  0.49856835  0.03788122  0.07940901  1  0  0.112898  0  0.961016  0  0  0.119525  0  1.02502  0  0  0.123291  0  1.023165  0  0  0.108747  0.116684  0  1.026761  0
H  H33  1  0.00139957  0.96208538  0.57941168  1  0  0.112901  0  0.96101  0  0  0.11952  0  1.025029  0  0  0.123287  0  1.023177  0  0  0.108765  0.116654  0  1.026804  0
H  H34  1  0.50142934  0.96211927  0.92059090  1  0  0.112934  0  0.961033  0  0  0.119558  0  1.025048  0  0  0.123324  0  1.023194  0  0  0.108763  0.116727  0  1.026775  0
H  H35  1  0.99861025  0.03791213  0.42058822  1  0  0.112887  0  0.961116  0  0  0.119495  0  1.025152  0  0  0.123262  0  1.0233  0  0  0.108748  0.116648  0  1.026902  0
H  H36  1  0.59925448  0.54824615  0.87023443  1  0  0.090732  0  0.922812  0  0  0.10756  0  0.981868  0  0  0.108414  0  0.981128  0  0  0.112079  0.106846  0  0.982536  0
H  H37  1  0.90078009  0.45174209  0.37023306  1  0  0.090777  0  0.922847  0  0  0.107568  0  0.981932  0  0  0.10843  0  0.981181  0  0  0.112069  0.10685  0  0.982606  0
H  H38  1  0.40074250  0.45175240  0.12976659  1  0  0.090734  0  0.922774  0  0  0.10754  0  0.98186  0  0  0.108394  0  0.981122  0  0  0.112057  0.106826  0  0.982529  0
H  H39  1  0.09922085  0.54825644  0.62976740  1  0  0.090806  0  0.922878  0  0  0.107586  0  0.981966  0  0  0.108441  0  0.98123  0  0  0.112072  0.106871  0  0.982638  0
H  H40  1  0.49350673  0.64315225  0.92835183  1  0  0.064956  0  0.938268  0  0  0.08523  0  0.997661  0  0  0.085262  0  0.998186  0  0  0.104738  0.085029  0  0.997522  0
H  H41  1  0.00650948  0.35683988  0.42835735  1  0  0.064827  0  0.938365  0  0  0.085129  0  0.997732  0  0  0.085157  0  0.99826  0  0  0.104704  0.084929  0  0.997596  0
H  H42  1  0.50649096  0.35684824  0.07164807  1  0  0.064924  0  0.938319  0  0  0.085274  0  0.997615  0  0  0.085306  0  0.99814  0  0  0.104735  0.085067  0  0.997485  0
H  H43  1  0.99348942  0.64315672  0.57164311  1  0  0.064873  0  0.938377  0  0  0.085205  0  0.997698  0  0  0.085235  0  0.998223  0  0  0.104724  0.085003  0  0.997561  0
H  H44  1  0.57020784  0.65205574  0.06861426  1  0  0.067312  0  0.94818  0  0  0.08098  0  1.017861  0  0  0.081552  0  1.017514  0  0  0.102768  0.08044  0  1.018224  0
H  H45  1  0.92977378  0.34795210  0.56861452  1  0  0.067223  0  0.948315  0  0  0.080962  0  1.01798  0  0  0.081533  0  1.017631  0  0  0.102738  0.080426  0  1.01834  0
H  H46  1  0.42978853  0.34794476  0.93138676  1  0  0.06724  0  0.948157  0  0  0.080935  0  1.017836  0  0  0.081508  0  1.017486  0  0  0.102741  0.080397  0  1.018198  0
H  H47  1  0.07022812  0.65204546  0.43138650  1  0  0.067253  0  0.948266  0  0  0.080953  0  1.017946  0  0  0.081524  0  1.017597  0  0  0.102732  0.08042  0  1.018298  0
H  H48  1  0.72929038  0.56600628  0.09877964  1  0  0.081832  0  0.924613  0  0  0.097843  0  0.984394  0  0  0.098575  0  0.983802  0  0  0.107789  0.097233  0  0.984897  0
H  H49  1  0.77068621  0.43399994  0.59877385  1  0  0.081802  0  0.924597  0  0  0.097805  0  0.984462  0  0  0.098535  0  0.983869  0  0  0.107714  0.097203  0  0.984959  0
H  H50  1  0.27070599  0.43399421  0.90122138  1  0  0.081823  0  0.924629  0  0  0.097863  0  0.984377  0  0  0.098594  0  0.983786  0  0  0.107779  0.097259  0  0.984883  0
H  H51  1  0.22931473  0.56599859  0.40122717  1  0  0.081857  0  0.924654  0  0  0.097871  0  0.984476  0  0  0.098602  0  0.983883  0  0  0.107743  0.097265  0  0.984982  0
C  C52  1  0.25655314  0.80702252  0.06664662  1  0  0.681021  0  3.904962  0  0  0.618535  0  4.217135  0  0  0.654516  0  4.206677  0  0  0.21666  0.594032  0  4.223495  0
C  C53  1  0.24342963  0.19295357  0.56664495  1  0  0.681343  0  3.904475  0  0  0.618708  0  4.216873  0  0  0.654684  0  4.206414  0  0  0.216675  0.594193  0  4.223249  0
C  C54  1  0.74344948  0.19297697  0.93335160  1  0  0.681008  0  3.90487  0  0  0.618461  0  4.21714  0  0  0.654444  0  4.206682  0  0  0.216584  0.593961  0  4.223501  0
C  C55  1  0.75657634  0.80704784  0.43335496  1  0  0.681287  0  3.904532  0  0  0.618695  0  4.216866  0  0  0.654668  0  4.206411  0  0  0.216637  0.594189  0  4.223236  0
C  C56  1  0.34694268  0.86785706  0.13751202  1  0  -0.065221  0  3.688237  0  0  -0.054417  0  3.932237  0  0  -0.056512  0  3.950185  0  0  0.00322  -0.053054  0  3.920328  0
C  C57  1  0.15304684  0.13212358  0.63750919  1  0  -0.065156  0  3.68813  0  0  -0.05432  0  3.932205  0  0  -0.056388  0  3.950126  0  0  0.003204  -0.052968  0  3.920297  0
C  C58  1  0.65305441  0.13214537  0.86248732  1  0  -0.065278  0  3.688339  0  0  -0.054456  0  3.932345  0  0  -0.056555  0  3.950299  0  0  0.003181  -0.053104  0  3.92044  0
C  C59  1  0.84695410  0.86787495  0.36249071  1  0  -0.065078  0  3.688126  0  0  -0.054256  0  3.932203  0  0  -0.056313  0  3.950116  0  0  0.003207  -0.052902  0  3.920298  0
C  C60  1  0.30224615  0.81296051  0.20867200  1  0  0.057875  0  3.694159  0  0  0.036203  0  3.948735  0  0  0.032596  0  3.971749  0  0  0.078725  0.038381  0  3.933334  0
C  C61  1  0.19773859  0.18701505  0.70866797  1  0  0.057474  0  3.694298  0  0  0.035877  0  3.948922  0  0  0.032258  0  3.971933  0  0  0.07855  0.03807  0  3.933498  0
C  C62  1  0.69774890  0.18703999  0.79132734  1  0  0.057866  0  3.694259  0  0  0.036209  0  3.94881  0  0  0.032605  0  3.971819  0  0  0.078731  0.038402  0  3.933386  0
C  C63  1  0.80226078  0.81298640  0.29133249  1  0  0.057257  0  3.694259  0  0  0.035661  0  3.948884  0  0  0.032038  0  3.971891  0  0  0.078456  0.037843  0  3.933465  0
C  C64  1  0.35687947  0.88224969  0.27421651  1  0  -0.085847  0  3.679726  0  0  -0.128223  0  3.945663  0  0  -0.126  0  3.96388  0  0  -0.068026  -0.12932  0  3.933268  0
C  C65  1  0.14312298  0.11773419  0.77421648  1  0  -0.085941  0  3.67974  0  0  -0.128314  0  3.945632  0  0  -0.126081  0  3.963879  0  0  -0.068065  -0.129395  0  3.933246  0
C  C66  1  0.64311858  0.11775177  0.72578283  1  0  -0.085896  0  3.679728  0  0  -0.128257  0  3.945635  0  0  -0.126034  0  3.963863  0  0  -0.068059  -0.129355  0  3.933234  0
C  C67  1  0.85687578  0.88226920  0.22578342  1  0  -0.085746  0  3.679614  0  0  -0.128109  0  3.945468  0  0  -0.125859  0  3.963725  0  0  -0.067957  -0.129161  0  3.933105  0
C  C68  1  0.46457683  0.00958273  0.26919149  1  0  -0.048822  0  3.7344  0  0  -0.02431  0  3.9708  0  0  -0.033553  0  3.994216  0  0  -0.009013  -0.018545  0  3.95514  0
C  C69  1  0.03542219  0.99039820  0.76919009  1  0  -0.048645  0  3.734356  0  0  -0.02415  0  3.970681  0  0  -0.033398  0  3.994111  0  0  -0.008891  -0.018391  0  3.955026  0
C  C70  1  0.53541883  0.99041583  0.73080841  1  0  -0.048743  0  3.7343  0  0  -0.02421  0  3.970643  0  0  -0.033462  0  3.994073  0  0  -0.008945  -0.018445  0  3.954984  0
C  C71  1  0.96457550  0.00960228  0.23080869  1  0  -0.048694  0  3.73454  0  0  -0.024213  0  3.970883  0  0  -0.033459  0  3.994307  0  0  -0.008963  -0.018455  0  3.955221  0
C  C72  1  0.52072467  0.06256431  0.19887400  1  0  -0.0133  0  3.668507  0  0  -0.045303  0  3.924565  0  0  -0.042039  0  3.94133  0  0  -0.06272  -0.04709  0  3.913053  0
C  C73  1  0.97926660  0.93741179  0.69888087  1  0  -0.013558  0  3.669101  0  0  -0.045503  0  3.925103  0  0  -0.042255  0  3.941866  0  0  -0.062768  -0.047282  0  3.913584  0
C  C74  1  0.47927242  0.93743812  0.80112646  1  0  -0.013351  0  3.668483  0  0  -0.045351  0  3.924536  0  0  -0.042082  0  3.941301  0  0  -0.062737  -0.04714  0  3.913027  0
C  C75  1  0.02073637  0.06258867  0.30111903  1  0  -0.013477  0  3.669069  0  0  -0.04543  0  3.925077  0  0  -0.042181  0  3.941841  0  0  -0.062717  -0.04721  0  3.913558  0
C  C76  1  0.46155527  0.99299762  0.13378021  1  0  -0.067567  0  3.692675  0  0  -0.088502  0  3.944501  0  0  -0.09185  0  3.963793  0  0  -0.077564  -0.086442  0  3.93175  0
C  C77  1  0.03843206  0.00698009  0.63378216  1  0  -0.067493  0  3.692536  0  0  -0.088447  0  3.944328  0  0  -0.091805  0  3.963624  0  0  -0.077596  -0.086372  0  3.931586  0
C  C78  1  0.53844049  0.00700481  0.86621969  1  0  -0.067602  0  3.692701  0  0  -0.088546  0  3.944526  0  0  -0.091894  0  3.963817  0  0  -0.077592  -0.086494  0  3.931771  0
C  C79  1  0.96157356  0.99302036  0.36621718  1  0  -0.067522  0  3.692589  0  0  -0.088479  0  3.944422  0  0  -0.091844  0  3.963721  0  0  -0.077595  -0.086418  0  3.931666  0
C  C80  1  0.51456033  0.09235685  0.33724194  1  0  0.638582  0  3.9291  0  0  0.589209  0  4.217133  0  0  0.623257  0  4.21251  0  0  0.197399  0.56618  0  4.219384  0
C  C81  1  0.98544366  0.90762929  0.83724740  1  0  0.638441  0  3.929218  0  0  0.589111  0  4.217208  0  0  0.623159  0  4.212587  0  0  0.197375  0.566078  0  4.219465  0
C  C82  1  0.48543797  0.90764170  0.66275852  1  0  0.63848  0  3.929142  0  0  0.589083  0  4.217204  0  0  0.623132  0  4.212581  0  0  0.197319  0.566052  0  4.219455  0
C  C83  1  0.01455607  0.09237313  0.16275194  1  0  0.638318  0  3.929431  0  0  0.588981  0  4.217419  0  0  0.623029  0  4.212802  0  0  0.197315  0.565951  0  4.219673  0
C  C84  1  0.54105530  0.55424883  0.92592036  1  0  -0.001364  0  3.639901  0  0  -0.062723  0  3.904619  0  0  -0.059103  0  3.917301  0  0  -0.078106  -0.065109  0  3.895883  0
C  C85  1  0.95895744  0.44574300  0.42592000  1  0  -0.001437  0  3.63982  0  0  -0.062723  0  3.904542  0  0  -0.059103  0  3.917222  0  0  -0.078123  -0.065113  0  3.895813  0
C  C86  1  0.45894071  0.44575070  0.07408010  1  0  -0.001373  0  3.639926  0  0  -0.062772  0  3.904649  0  0  -0.059156  0  3.917333  0  0  -0.078106  -0.065152  0  3.895909  0
C  C87  1  0.04104482  0.55425553  0.57408046  1  0  -0.00154  0  3.639885  0  0  -0.062818  0  3.904602  0  0  -0.059199  0  3.91728  0  0  -0.078109  -0.065204  0  3.895863  0
C  C88  1  0.61663024  0.56384198  0.05980653  1  0  -0.004857  0  3.654914  0  0  -0.063726  0  3.921442  0  0  -0.059657  0  3.933412  0  0  -0.082735  -0.066378  0  3.913168  0
C  C89  1  0.88335154  0.43615413  0.55980514  1  0  -0.004503  0  3.654805  0  0  -0.063576  0  3.921523  0  0  -0.059501  0  3.933488  0  0  -0.082687  -0.066233  0  3.913234  0
C  C90  1  0.38336481  0.43615852  0.94019449  1  0  -0.004766  0  3.654879  0  0  -0.06368  0  3.921386  0  0  -0.059611  0  3.933358  0  0  -0.0827  -0.066342  0  3.913114  0
C  C91  1  0.11665132  0.56384245  0.44019532  1  0  -0.0046  0  3.654931  0  0  -0.063603  0  3.921536  0  0  -0.05953  0  3.9335  0  0  -0.082657  -0.066261  0  3.913253  0
N  N92  1  0.19582520  0.67779610  0.21491239  1  0  0.47759  0  3.949506  0  0  0.533144  0  4.206823  0  0  0.554962  0  4.213342  0  0  0.058164  0.518475  0  4.202505  0
N  N93  1  0.30415726  0.32218147  0.71490821  1  0  0.478259  0  3.948762  0  0  0.533521  0  4.206451  0  0  0.555345  0  4.212958  0  0  0.058273  0.518843  0  4.202146  0
N  N94  1  0.80417177  0.32220245  0.78508640  1  0  0.477664  0  3.949427  0  0  0.533165  0  4.206807  0  0  0.554985  0  4.213319  0  0  0.058161  0.518487  0  4.202495  0
N  N95  1  0.69584379  0.67782094  0.28509113  1  0  0.478281  0  3.948832  0  0  0.533557  0  4.206484  0  0  0.555382  0  4.212992  0  0  0.058278  0.518891  0  4.202168  0
N  N96  1  0.68854391  0.56736454  0.98236721  1  0  -0.42398  0  3.200008  0  0  -0.3452  0  3.454179  0  0  -0.366285  0  3.466686  0  0  -0.488333  -0.330349  0  3.445194  0
N  N97  1  0.81145789  0.43263178  0.48236218  1  0  -0.424142  0  3.200174  0  0  -0.345291  0  3.454352  0  0  -0.366378  0  3.466864  0  0  -0.488316  -0.330442  0  3.445366  0
N  N98  1  0.31145342  0.43263498  0.01763326  1  0  -0.423971  0  3.200089  0  0  -0.345198  0  3.454292  0  0  -0.366284  0  3.466803  0  0  -0.488332  -0.33035  0  3.445305  0
N  N99  1  0.18854173  0.56736675  0.51763884  1  0  -0.424075  0  3.200117  0  0  -0.345254  0  3.454281  0  0  -0.36634  0  3.466795  0  0  -0.488299  -0.330407  0  3.445296  0
O  O100  1  0.08374998  0.78370090  0.06654732  1  0  -0.622551  0  1.993293  0  0  -0.559889  0  2.24608  0  0  -0.589741  0  2.235306  0  0  -0.322227  -0.538755  0  2.252611  0
O  O101  1  0.41624260  0.21629454  0.56654676  1  0  -0.622763  0  1.993006  0  0  -0.559996  0  2.245788  0  0  -0.589845  0  2.235017  0  0  -0.322261  -0.538872  0  2.252357  0
O  O102  1  0.91625217  0.21629374  0.93344978  1  0  -0.622562  0  1.993334  0  0  -0.559848  0  2.246111  0  0  -0.589698  0  2.235333  0  0  -0.322168  -0.53872  0  2.252656  0
O  O103  1  0.58375977  0.78370786  0.43345371  1  0  -0.622756  0  1.992939  0  0  -0.559993  0  2.245704  0  0  -0.589843  0  2.234936  0  0  -0.322211  -0.538866  0  2.252261  0
O  O104  1  0.35772910  0.79115229  0.01214594  1  0  -0.645637  0  2.001324  0  0  -0.576667  0  2.223437  0  0  -0.603766  0  2.211896  0  0  -0.305544  -0.557601  0  2.23099  0
O  O105  1  0.14226198  0.20882322  0.51214379  1  0  -0.645662  0  2.001172  0  0  -0.576754  0  2.223526  0  0  -0.603861  0  2.211995  0  0  -0.305471  -0.557675  0  2.231082  0
O  O106  1  0.64227519  0.20884816  0.98785452  1  0  -0.645598  0  2.001221  0  0  -0.576641  0  2.223414  0  0  -0.603746  0  2.211875  0  0  -0.30552  -0.55757  0  2.230963  0
O  O107  1  0.85773871  0.79117822  0.48785611  1  0  -0.64564  0  2.001265  0  0  -0.576768  0  2.223626  0  0  -0.603878  0  2.2121  0  0  -0.305478  -0.557693  0  2.231176  0
O  O108  1  0.63942224  0.19706243  0.33252365  1  0  -0.635852  0  1.907378  0  0  -0.582297  0  2.13204  0  0  -0.609656  0  2.123034  0  0  -0.333137  -0.563105  0  2.137541  0
O  O109  1  0.86058068  0.80292366  0.83253137  1  0  -0.635752  0  1.907558  0  0  -0.582223  0  2.132197  0  0  -0.609581  0  2.123196  0  0  -0.333114  -0.563031  0  2.1377  0
O  O110  1  0.36057702  0.80293514  0.66747569  1  0  -0.63581  0  1.907376  0  0  -0.58225  0  2.132041  0  0  -0.609608  0  2.123031  0  0  -0.333101  -0.563059  0  2.137543  0
O  O111  1  0.13942097  0.19707680  0.16746797  1  0  -0.63563  0  1.907537  0  0  -0.582104  0  2.132171  0  0  -0.609462  0  2.123173  0  0  -0.333056  -0.562913  0  2.137669  0
O  O112  1  0.42419331  0.05794300  0.39793066  1  0  -0.662104  0  2.022672  0  0  -0.590936  0  2.260371  0  0  -0.621246  0  2.250853  0  0  -0.323406  -0.569657  0  2.266222  0
O  O113  1  0.07581138  0.94204888  0.89793463  1  0  -0.66202  0  2.022709  0  0  -0.590899  0  2.260389  0  0  -0.621209  0  2.250866  0  0  -0.323391  -0.569621  0  2.266243  0
O  O114  1  0.57580798  0.94205650  0.60207036  1  0  -0.662048  0  2.022677  0  0  -0.590853  0  2.260354  0  0  -0.621164  0  2.250835  0  0  -0.323365  -0.569578  0  2.266211  0
O  O115  1  0.92418738  0.05795451  0.10206639  1  0  -0.662055  0  2.022886  0  0  -0.590902  0  2.260559  0  0  -0.62121  0  2.251039  0  0  -0.323384  -0.569626  0  2.266412  0
O  O116  1  0.10644806  0.64426661  0.27316798  1  0  -0.357567  0  1.767643  0  0  -0.353323  0  1.965454  0  0  -0.366134  0  1.961729  0  0  -0.133271  -0.344771  0  1.968177  0
O  O117  1  0.39356480  0.35570944  0.77314631  1  0  -0.357752  0  1.767508  0  0  -0.353434  0  1.965474  0  0  -0.366233  0  1.961738  0  0  -0.133335  -0.344888  0  1.968203  0
O  O118  1  0.89355120  0.35573095  0.72683136  1  0  -0.357583  0  1.767579  0  0  -0.353329  0  1.965423  0  0  -0.366136  0  1.961693  0  0  -0.133261  -0.344775  0  1.96815  0
O  O119  1  0.60643422  0.64429104  0.22685360  1  0  -0.357737  0  1.767499  0  0  -0.353412  0  1.965443  0  0  -0.36621  0  1.961707  0  0  -0.133318  -0.344867  0  1.968164  0
O  O120  1  0.20201083  0.60358712  0.16205124  1  0  -0.342915  0  1.773161  0  0  -0.334476  0  1.966669  0  0  -0.345656  0  1.960635  0  0  -0.123068  -0.327059  0  1.971046  0
O  O121  1  0.29792618  0.39639501  0.66204768  1  0  -0.343108  0  1.772704  0  0  -0.334542  0  1.966317  0  0  -0.345746  0  1.960302  0  0  -0.122989  -0.327107  0  1.970694  0
O  O122  1  0.79798711  0.39641045  0.83794754  1  0  -0.342902  0  1.773186  0  0  -0.334452  0  1.966722  0  0  -0.345643  0  1.960699  0  0  -0.123052  -0.327036  0  1.971107  0
O  O123  1  0.70207715  0.60360642  0.33795222  1  0  -0.343094  0  1.772718  0  0  -0.334558  0  1.966334  0  0  -0.345765  0  1.96032  0  0  -0.12299  -0.327125  0  1.970707  0
O  O124  1  0.72589663  0.88079747  0.01091570  1  0  -0.860389  0  1.858806  0  0  -0.796465  0  2.064569  0  0  -0.819225  0  2.029529  0  0  -0.597829  -0.780237  0  2.088891  0
O  O125  1  0.77409433  0.11920490  0.51091427  1  0  -0.860432  0  1.858857  0  0  -0.796484  0  2.064575  0  0  -0.819247  0  2.029537  0  0  -0.597863  -0.780254  0  2.088894  0
O  O126  1  0.27410563  0.11920106  0.98908588  1  0  -0.86025  0  1.858907  0  0  -0.796364  0  2.064594  0  0  -0.819124  0  2.029552  0  0  -0.597799  -0.780136  0  2.088912  0
O  O127  1  0.22590936  0.88079750  0.48908507  1  0  -0.860451  0  1.858845  0  0  -0.796482  0  2.064624  0  0  -0.819242  0  2.029583  0  0  -0.597888  -0.780255  0  2.088942  0
O  O128  1  0.12143110  0.63572593  0.92038753  1  0  -0.818318  0  1.846854  0  0  -0.767521  0  2.033721  0  0  -0.787522  0  2.004009  0  0  -0.57525  -0.753256  0  2.054208  0
O  O129  1  0.37855328  0.36425756  0.42038687  1  0  -0.818598  0  1.846505  0  0  -0.767927  0  2.033139  0  0  -0.787927  0  2.003418  0  0  -0.575383  -0.753657  0  2.053642  0
O  O130  1  0.87856755  0.36427359  0.07961237  1  0  -0.818396  0  1.84675  0  0  -0.767609  0  2.03361  0  0  -0.78761  0  2.003896  0  0  -0.575272  -0.753341  0  2.054101  0
O  O131  1  0.62144862  0.63574000  0.57961247  1  0  -0.81862  0  1.846485  0  0  -0.767944  0  2.033108  0  0  -0.787943  0  2.003386  0  0  -0.575376  -0.753672  0  2.053614  0
