# generated using pymatgen
data_VCuPH10C13N2O5F
_symmetry_space_group_name_H-M   'P 1'
_cell_length_a   8.80345017
_cell_length_b   10.39181306
_cell_length_c   15.92927264
_cell_angle_alpha   100.84986959
_cell_angle_beta   90.00003665
_cell_angle_gamma   89.99919771
_symmetry_Int_Tables_number   1
_chemical_formula_structural   VCuPH10C13N2O5F
_chemical_formula_sum   'V4 Cu4 P4 H40 C52 N8 O20 F4'
_cell_volume   1431.22004427
_cell_formula_units_Z   4
loop_
 _symmetry_equiv_pos_site_id
 _symmetry_equiv_pos_as_xyz
  1  'x, y, z'
loop_
 _atom_site_type_symbol
 _atom_site_label
 _atom_site_symmetry_multiplicity
 _atom_site_fract_x
 _atom_site_fract_y
 _atom_site_fract_z
 _atom_site_occupancy
 _atom_site_pbe_bader_charge
 _atom_site_pbe_bader_spin_density
 _atom_site_pbe_cm5_charge
 _atom_site_pbe_ddec_charge
 _atom_site_pbe_ddec_spin_density
 _atom_site_pbe_ddec_sum_bond_order
 _atom_site_pbe_magmom
V  V0  1  0.45626793  0.85176344  0.77699671  1  2.177168  0.043108  1.477573  1.9909  0.033388  3.216892  0.049
V  V1  1  0.95626786  0.64823134  0.72300318  1  2.177214  -0.043098  1.477595  1.990948  -0.03338  3.216617  -0.049
V  V2  1  0.54373232  0.14822846  0.22299576  1  2.177727  -0.043084  1.477666  1.990891  -0.033375  3.216615  -0.049
V  V3  1  0.04373124  0.35177138  0.27700316  1  2.177615  0.043117  1.47758  1.990874  0.033396  3.216638  0.049
Cu  Cu4  1  0.25551960  0.55180440  0.83980389  1  1.098751  -0.560852  0.775069  0.885577  -0.744995  2.341823  -0.559
Cu  Cu5  1  0.75550769  0.94821242  0.66019672  1  1.098939  0.560846  0.775081  0.885683  0.744997  2.341724  0.559
Cu  Cu6  1  0.74448404  0.44819733  0.16019919  1  1.098649  0.560851  0.775074  0.885606  0.744984  2.341799  0.559
Cu  Cu7  1  0.24447551  0.05181867  0.33979925  1  1.098748  -0.560871  0.775051  0.885571  -0.744999  2.341513  -0.559
P  P8  1  0.28337639  0.59650577  0.66141689  1  3.401576  -0.002143  0.33002  1.284234  -0.004782  5.388249  0.0
P  P9  1  0.78337679  0.90349111  0.83858194  1  3.401616  0.002144  0.330132  1.284394  0.004783  5.388231  0.0
P  P10  1  0.71662499  0.40348810  0.33858147  1  3.401555  0.002144  0.330048  1.284284  0.004782  5.388443  0.0
P  P11  1  0.21662459  0.09651157  0.16141560  1  3.401613  -0.002142  0.330121  1.284315  -0.004782  5.388421  0.0
H  H12  1  0.60373305  0.54171720  0.64791337  1  0.127201  9.8e-05  0.110008  0.116319  3.3e-05  1.013784  0.0
H  H13  1  0.10373371  0.95827796  0.85208644  1  0.127146  -9.8e-05  0.110004  0.116295  -3.3e-05  1.013855  0.0
H  H14  1  0.39626719  0.45828158  0.35208558  1  0.127162  -9.8e-05  0.110004  0.116315  -3.3e-05  1.013816  0.0
H  H15  1  0.89626880  0.04172180  0.14791451  1  0.127187  9.7e-05  0.109999  0.116328  3.3e-05  1.013727  0.0
H  H16  1  0.22489634  0.53187317  0.47321817  1  0.092989  -9e-06  0.107757  0.112832  1.3e-05  1.014638  0.0
H  H17  1  0.72489871  0.96812623  0.02678297  1  0.093018  9e-06  0.107776  0.112853  -1.3e-05  1.014581  0.0
H  H18  1  0.77510504  0.46812561  0.52678204  1  0.09299  9e-06  0.10775  0.112833  -1.3e-05  1.014595  0.0
H  H19  1  0.27510380  0.03187549  0.97321697  1  0.092993  -9e-06  0.107758  0.112857  1.3e-05  1.01457  0.0
H  H20  1  0.05772631  0.74371565  0.95629363  1  0.13535  -0.003199  0.121911  0.105542  -0.001556  1.008907  -0.002
H  H21  1  0.55772539  0.75628203  0.54370773  1  0.135333  0.0032  0.121901  0.105531  0.001557  1.008885  0.002
H  H22  1  0.94227279  0.25628509  0.04370995  1  0.135231  0.0032  0.121902  0.105531  0.001557  1.008851  0.002
H  H23  1  0.44227030  0.24371381  0.45629275  1  0.13534  -0.0032  0.121905  0.105517  -0.001557  1.008958  -0.002
H  H24  1  0.97933927  0.77121251  0.11034429  1  0.11219  -0.001294  0.110208  0.119043  -0.000709  1.003032  -0.001
H  H25  1  0.47934717  0.72879261  0.38965762  1  0.112273  0.001293  0.110195  0.119014  0.000709  1.003072  0.001
H  H26  1  0.02065757  0.22878922  0.88965879  1  0.112265  0.001294  0.110194  0.119017  0.000709  1.003051  0.001
H  H27  1  0.52065648  0.27121205  0.61034393  1  0.112264  -0.001294  0.110182  0.119021  -0.000709  1.002947  -0.001
H  H28  1  0.07946962  0.60641585  0.19717208  1  0.151189  -0.000133  0.109152  0.104598  -0.000112  1.049559  0.0
H  H29  1  0.57947014  0.89358728  0.30283009  1  0.151228  0.000133  0.109179  0.104624  0.000112  1.049522  0.0
H  H30  1  0.92052835  0.39358686  0.80283238  1  0.151094  0.000133  0.109155  0.104666  0.000112  1.049545  0.0
H  H31  1  0.42052556  0.10641247  0.69716835  1  0.151118  -0.000133  0.109194  0.104663  -0.000112  1.049529  0.0
H  H32  1  0.25100491  0.43143287  0.12837979  1  0.113091  -0.001566  0.121323  0.142627  -0.000791  0.997063  -0.001
H  H33  1  0.75100066  0.06856739  0.37162490  1  0.113153  0.001566  0.121326  0.142646  0.000791  0.997146  0.001
H  H34  1  0.74899646  0.56856984  0.87162466  1  0.113135  0.001566  0.121325  0.14264  0.000791  0.99709  0.001
H  H35  1  0.24899731  0.93142942  0.62837444  1  0.113167  -0.001567  0.121327  0.142611  -0.000791  0.997083  -0.001
H  H36  1  0.39703748  0.28299373  0.05631501  1  0.16339  -0.001547  0.113272  0.142589  -0.000801  1.016973  -0.001
H  H37  1  0.89703654  0.21700377  0.44368877  1  0.163439  0.001547  0.113268  0.142569  0.000801  1.017036  0.001
H  H38  1  0.60296049  0.71700800  0.94368995  1  0.163502  0.001547  0.113207  0.142492  0.000801  1.017084  0.001
H  H39  1  0.10296143  0.78299304  0.55631058  1  0.163512  -0.001548  0.113255  0.142556  -0.000802  1.016973  -0.001
H  H40  1  0.56939897  0.13015250  0.96316750  1  0.145272  -0.000102  0.117813  0.124657  -4.9e-05  0.985664  0.0
H  H41  1  0.06939732  0.36984230  0.53683382  1  0.145224  0.000102  0.11776  0.124557  4.9e-05  0.985763  0.0
H  H42  1  0.43059787  0.86984826  0.03683735  1  0.145197  0.000102  0.117806  0.12465  4.9e-05  0.985685  0.0
H  H43  1  0.93060065  0.63015451  0.46316364  1  0.14524  -0.000102  0.11778  0.124572  -4.9e-05  0.985754  0.0
H  H44  1  0.62822210  0.16723437  0.81606015  1  0.117243  -0.001309  0.112226  0.117898  -0.000798  1.02312  -0.001
H  H45  1  0.12821783  0.33275676  0.68393949  1  0.117314  0.001309  0.112224  0.117859  0.000798  1.02319  0.001
H  H46  1  0.37177587  0.83276148  0.18394410  1  0.11722  0.001309  0.112235  0.117889  0.000798  1.023098  0.001
H  H47  1  0.87177673  0.66723808  0.31605585  1  0.117202  -0.00131  0.112196  0.11778  -0.000798  1.023141  -0.001
H  H48  1  0.49661642  0.35671373  0.76478030  1  0.143833  -0.002963  0.124969  0.111112  -0.001451  0.987484  -0.002
H  H49  1  0.99661759  0.14328272  0.73522262  1  0.143771  0.002963  0.124959  0.111105  0.001451  0.987417  0.002
H  H50  1  0.50338268  0.64328309  0.23522281  1  0.143743  0.002962  0.125011  0.111186  0.00145  0.987431  0.002
H  H51  1  0.00338378  0.85671704  0.26477834  1  0.143775  -0.002963  0.125005  0.111175  -0.001451  0.987394  -0.002
C  C52  1  0.40174970  0.54182442  0.56919186  1  -0.532133  -0.005377  -0.018691  -0.176681  -0.003454  3.963998  -0.004
C  C53  1  0.90174816  0.95817396  0.93080657  1  -0.532118  0.005377  -0.018701  -0.176795  0.003454  3.964114  0.004
C  C54  1  0.59825168  0.45817142  0.43080737  1  -0.532145  0.005376  -0.018726  -0.176718  0.003453  3.964019  0.004
C  C55  1  0.09824867  0.04183264  0.06918957  1  -0.532267  -0.005377  -0.018712  -0.176713  -0.003455  3.963978  -0.004
C  C56  1  0.55724912  0.52334301  0.58329261  1  -0.030847  -0.002233  -0.077384  -0.067834  -0.00145  3.957982  -0.001
C  C57  1  0.05724841  0.97665368  0.91670424  1  -0.030736  0.002232  -0.077363  -0.067762  0.00145  3.957883  0.001
C  C58  1  0.44275226  0.47665576  0.41670635  1  -0.030754  0.002233  -0.077395  -0.06785  0.00145  3.957842  0.001
C  C59  1  0.94275069  0.02334704  0.08329181  1  -0.030803  -0.002233  -0.077338  -0.067825  -0.001451  3.957774  -0.001
C  C60  1  0.34510274  0.51827519  0.48536277  1  -0.117456  -0.003166  -0.079601  -0.073779  -0.002041  3.965216  -0.002
C  C61  1  0.84510373  0.98172566  0.01463482  1  -0.117514  0.003165  -0.079658  -0.073775  0.002041  3.965311  0.002
C  C62  1  0.65489637  0.48172260  0.51463607  1  -0.117447  0.003166  -0.079598  -0.073779  0.002041  3.96527  0.002
C  C63  1  0.15489537  0.01827800  0.98536222  1  -0.117325  -0.003165  -0.079627  -0.073821  -0.00204  3.965291  -0.002
C  C64  1  0.09904363  0.67902343  0.99769073  1  0.46109  0.001658  0.059242  0.121937  0.000192  3.892828  0.002
C  C65  1  0.59904613  0.82097865  0.50231181  1  0.461106  -0.001658  0.059276  0.121883  -0.000192  3.892719  -0.002
C  C66  1  0.90095434  0.32097927  0.00231310  1  0.461138  -0.001658  0.059317  0.12202  -0.000192  3.892655  -0.002
C  C67  1  0.40095297  0.17902209  0.49768801  1  0.461026  0.001657  0.05932  0.121979  0.000192  3.892878  0.002
C  C68  1  0.05563842  0.69191485  0.08304025  1  0.008969  -0.006835  -0.078194  -0.121927  -0.004841  3.937886  -0.006
C  C69  1  0.55564048  0.80808563  0.41696033  1  0.008918  0.006836  -0.078182  -0.121842  0.004841  3.937846  0.006
C  C70  1  0.94435955  0.30808590  0.91696334  1  0.008835  0.006835  -0.078177  -0.12188  0.004841  3.937833  0.006
C  C71  1  0.44435635  0.19191314  0.58303799  1  0.008911  -0.006836  -0.078209  -0.121868  -0.004841  3.937741  -0.006
C  C72  1  0.11049836  0.60207836  0.13047930  1  -0.083402  0.003746  -0.06145  -0.024773  0.002433  3.951429  0.002
C  C73  1  0.61049889  0.89792243  0.36952322  1  -0.083402  -0.003746  -0.061455  -0.024775  -0.002433  3.951468  -0.002
C  C74  1  0.88949961  0.39792435  0.86952453  1  -0.083021  -0.003746  -0.061475  -0.024972  -0.002433  3.951467  -0.002
C  C75  1  0.38949681  0.10207634  0.63047573  1  -0.083146  0.003745  -0.061492  -0.024953  0.002432  3.951537  0.002
C  C76  1  0.20888672  0.50314806  0.09220304  1  0.03024  -0.003979  -0.069584  -0.136246  -0.002976  3.885665  -0.003
C  C77  1  0.70888679  0.99685446  0.40779784  1  0.03021  0.003978  -0.069577  -0.136283  0.002975  3.885704  0.003
C  C78  1  0.79111238  0.49685562  0.90780090  1  0.03027  0.003978  -0.069603  -0.136244  0.002976  3.885529  0.003
C  C79  1  0.29111459  0.00314626  0.59219884  1  0.030277  -0.003979  -0.069589  -0.136186  -0.002977  3.885488  -0.003
C  C80  1  0.24959236  0.49658844  0.00690513  1  0.439131  -0.000913  0.115334  0.153313  -0.001297  4.017125  -0.001
C  C81  1  0.74958932  0.00341183  0.49309705  1  0.438807  0.000911  0.115301  0.153244  0.001296  4.016907  0.001
C  C82  1  0.75040788  0.50341329  0.99309984  1  0.438944  0.000913  0.115332  0.153349  0.001297  4.016803  0.001
C  C83  1  0.25040865  0.99658791  0.50689888  1  0.438942  -0.000914  0.115344  0.153301  -0.001298  4.016858  -0.001
C  C84  1  0.35294751  0.39867663  0.95882279  1  0.449252  -0.001129  0.112681  0.153787  -0.001521  4.018472  -0.001
C  C85  1  0.85294688  0.10132353  0.54117865  1  0.449506  0.001127  0.112679  0.153754  0.001521  4.018474  0.001
C  C86  1  0.64705159  0.60132511  0.04118343  1  0.449907  0.001128  0.112658  0.153787  0.001521  4.018724  0.001
C  C87  1  0.14705449  0.89867621  0.45881540  1  0.449941  -0.001129  0.112617  0.153688  -0.001522  4.01887  -0.001
C  C88  1  0.41935643  0.29654628  0.99137066  1  -0.013462  -0.003944  -0.070429  -0.139911  -0.002976  3.881604  -0.003
C  C89  1  0.91935521  0.20345111  0.50863047  1  -0.013725  0.003944  -0.070422  -0.139915  0.002975  3.881692  0.003
C  C90  1  0.58064267  0.70345447  0.00863356  1  -0.013896  0.003946  -0.07035  -0.139784  0.002977  3.881685  0.003
C  C91  1  0.08064390  0.79654667  0.49136523  1  -0.013933  -0.003947  -0.070339  -0.139782  -0.002978  3.881614  -0.003
C  C92  1  0.51802524  0.21166073  0.93953504  1  -0.027293  0.004144  -0.050575  0.012289  0.002809  3.881432  0.003
C  C93  1  0.01802269  0.28833470  0.56046697  1  -0.027277  -0.004145  -0.05048  0.012436  -0.002809  3.88144  -0.003
C  C94  1  0.48197160  0.78833806  0.06046957  1  -0.027197  -0.004144  -0.050502  0.012298  -0.002809  3.881617  -0.003
C  C95  1  0.98197528  0.71166407  0.43953136  1  -0.027207  0.004143  -0.050545  0.012348  0.002808  3.881538  0.003
C  C96  1  0.54959901  0.23135897  0.85711855  1  0.019221  -0.006927  -0.072118  -0.106787  -0.004914  3.922764  -0.006
C  C97  1  0.04959916  0.26863803  0.64288240  1  0.019348  0.006928  -0.07217  -0.106794  0.004914  3.922803  0.006
C  C98  1  0.45039669  0.76863688  0.14288319  1  0.01931  0.006926  -0.07222  -0.106874  0.004913  3.922875  0.006
C  C99  1  0.95039881  0.73136564  0.35711715  1  0.019355  -0.006926  -0.072121  -0.106696  -0.004914  3.922701  -0.006
C  C100  1  0.47863051  0.33475409  0.82829057  1  0.401256  0.001701  0.054541  0.105042  0.000287  3.910435  0.002
C  C101  1  0.97863011  0.16524258  0.67171111  1  0.401511  -0.001701  0.054609  0.105082  -0.000288  3.910316  -0.002
C  C102  1  0.52136519  0.66524373  0.17171392  1  0.401419  -0.0017  0.054596  0.105106  -0.000287  3.910255  -0.002
C  C103  1  0.02136559  0.83475619  0.32828658  1  0.40112  0.001699  0.054566  0.105073  0.000286  3.910247  0.002
N  N104  1  0.19332220  0.58372424  0.96121928  1  -1.210334  -0.095813  -0.346181  -0.279036  -0.06529  3.627736  -0.082
N  N105  1  0.69331863  0.91627670  0.53878441  1  -1.210354  0.095813  -0.346188  -0.278968  0.065288  3.627562  0.082
N  N106  1  0.80667804  0.41627749  0.03878443  1  -1.210536  0.095811  -0.346181  -0.279014  0.065287  3.627585  0.082
N  N107  1  0.30667593  0.08372600  0.46121753  1  -1.210517  -0.095815  -0.346141  -0.278946  -0.065288  3.627645  -0.082
N  N108  1  0.38172355  0.41492424  0.87772838  1  -1.195719  -0.095749  -0.34822  -0.286743  -0.065066  3.626708  -0.083
N  N109  1  0.88172328  0.08507459  0.62227542  1  -1.196015  0.095743  -0.348267  -0.286762  0.065061  3.626866  0.083
N  N110  1  0.61827669  0.58507552  0.12227446  1  -1.196035  0.095754  -0.348284  -0.286886  0.065068  3.626978  0.083
N  N111  1  0.11827810  0.91492321  0.37772593  1  -1.195791  -0.095763  -0.348236  -0.286835  -0.065075  3.627032  -0.083
O  O112  1  0.32089914  0.74177304  0.69660098  1  -1.398817  0.004328  -0.426393  -0.814791  0.003132  2.360408  0.003
O  O113  1  0.82089621  0.75822143  0.80339820  1  -1.398867  -0.00433  -0.426471  -0.814895  -0.003133  2.360468  -0.003
O  O114  1  0.67911019  0.25822474  0.30339220  1  -1.398846  -0.004329  -0.426387  -0.814867  -0.003133  2.36048  -0.003
O  O115  1  0.17910289  0.24177540  0.19660492  1  -1.398838  0.004328  -0.426459  -0.814878  0.003132  2.360508  0.003
O  O116  1  0.32613316  0.50329594  0.72266257  1  -1.371827  -0.088645  -0.380527  -0.7363  -0.057517  2.334742  -0.076
O  O117  1  0.82612967  0.99670042  0.77733496  1  -1.371937  0.08864  -0.380546  -0.736327  0.057514  2.334824  0.076
O  O118  1  0.67387049  0.49670382  0.27733839  1  -1.371799  0.088641  -0.380513  -0.736278  0.057514  2.334848  0.076
O  O119  1  0.17387057  0.00329735  0.22265509  1  -1.371857  -0.088632  -0.380527  -0.736302  -0.057507  2.334909  -0.076
O  O120  1  0.11564790  0.58656554  0.63234105  1  -1.401359  -0.002262  -0.408502  -0.783103  -0.001163  2.254105  -0.002
O  O121  1  0.61564475  0.91342751  0.86765915  1  -1.40135  0.002261  -0.40853  -0.783152  0.001163  2.254125  0.002
O  O122  1  0.88435348  0.41343030  0.36765944  1  -1.401387  0.002262  -0.408544  -0.783107  0.001163  2.254178  0.002
O  O123  1  0.38435094  0.08657224  0.13233867  1  -1.401345  -0.002263  -0.408546  -0.783144  -0.001164  2.254252  -0.002
O  O124  1  0.35249731  0.98265110  0.79573447  1  -0.789447  0.005951  -0.580509  -0.7063  0.003696  1.516909  0.004
O  O125  1  0.85249371  0.51734103  0.70426507  1  -0.78961  -0.005949  -0.580474  -0.706311  -0.003694  1.5167  -0.004
O  O126  1  0.64751543  0.01734178  0.20425812  1  -0.78968  -0.005946  -0.580534  -0.706331  -0.003693  1.516812  -0.004
O  O127  1  0.14750994  0.48265678  0.29573879  1  -0.789626  0.005944  -0.580474  -0.706308  0.003692  1.516782  0.004
O  O128  1  0.08307057  0.63832466  0.80190134  1  -0.92482  -0.057241  -0.622257  -0.871051  -0.039672  1.985432  -0.052
O  O129  1  0.58308058  0.86167467  0.69809961  1  -0.924821  0.057255  -0.622221  -0.871066  0.039679  1.985465  0.052
O  O130  1  0.91693535  0.36167511  0.19810276  1  -0.924924  0.057223  -0.622237  -0.870969  0.03966  1.985337  0.052
O  O131  1  0.41695033  0.13832898  0.30189492  1  -0.925101  -0.057221  -0.622313  -0.870942  -0.039656  1.985326  -0.052
F  F132  1  0.41698777  0.73160957  0.84894877  1  -0.691488  0.001771  -0.382529  -0.57899  0.000989  1.02323  0.0
F  F133  1  0.91698791  0.76838274  0.65104830  1  -0.691414  -0.001771  -0.382536  -0.579042  -0.000989  1.023146  0.0
F  F134  1  0.58301929  0.26839604  0.15104348  1  -0.691575  -0.001769  -0.382541  -0.579063  -0.000988  1.023077  0.0
F  F135  1  0.08302710  0.23161017  0.34895560  1  -0.69157  0.001769  -0.382526  -0.579034  0.000987  1.023215  0.0
