# generated using pymatgen
data_Co5H6C18(N9Cl2)2
_symmetry_space_group_name_H-M   'P 1'
_cell_length_a   15.29635297
_cell_length_b   15.29517761
_cell_length_c   15.27485468
_cell_angle_alpha   60.02999701
_cell_angle_beta   60.02974684
_cell_angle_gamma   60.31173967
_symmetry_Int_Tables_number   1
_chemical_formula_structural   Co5H6C18(N9Cl2)2
_chemical_formula_sum   'Co10 H12 C36 N36 Cl8'
_cell_volume   2534.04388182
_cell_formula_units_Z   2
loop_
 _symmetry_equiv_pos_site_id
 _symmetry_equiv_pos_as_xyz
  1  'x, y, z'
loop_
 _atom_site_type_symbol
 _atom_site_label
 _atom_site_symmetry_multiplicity
 _atom_site_fract_x
 _atom_site_fract_y
 _atom_site_fract_z
 _atom_site_occupancy
 _atom_site_pbe_bader_charge
 _atom_site_pbe_bader_spin_density
 _atom_site_pbe_cm5_charge
 _atom_site_pbe_ddec_charge
 _atom_site_pbe_ddec_spin_density
 _atom_site_pbe_ddec_sum_bond_order
 _atom_site_pbe_magmom
Co  Co0  1  0.75124240  0.75122157  0.74674304  1  1.127771  2.391025  0.604924  0.297338  2.665317  2.868801  2.381
Co  Co1  1  0.24875811  0.24877877  0.25325578  1  1.127849  2.391  0.604848  0.297282  2.665279  2.868704  2.381
Co  Co2  1  0.02694205  0.65823326  0.65743956  1  1.106023  2.52025  0.664283  0.621285  2.749931  2.978601  2.453
Co  Co3  1  0.65795108  0.65796403  0.02720232  1  1.106412  2.525376  0.662398  0.624075  2.754817  2.963735  2.457
Co  Co4  1  0.65795862  0.65802762  0.65696182  1  1.113016  2.521199  0.662652  0.620259  2.751873  2.976344  2.454
Co  Co5  1  0.65817698  0.02701861  0.65740291  1  1.105901  2.520251  0.664521  0.621658  2.749922  2.979296  2.453
Co  Co6  1  0.34204859  0.34203681  0.97279523  1  1.106462  2.525359  0.662406  0.624115  2.754793  2.963753  2.457
Co  Co7  1  0.97305308  0.34176812  0.34256285  1  1.106054  2.520279  0.664252  0.62133  2.749959  2.978374  2.453
Co  Co8  1  0.34204420  0.34197238  0.34303904  1  1.113004  2.52119  0.662607  0.620225  2.751862  2.976248  2.454
Co  Co9  1  0.34182545  0.97297577  0.34259836  1  1.105907  2.5203  0.664425  0.621557  2.749968  2.979058  2.453
H  H10  1  0.16814521  0.50043275  0.83098678  1  0.155609  0.001348  0.10989  0.142859  0.00049  1.031399  0.001
H  H11  1  0.83184896  0.49957299  0.16901061  1  0.155576  0.001348  0.109908  0.142906  0.000489  1.031275  0.001
H  H12  1  0.49965993  0.83180064  0.49965090  1  0.146633  0.001365  0.109936  0.143122  0.000478  1.031315  0.001
H  H13  1  0.50034404  0.16819523  0.50035294  1  0.146298  0.001366  0.10992  0.143088  0.000478  1.031376  0.001
H  H14  1  0.16775741  0.83210083  0.50008394  1  0.164639  0.001311  0.109542  0.142271  0.000473  1.031809  0.001
H  H15  1  0.83223926  0.16789551  0.49992119  1  0.164587  0.001314  0.109557  0.142242  0.000473  1.031843  0.001
H  H16  1  0.49999772  0.49996867  0.16879545  1  0.141442  0.001374  0.109712  0.143  0.000484  1.032062  0.001
H  H17  1  0.50000508  0.50003401  0.83120111  1  0.141438  0.001374  0.109703  0.142978  0.000484  1.032033  0.001
H  H18  1  0.16813349  0.50039860  0.50043213  1  0.14627  0.001363  0.109979  0.143215  0.000475  1.031519  0.001
H  H19  1  0.83186609  0.49960203  0.49956976  1  0.146496  0.001362  0.109971  0.143221  0.000475  1.031481  0.001
H  H20  1  0.50035103  0.16816938  0.83109538  1  0.156136  0.001345  0.109863  0.142826  0.00049  1.031627  0.001
H  H21  1  0.49965137  0.83182769  0.16890159  1  0.156095  0.001345  0.109865  0.142846  0.000489  1.031561  0.001
C  C22  1  0.99313525  0.55384004  0.89925082  1  0.360855  0.00811  0.100446  0.139706  0.004756  4.041773  0.008
C  C23  1  0.89935968  0.55374819  0.99327541  1  0.467472  0.008141  0.100549  0.139519  0.004865  4.042587  0.008
C  C24  1  0.55370664  0.89939595  0.55359197  1  0.392806  0.010228  0.101162  0.140373  0.006152  4.041877  0.009
C  C25  1  0.55387073  0.99313310  0.55382763  1  0.41293  0.010082  0.101082  0.141333  0.006133  4.040616  0.009
C  C26  1  0.99283486  0.89938547  0.55394182  1  0.357731  0.011524  0.102127  0.141707  0.00683  4.0424  0.01
C  C27  1  0.89931521  0.99291440  0.55392234  1  0.424716  0.011353  0.102319  0.14161  0.006824  4.04277  0.01
C  C28  1  0.55399439  0.55391289  0.99303547  1  0.36088  0.008249  0.100694  0.140322  0.004803  4.041593  0.008
C  C29  1  0.55389411  0.55385360  0.89911059  1  0.440526  0.007915  0.10064  0.139814  0.004709  4.042116  0.008
C  C30  1  0.99309865  0.55381860  0.55385665  1  0.360826  0.010273  0.10111  0.141247  0.006156  4.040665  0.009
C  C31  1  0.89938459  0.55366589  0.55360459  1  0.444641  0.010105  0.100983  0.140145  0.006167  4.041763  0.01
C  C32  1  0.55386686  0.99316092  0.89922165  1  0.423424  0.007947  0.100253  0.139833  0.004754  4.041814  0.008
C  C33  1  0.55379238  0.89939572  0.99323142  1  0.361346  0.008361  0.100455  0.139439  0.004871  4.042672  0.008
C  C34  1  0.10063727  0.44625642  0.00672272  1  0.467217  0.008141  0.100483  0.13946  0.004865  4.042811  0.008
C  C35  1  0.00686152  0.44616442  0.10074603  1  0.360477  0.008112  0.10039  0.139541  0.004756  4.042047  0.008
C  C36  1  0.44629694  0.10060214  0.44641166  1  0.392433  0.01023  0.101251  0.140515  0.006151  4.041751  0.009
C  C37  1  0.44613192  0.00686537  0.44617575  1  0.412809  0.010082  0.101055  0.141259  0.006133  4.04057  0.009
C  C38  1  0.44620914  0.10060575  0.00676283  1  0.361807  0.008357  0.100391  0.139273  0.004871  4.042752  0.008
C  C39  1  0.44613477  0.00683936  0.10077207  1  0.422597  0.007949  0.100249  0.139804  0.004754  4.041772  0.008
C  C40  1  0.00690287  0.44618140  0.44614472  1  0.360372  0.010275  0.101057  0.141101  0.006156  4.04081  0.009
C  C41  1  0.10061657  0.44633373  0.44639754  1  0.444844  0.010105  0.101006  0.140261  0.006167  4.041681  0.01
C  C42  1  0.44600555  0.44608951  0.00696185  1  0.360116  0.008252  0.10076  0.140455  0.004802  4.041555  0.008
C  C43  1  0.44610639  0.44614804  0.10088775  1  0.441898  0.007902  0.100613  0.13982  0.004708  4.04206  0.008
C  C44  1  0.10068033  0.00708339  0.44608409  1  0.4248  0.011353  0.102262  0.141592  0.006823  4.04255  0.01
C  C45  1  0.00716096  0.10061128  0.44606536  1  0.356729  0.011527  0.10205  0.141665  0.006829  4.042283  0.01
C  C46  1  0.09705940  0.50019881  0.90251592  1  -0.000443  0.007884  -0.077656  -0.215077  0.004049  3.902364  0.005
C  C47  1  0.90293699  0.49980656  0.09748121  1  -0.00061  0.007884  -0.077651  -0.215024  0.004049  3.902296  0.005
C  C48  1  0.49978976  0.90296721  0.49976582  1  0.03443  0.005238  -0.077756  -0.215786  0.002678  3.901902  0.003
C  C49  1  0.50021448  0.09702893  0.50023829  1  0.034718  0.005238  -0.077782  -0.215816  0.002678  3.901999  0.003
C  C50  1  0.09685131  0.90309776  0.50004061  1  0.039419  0.003041  -0.078366  -0.216731  0.001511  3.902697  0.002
C  C51  1  0.90314526  0.09689847  0.49996554  1  0.039624  0.003042  -0.078326  -0.216637  0.001512  3.902707  0.002
C  C52  1  0.50005412  0.50002175  0.09735883  1  0.043578  0.007512  -0.077867  -0.216209  0.003875  3.903422  0.005
C  C53  1  0.49994638  0.49997989  0.90263951  1  0.043561  0.007512  -0.077873  -0.216205  0.003875  3.903458  0.005
C  C54  1  0.09703062  0.50022198  0.50027041  1  0.033965  0.005098  -0.077765  -0.215581  0.002601  3.901614  0.003
C  C55  1  0.90296886  0.49977854  0.49973250  1  0.034144  0.005098  -0.077792  -0.215575  0.002601  3.901515  0.003
C  C56  1  0.50016650  0.09706137  0.90255476  1  0.04173  0.007773  -0.07758  -0.214989  0.004013  3.90316  0.005
C  C57  1  0.49983673  0.90293659  0.09743968  1  0.042286  0.007772  -0.077638  -0.215099  0.004013  3.903087  0.005
N  N58  1  0.95725122  0.61481364  0.81330647  1  -0.635829  0.090643  -0.247978  -0.20976  0.047521  3.573244  0.064
N  N59  1  0.81371597  0.61474249  0.95720467  1  -0.647494  0.090263  -0.246895  -0.211369  0.047391  3.56056  0.064
N  N60  1  0.61478933  0.81369919  0.61408074  1  -0.674109  0.086919  -0.247404  -0.209979  0.045632  3.563939  0.061
N  N61  1  0.61496089  0.95721900  0.61450388  1  -0.734534  0.088526  -0.248365  -0.210635  0.046259  3.568482  0.062
N  N62  1  0.95669855  0.81353941  0.61480230  1  -0.729562  0.085805  -0.248385  -0.210521  0.044832  3.562512  0.06
N  N63  1  0.81347856  0.95677693  0.61476265  1  -0.72051  0.08578  -0.248261  -0.21027  0.044879  3.561738  0.06
N  N64  1  0.61513236  0.61499982  0.95679917  1  -0.721242  0.090833  -0.246985  -0.21055  0.04738  3.55933  0.064
N  N65  1  0.61497325  0.61490226  0.81298297  1  -0.742882  0.09045  -0.247618  -0.209129  0.047041  3.56747  0.064
N  N66  1  0.95715072  0.61490539  0.61458070  1  -0.730795  0.088376  -0.248156  -0.210556  0.046214  3.568196  0.062
N  N67  1  0.81368787  0.61475482  0.61411805  1  -0.675127  0.086896  -0.247266  -0.21015  0.045631  3.562395  0.061
N  N68  1  0.61485555  0.95727989  0.81326103  1  -0.635851  0.09063  -0.247932  -0.210214  0.047509  3.571967  0.064
N  N69  1  0.61482522  0.81372603  0.95716120  1  -0.651342  0.09017  -0.247004  -0.211538  0.047339  3.559869  0.064
N  N70  1  0.18628237  0.38526224  0.04279194  1  -0.647239  0.090259  -0.246874  -0.211351  0.04739  3.560656  0.064
N  N71  1  0.04274715  0.38518849  0.18669110  1  -0.635739  0.090636  -0.247934  -0.209702  0.047517  3.573107  0.064
N  N72  1  0.38521498  0.18629967  0.38592137  1  -0.673629  0.086915  -0.247416  -0.209999  0.04563  3.563757  0.061
N  N73  1  0.38504287  0.04278062  0.38549722  1  -0.734272  0.088509  -0.248342  -0.210616  0.046251  3.568364  0.062
N  N74  1  0.38517603  0.18627517  0.04283279  1  -0.651262  0.090168  -0.246986  -0.211431  0.047337  3.559869  0.064
N  N75  1  0.38514468  0.04272157  0.18673373  1  -0.635733  0.090618  -0.247819  -0.210067  0.047502  3.571962  0.064
N  N76  1  0.04285184  0.38509304  0.38542039  1  -0.730808  0.088374  -0.248177  -0.210577  0.046209  3.568288  0.062
N  N77  1  0.18631404  0.38524426  0.38588304  1  -0.675193  0.086902  -0.247256  -0.210194  0.045628  3.562306  0.061
N  N78  1  0.38486796  0.38500168  0.04319788  1  -0.721067  0.09083  -0.247098  -0.210724  0.047381  3.559407  0.064
N  N79  1  0.38502763  0.38509846  0.18701509  1  -0.744275  0.090457  -0.24768  -0.209276  0.047039  3.567494  0.064
N  N80  1  0.18651836  0.04322098  0.38524225  1  -0.720519  0.085771  -0.248254  -0.21026  0.044874  3.561655  0.06
N  N81  1  0.04329846  0.18645862  0.38520158  1  -0.729425  0.085798  -0.248377  -0.210551  0.044828  3.562546  0.06
N  N82  1  0.85079500  0.64964952  0.85018185  1  -0.282372  0.038156  -0.098239  0.007773  0.021708  3.476538  0.035
N  N83  1  0.64988341  0.85063831  0.64905195  1  -0.15353  0.03725  -0.102601  0.008967  0.022147  3.502274  0.037
N  N84  1  0.85005817  0.85010550  0.64968274  1  -0.116076  0.037823  -0.105833  0.009472  0.022863  3.510993  0.038
N  N85  1  0.65005549  0.64991907  0.84978816  1  -0.109867  0.037012  -0.100115  0.007717  0.021922  3.482071  0.034
N  N86  1  0.85060317  0.64983077  0.64913012  1  -0.15473  0.037359  -0.102646  0.009144  0.022206  3.50358  0.037
N  N87  1  0.64973863  0.85079128  0.85013637  1  -0.278329  0.03808  -0.098046  0.008218  0.021665  3.475252  0.035
N  N88  1  0.14920438  0.35035236  0.14981496  1  -0.282505  0.038152  -0.098233  0.007782  0.021706  3.476549  0.035
N  N89  1  0.35012100  0.14936066  0.35094914  1  -0.154026  0.037248  -0.1026  0.008935  0.022144  3.50221  0.037
N  N90  1  0.35026067  0.14921056  0.14985814  1  -0.278758  0.038076  -0.098056  0.008144  0.021662  3.475234  0.035
N  N91  1  0.14939873  0.35016831  0.35087098  1  -0.154743  0.037353  -0.102631  0.009184  0.022204  3.503603  0.037
N  N92  1  0.34994409  0.35008166  0.15021042  1  -0.109957  0.03701  -0.099992  0.007907  0.021919  3.481942  0.034
N  N93  1  0.14993875  0.14989241  0.35032216  1  -0.115793  0.037811  -0.105859  0.009404  0.022857  3.511038  0.038
Cl  Cl94  1  0.19799320  0.60111570  0.60023177  1  -0.515926  0.267646  -0.270541  -0.390032  0.137054  1.164957  0.181
Cl  Cl95  1  0.60047055  0.60037875  0.19893257  1  -0.517298  0.268897  -0.270584  -0.38958  0.13745  1.161271  0.182
Cl  Cl96  1  0.60072586  0.60051773  0.60001194  1  -0.525383  0.269667  -0.270814  -0.389178  0.1378  1.162636  0.182
Cl  Cl97  1  0.60117961  0.19807721  0.60021097  1  -0.516888  0.26786  -0.270608  -0.390158  0.137124  1.164647  0.181
Cl  Cl98  1  0.39952786  0.39961948  0.80106647  1  -0.517314  0.268903  -0.270594  -0.389586  0.137453  1.161308  0.182
Cl  Cl99  1  0.80199504  0.39889056  0.39976869  1  -0.516006  0.267605  -0.270579  -0.390097  0.137034  1.164888  0.181
Cl  Cl100  1  0.39927880  0.39948281  0.39998893  1  -0.525362  0.269651  -0.270817  -0.389175  0.137792  1.162599  0.182
Cl  Cl101  1  0.39882125  0.80190907  0.39979116  1  -0.516966  0.267806  -0.270644  -0.39018  0.137096  1.164475  0.181
