# generated using pymatgen
data_H11PbC18(NO2)2
_symmetry_space_group_name_H-M   'P 1'
_cell_length_a   8.09283556
_cell_length_b   10.41557204
_cell_length_c   10.36599265
_cell_angle_alpha   109.04603478
_cell_angle_beta   99.65577873
_cell_angle_gamma   103.03020502
_symmetry_Int_Tables_number   1
_chemical_formula_structural   H11PbC18(NO2)2
_chemical_formula_sum   'H22 Pb2 C36 N4 O8'
_cell_volume   776.55147429
_cell_formula_units_Z   2
loop_
 _symmetry_equiv_pos_site_id
 _symmetry_equiv_pos_as_xyz
  1  'x, y, z'
loop_
 _atom_site_type_symbol
 _atom_site_label
 _atom_site_symmetry_multiplicity
 _atom_site_fract_x
 _atom_site_fract_y
 _atom_site_fract_z
 _atom_site_occupancy
 _atom_site_hle17_bader_spin_density
 _atom_site_hle17_ddec_charge
 _atom_site_hle17_ddec_spin_density
 _atom_site_hle17_ddec_sum_bond_order
 _atom_site_hle17_magmom
 _atom_site_hse06_10hf_bader_spin_density
 _atom_site_hse06_10hf_ddec_charge
 _atom_site_hse06_10hf_ddec_spin_density
 _atom_site_hse06_10hf_ddec_sum_bond_order
 _atom_site_hse06_10hf_magmom
 _atom_site_hse06_bader_spin_density
 _atom_site_hse06_ddec_charge
 _atom_site_hse06_ddec_spin_density
 _atom_site_hse06_ddec_sum_bond_order
 _atom_site_hse06_magmom
 _atom_site_pbe_bader_spin_density
 _atom_site_pbe_cm5_charge
 _atom_site_pbe_ddec_charge
 _atom_site_pbe_ddec_spin_density
 _atom_site_pbe_ddec_sum_bond_order
 _atom_site_pbe_magmom
H  H0  1  0.97068463  0.31704040  0.58518410  1  0  0.085643  0  0.938526  0  0  0.094244  0  1.001774  0  0  0.097064  0  0.999102  0  0  0.121903  0.092326  0  1.003375  0
H  H1  1  0.02934055  0.68280680  0.41483168  1  0  0.085686  0  0.938518  0  0  0.09432  0  1.001723  0  0  0.097142  0  0.999049  0  0  0.121956  0.092402  0  1.003327  0
H  H2  1  0.81998454  0.41883763  0.76452054  1  0  0.117805  0  0.963937  0  0  0.129411  0  1.022318  0  0  0.132703  0  1.020862  0  0  0.115204  0.127015  0  1.023781  0
H  H3  1  0.18014354  0.58123331  0.23547674  1  0  0.117969  0  0.963775  0  0  0.129608  0  1.022134  0  0  0.132897  0  1.020684  0  0  0.115247  0.127209  0  1.023604  0
H  H4  1  0.28111556  0.47775172  0.08581098  1  0  0.130845  0  0.979923  0  0  0.137432  0  1.045123  0  0  0.142017  0  1.041724  0  0  0.112888  0.134192  0  1.047685  0
H  H5  1  0.71896442  0.52230708  0.91420375  1  0  0.130846  0  0.979671  0  0  0.137453  0  1.044861  0  0  0.142  0  1.041528  0  0  0.112845  0.134205  0  1.047423  0
H  H6  1  0.40778536  0.37124030  0.89242158  1  0  0.091661  0  0.955467  0  0  0.099752  0  1.018823  0  0  0.10237  0  1.016932  0  0  0.120859  0.097743  0  1.020416  0
H  H7  1  0.59231655  0.62879803  0.10761736  1  0  0.091641  0  0.955231  0  0  0.09966  0  1.018707  0  0  0.102252  0  1.01685  0  0  0.120897  0.097651  0  1.020297  0
H  H8  1  0.08122716  0.39474098  0.36334799  1  0  0.082077  0  0.940402  0  0  0.09136  0  1.004997  0  0  0.093848  0  1.002667  0  0  0.115558  0.089494  0  1.006821  0
H  H9  1  0.91870839  0.60528691  0.63665048  1  0  0.082225  0  0.940251  0  0  0.091506  0  1.004906  0  0  0.093932  0  1.002636  0  0  0.115591  0.08967  0  1.0067  0
H  H10  1  0.86408151  0.29060007  0.13032244  1  0  0.09901  0  0.974117  0  0  0.109834  0  1.033983  0  0  0.11193  0  1.035152  0  0  0.102873  0.108202  0  1.033705  0
H  H11  1  0.13589013  0.70942269  0.86966187  1  0  0.099029  0  0.974193  0  0  0.109865  0  1.034067  0  0  0.111958  0  1.03524  0  0  0.102924  0.108236  0  1.033787  0
H  H12  1  0.87813348  0.87511787  0.12339971  1  0  0.097146  0  0.97459  0  0  0.108172  0  1.035328  0  0  0.110341  0  1.03628  0  0  0.10266  0.106283  0  1.035617  0
H  H13  1  0.12179383  0.12490119  0.87663718  1  0  0.097183  0  0.974743  0  0  0.108214  0  1.035427  0  0  0.110403  0  1.036359  0  0  0.102648  0.106349  0  1.035674  0
H  H14  1  0.08919011  0.99763222  0.35932105  1  0  0.089695  0  0.923753  0  0  0.099937  0  0.982937  0  0  0.10254  0  0.980585  0  0  0.120694  0.09807  0  0.984699  0
H  H15  1  0.91088585  0.00239721  0.64061305  1  0  0.089759  0  0.924  0  0  0.100025  0  0.983103  0  0  0.102624  0  0.980758  0  0  0.120844  0.098158  0  0.984867  0
H  H16  1  0.70652833  0.20067425  0.93662054  1  0  0.09915  0  0.96677  0  0  0.107001  0  1.033411  0  0  0.110951  0  1.030142  0  0  0.10258  0.104293  0  1.035776  0
H  H17  1  0.29350483  0.79930300  0.06336967  1  0  0.099168  0  0.966796  0  0  0.106975  0  1.033473  0  0  0.110927  0  1.030186  0  0  0.102525  0.104267  0  1.035835  0
H  H18  1  0.34876373  0.82450713  0.60677255  1  0  0.105827  0  0.950657  0  0  0.111988  0  1.019436  0  0  0.116413  0  1.015325  0  0  0.107122  0.109022  0  1.022063  0
H  H19  1  0.65122924  0.17546251  0.39321935  1  0  0.105842  0  0.950579  0  0  0.111997  0  1.019342  0  0  0.116415  0  1.015236  0  0  0.107049  0.109031  0  1.021972  0
H  H20  1  0.69037747  0.78474414  0.94552849  1  0  0.096394  0  0.972501  0  0  0.103999  0  1.041528  0  0  0.107777  0  1.038189  0  0  0.102045  0.101484  0  1.043689  0
H  H21  1  0.30941096  0.21524807  0.05459069  1  0  0.09636  0  0.972564  0  0  0.103802  0  1.04175  0  0  0.107554  0  1.03849  0  0  0.102092  0.101286  0  1.043911  0
Pb  Pb22  1  0.39408566  0.31517918  0.56741270  1  0  1.168045  0  1.571028  0  0  0.969954  0  1.980542  0  0  1.028911  0  1.942063  0  0  0.596934  0.925696  0  2.009523  0
Pb  Pb23  1  0.60593145  0.68472086  0.43249879  1  0  1.167966  0  1.571143  0  0  0.969813  0  1.9807  0  0  1.028776  0  1.942194  0  0  0.596828  0.925569  0  2.009666  0
C  C24  1  0.03447624  0.35485754  0.69778917  1  0  0.130227  0  3.699282  0  0  0.100965  0  3.947696  0  0  0.108162  0  3.965536  0  0  0.056278  0.096205  0  3.936036  0
C  C25  1  0.96559309  0.64508914  0.30222580  1  0  0.129625  0  3.699905  0  0  0.100355  0  3.948356  0  0  0.107551  0  3.966197  0  0  0.055951  0.095592  0  3.936699  0
C  C26  1  0.95189989  0.41394904  0.79946283  1  0  -0.148169  0  3.681098  0  0  -0.166883  0  3.925636  0  0  -0.173582  0  3.94567  0  0  -0.074485  -0.163148  0  3.913209  0
C  C27  1  0.04821739  0.58610465  0.20054371  1  0  -0.147964  0  3.680857  0  0  -0.166774  0  3.92545  0  0  -0.173489  0  3.945489  0  0  -0.074369  -0.163035  0  3.91303  0
C  C28  1  0.03922598  0.46482937  0.94391470  1  0  0.090133  0  3.742815  0  0  0.102923  0  3.972109  0  0  0.106523  0  3.993695  0  0  0.013491  0.100819  0  3.957674  0
C  C29  1  0.96089913  0.53525938  0.05608997  1  0  0.089901  0  3.742503  0  0  0.102702  0  3.971827  0  0  0.106338  0  3.993357  0  0  0.013071  0.10058  0  3.95741  0
C  C30  1  0.20524229  0.44598212  0.97750661  1  0  -0.157593  0  3.677699  0  0  -0.177788  0  3.928857  0  0  -0.184447  0  3.946783  0  0  -0.079647  -0.173597  0  3.917365  0
C  C31  1  0.79486465  0.55408599  0.02250423  1  0  -0.156954  0  3.676993  0  0  -0.17704  0  3.927946  0  0  -0.183706  0  3.945924  0  0  -0.079123  -0.172829  0  3.916433  0
C  C32  1  0.27824492  0.38556580  0.86960421  1  0  0.125979  0  3.704969  0  0  0.094434  0  3.957357  0  0  0.101851  0  3.974709  0  0  0.048877  0.089433  0  3.945973  0
C  C33  1  0.72185204  0.61446085  0.13041382  1  0  0.125472  0  3.704784  0  0  0.093918  0  3.957361  0  0  0.101344  0  3.974701  0  0  0.048706  0.088922  0  3.945962  0
C  C34  1  0.03134667  0.27953084  0.30602290  1  0  0.126464  0  3.732252  0  0  0.09477  0  3.988971  0  0  0.102518  0  4.007006  0  0  0.046232  0.090074  0  3.976194  0
C  C35  1  0.96861909  0.72049700  0.69396422  1  0  0.126494  0  3.732104  0  0  0.094763  0  3.988856  0  0  0.102561  0  4.006898  0  0  0.046364  0.090044  0  3.976073  0
C  C36  1  0.91102078  0.21987877  0.17433498  1  0  -0.157719  0  3.701088  0  0  -0.175104  0  3.949249  0  0  -0.183465  0  3.971638  0  0  -0.085904  -0.169766  0  3.934204  0
C  C37  1  0.08893254  0.78013812  0.82565649  1  0  -0.157953  0  3.701193  0  0  -0.175428  0  3.949351  0  0  -0.183789  0  3.971738  0  0  -0.086088  -0.17009  0  3.934311  0
C  C38  1  0.84916576  0.07108393  0.10249292  1  0  0.105973  0  3.742459  0  0  0.117323  0  3.971173  0  0  0.122648  0  3.993708  0  0  0.014532  0.113736  0  3.956126  0
C  C39  1  0.15075608  0.92892556  0.89751789  1  0  0.106029  0  3.742112  0  0  0.117585  0  3.970513  0  0  0.122876  0  3.993053  0  0  0.014468  0.114008  0  3.955472  0
C  C40  1  0.91724911  0.99075401  0.17118327  1  0  -0.150216  0  3.690502  0  0  -0.169379  0  3.941236  0  0  -0.177409  0  3.962702  0  0  -0.082166  -0.164241  0  3.927659  0
C  C41  1  0.08269334  0.00926458  0.82882465  1  0  -0.150456  0  3.690218  0  0  -0.169668  0  3.940905  0  0  -0.177708  0  3.962348  0  0  -0.082211  -0.164538  0  3.927348  0
C  C42  1  0.03589627  0.05827069  0.30383197  1  0  0.140151  0  3.713368  0  0  0.108114  0  3.969792  0  0  0.116438  0  3.987093  0  0  0.053007  0.102783  0  3.957699  0
C  C43  1  0.96411511  0.94176182  0.69613972  1  0  0.140295  0  3.713253  0  0  0.108241  0  3.969705  0  0  0.11657  0  3.987002  0  0  0.052903  0.102904  0  3.957619  0
C  C44  1  0.71642631  0.00324159  0.96402363  1  0  0.031822  0  3.771227  0  0  0.049898  0  4.00744  0  0  0.046085  0  4.031046  0  0  -0.008271  0.052337  0  3.991265  0
C  C45  1  0.28347448  0.99673870  0.03600172  1  0  0.031878  0  3.77124  0  0  0.049972  0  4.00736  0  0  0.046253  0  4.030836  0  0  -0.008272  0.052371  0  3.991237  0
C  C46  1  0.65520139  0.08500776  0.89393585  1  0  -0.080211  0  3.660827  0  0  -0.115297  0  3.910327  0  0  -0.112757  0  3.927445  0  0  -0.072983  -0.11671  0  3.898547  0
C  C47  1  0.34474743  0.91497307  0.10607208  1  0  -0.080238  0  3.66061  0  0  -0.115336  0  3.9101  0  0  -0.112814  0  3.927203  0  0  -0.072889  -0.116739  0  3.898329  0
C  C48  1  0.52505301  0.02150557  0.76579023  1  0  -0.051674  0  3.751696  0  0  -0.02793  0  3.986015  0  0  -0.037121  0  4.009264  0  0  -0.015442  -0.021948  0  3.97119  0
C  C49  1  0.47487946  0.97848313  0.23423158  1  0  -0.051605  0  3.75119  0  0  -0.027785  0  3.98538  0  0  -0.03699  0  4.008655  0  0  -0.015424  -0.021801  0  3.970555  0
C  C50  1  0.45323690  0.87346181  0.70486517  1  0  -0.084934  0  3.735901  0  0  -0.117205  0  3.981841  0  0  -0.115237  0  4.002709  0  0  -0.072712  -0.117602  0  3.967773  0
C  C51  1  0.54670999  0.12652103  0.29515281  1  0  -0.085218  0  3.736103  0  0  -0.117433  0  3.981915  0  0  -0.115441  0  4.002753  0  0  -0.072772  -0.11782  0  3.967831  0
C  C52  1  0.51627589  0.78951584  0.77035825  1  0  -0.084392  0  3.797779  0  0  -0.056603  0  4.02951  0  0  -0.067373  0  4.055449  0  0  -0.022092  -0.049863  0  4.01194  0
C  C53  1  0.48363373  0.21045314  0.22966554  1  0  -0.084194  0  3.798605  0  0  -0.056389  0  4.030276  0  0  -0.067159  0  4.056207  0  0  -0.022021  -0.049644  0  4.012704  0
C  C54  1  0.64600944  0.85460152  0.89876244  1  0  -0.073643  0  3.663951  0  0  -0.109843  0  3.914263  0  0  -0.106987  0  3.93202  0  0  -0.072491  -0.110988  0  3.901528  0
C  C55  1  0.35384463  0.14537506  0.10129683  1  0  -0.07385  0  3.664762  0  0  -0.110035  0  3.915335  0  0  -0.107222  0  3.933065  0  0  -0.072628  -0.111174  0  3.902612  0
C  C56  1  0.46422599  0.11373017  0.69488624  1  0  0.628342  0  3.925979  0  0  0.582043  0  4.21097  0  0  0.616518  0  4.205698  0  0  0.200357  0.558299  0  4.214356  0
C  C57  1  0.53576058  0.88627397  0.30513063  1  0  0.628498  0  3.925719  0  0  0.582128  0  4.210758  0  0  0.616601  0  4.205493  0  0  0.200446  0.558387  0  4.214141  0
C  C58  1  0.45232512  0.62955920  0.70106426  1  0  0.603474  0  3.981298  0  0  0.559474  0  4.263046  0  0  0.592941  0  4.259966  0  0  0.194329  0.537108  0  4.263771  0
C  C59  1  0.54766344  0.37039989  0.29888691  1  0  0.603275  0  3.981911  0  0  0.559178  0  4.263768  0  0  0.592644  0  4.260689  0  0  0.194077  0.536812  0  4.264491  0
N  N60  1  0.09246739  0.20066306  0.37133093  1  0  -0.360504  0  3.226165  0  0  -0.2857  0  3.481416  0  0  -0.306475  0  3.503153  0  0  -0.30877  -0.271233  0  3.465784  0
N  N61  1  0.90753950  0.79936721  0.62863845  1  0  -0.360533  0  3.22583  0  0  -0.285757  0  3.481153  0  0  -0.306526  0  3.502858  0  0  -0.308762  -0.271294  0  3.465537  0
N  N62  1  0.19633450  0.34254846  0.73175097  1  0  -0.311859  0  3.221768  0  0  -0.231049  0  3.468312  0  0  -0.250641  0  3.489667  0  0  -0.293954  -0.217972  0  3.453982  0
N  N63  1  0.80373878  0.65740257  0.26826403  1  0  -0.311279  0  3.222193  0  0  -0.230399  0  3.468597  0  0  -0.249997  0  3.489971  0  0  -0.293662  -0.217321  0  3.454259  0
O  O64  1  0.33689635  0.05849325  0.58480104  1  0  -0.626205  0  1.898107  0  0  -0.572381  0  2.1187  0  0  -0.599467  0  2.112586  0  0  -0.315343  -0.552796  0  2.122448  0
O  O65  1  0.66309248  0.94152893  0.41520760  1  0  -0.626183  0  1.897846  0  0  -0.572367  0  2.118445  0  0  -0.599444  0  2.112327  0  0  -0.315392  -0.55279  0  2.122193  0
O  O66  1  0.54756042  0.24796635  0.75243457  1  0  -0.654814  0  1.980581  0  0  -0.587427  0  2.212634  0  0  -0.617044  0  2.206402  0  0  -0.314002  -0.565948  0  2.216758  0
O  O67  1  0.45246685  0.75202755  0.24756612  1  0  -0.654904  0  1.980762  0  0  -0.587507  0  2.212922  0  0  -0.617117  0  2.206664  0  0  -0.313991  -0.566027  0  2.217045  0
O  O68  1  0.33304507  0.57044393  0.58460956  1  0  -0.671627  0  1.929703  0  0  -0.611992  0  2.153776  0  0  -0.640812  0  2.149056  0  0  -0.322014  -0.591318  0  2.155098  0
O  O69  1  0.66699323  0.42953582  0.41531465  1  0  -0.671442  0  1.930002  0  0  -0.611777  0  2.154144  0  0  -0.640592  0  2.14941  0  0  -0.321805  -0.591115  0  2.155493  0
O  O70  1  0.52794927  0.56062545  0.76116829  1  0  -0.632358  0  1.982651  0  0  -0.568529  0  2.21421  0  0  -0.597794  0  2.209321  0  0  -0.308161  -0.54757  0  2.217188  0
O  O71  1  0.47206646  0.43931988  0.23874441  1  0  -0.632313  0  1.982819  0  0  -0.5683  0  2.214251  0  0  -0.597561  0  2.209354  0  0  -0.308009  -0.547349  0  2.217233  0
