# generated using pymatgen
data_ErH12C15(SO3)3
_symmetry_space_group_name_H-M   'P 1'
_cell_length_a   7.85359205
_cell_length_b   9.18317367
_cell_length_c   13.02895191
_cell_angle_alpha   84.73975412
_cell_angle_beta   75.11974570
_cell_angle_gamma   75.61243509
_symmetry_Int_Tables_number   1
_chemical_formula_structural   ErH12C15(SO3)3
_chemical_formula_sum   'Er2 H24 C30 S6 O18'
_cell_volume   879.27584826
_cell_formula_units_Z   2
loop_
 _symmetry_equiv_pos_site_id
 _symmetry_equiv_pos_as_xyz
  1  'x, y, z'
loop_
 _atom_site_type_symbol
 _atom_site_label
 _atom_site_symmetry_multiplicity
 _atom_site_fract_x
 _atom_site_fract_y
 _atom_site_fract_z
 _atom_site_occupancy
 _atom_site_hle17_bader_spin_density
 _atom_site_hle17_ddec_charge
 _atom_site_hle17_ddec_spin_density
 _atom_site_hle17_ddec_sum_bond_order
 _atom_site_hle17_magmom
 _atom_site_hse06_10hf_bader_spin_density
 _atom_site_hse06_10hf_ddec_charge
 _atom_site_hse06_10hf_ddec_spin_density
 _atom_site_hse06_10hf_ddec_sum_bond_order
 _atom_site_hse06_10hf_magmom
 _atom_site_hse06_bader_spin_density
 _atom_site_hse06_ddec_charge
 _atom_site_hse06_ddec_spin_density
 _atom_site_hse06_ddec_sum_bond_order
 _atom_site_hse06_magmom
 _atom_site_pbe_bader_spin_density
 _atom_site_pbe_cm5_charge
 _atom_site_pbe_ddec_charge
 _atom_site_pbe_ddec_spin_density
 _atom_site_pbe_ddec_sum_bond_order
 _atom_site_pbe_magmom
Er  Er0  1  0.73114636  0.69843786  0.49714042  1  0  2.288506  0  1.608009  0  0  2.155866  0  2.069012  0  0  2.279777  0  1.88356  0  0  1.508039  2.116028  0  2.109411  0
Er  Er1  1  0.26885600  0.30156367  0.50285726  1  0  2.288588  0  1.607883  0  0  2.155949  0  2.068819  0  0  2.279829  0  1.883411  0  0  1.508096  2.116118  0  2.109221  0
H  H2  1  0.80683189  0.37766305  0.57077621  1  0  0.4474  0  0.842838  0  0  0.420769  0  0.899337  0  0  0.430724  0  0.884868  0  0  0.30777  0.413742  0  0.909755  0
H  H3  1  0.19317118  0.62233608  0.42921773  1  0  0.447383  0  0.842864  0  0  0.420755  0  0.89936  0  0  0.43071  0  0.884887  0  0  0.307765  0.413724  0  0.909785  0
H  H4  1  0.59241404  0.41984764  0.59607089  1  0  0.462331  0  0.830571  0  0  0.432263  0  0.891228  0  0  0.444237  0  0.873846  0  0  0.303535  0.424032  0  0.903244  0
H  H5  1  0.40758668  0.58015046  0.40392580  1  0  0.462328  0  0.830571  0  0  0.432317  0  0.891146  0  0  0.444285  0  0.873771  0  0  0.303564  0.424082  0  0.903168  0
H  H6  1  0.05800304  0.83131787  0.49763801  1  0  0.43487  0  0.866006  0  0  0.402244  0  0.932206  0  0  0.413173  0  0.916332  0  0  0.300995  0.3947  0  0.943242  0
H  H7  1  0.94199827  0.16868270  0.50236375  1  0  0.434875  0  0.866002  0  0  0.402247  0  0.932206  0  0  0.413171  0  0.91634  0  0  0.300979  0.394701  0  0.943244  0
H  H8  1  0.97591397  0.89073684  0.39964961  1  0  0.439412  0  0.832232  0  0  0.411692  0  0.900976  0  0  0.421541  0  0.886632  0  0  0.312489  0.404641  0  0.911411  0
H  H9  1  0.02408668  0.10926144  0.60035168  1  0  0.439464  0  0.832158  0  0  0.411768  0  0.900882  0  0  0.421617  0  0.886536  0  0  0.312505  0.40472  0  0.911311  0
H  H10  1  0.73675536  0.91332907  0.63011672  1  0  0.430547  0  0.828937  0  0  0.410707  0  0.888675  0  0  0.419698  0  0.879217  0  0  0.317698  0.404359  0  0.896162  0
H  H11  1  0.26322922  0.08667937  0.36988773  1  0  0.430754  0  0.828724  0  0  0.410903  0  0.88849  0  0  0.419898  0  0.878972  0  0  0.317774  0.404556  0  0.895975  0
H  H12  1  0.72345724  0.01272880  0.52355945  1  0  0.43086  0  0.875786  0  0  0.396762  0  0.944215  0  0  0.40873  0  0.92713  0  0  0.297191  0.388283  0  0.9565  0
H  H13  1  0.27654049  0.98727051  0.47643990  1  0  0.430782  0  0.875912  0  0  0.396658  0  0.944371  0  0  0.408623  0  0.927291  0  0  0.29716  0.388197  0  0.956636  0
H  H14  1  0.34753054  0.69490800  0.22572704  1  0  0.123385  0  0.942937  0  0  0.131225  0  1.007271  0  0  0.134349  0  1.005086  0  0  0.110265  0.129098  0  1.008459  0
H  H15  1  0.65249031  0.30508885  0.77426283  1  0  0.123304  0  0.942908  0  0  0.131126  0  1.007276  0  0  0.134251  0  1.005093  0  0  0.110227  0.129001  0  1.00846  0
H  H16  1  0.29746362  0.82605755  0.04365357  1  0  0.106175  0  0.978199  0  0  0.111746  0  1.048371  0  0  0.114205  0  1.048617  0  0  0.096546  0.110022  0  1.048291  0
H  H17  1  0.70255562  0.17394495  0.95633684  1  0  0.106302  0  0.978261  0  0  0.111815  0  1.04844  0  0  0.114275  0  1.048687  0  0  0.096613  0.110092  0  1.048377  0
H  H18  1  0.65264198  0.71311284  0.84267640  1  0  0.10365  0  0.966704  0  0  0.107807  0  1.03927  0  0  0.11101  0  1.03685  0  0  0.100556  0.105399  0  1.041066  0
H  H19  1  0.34734052  0.28687516  0.15732545  1  0  0.103616  0  0.96665  0  0  0.107732  0  1.039269  0  0  0.11095  0  1.036836  0  0  0.100527  0.105329  0  1.041064  0
H  H20  1  0.60718038  0.59741371  0.03838463  1  0  0.106459  0  0.985373  0  0  0.117797  0  1.048143  0  0  0.1199  0  1.048649  0  0  0.094873  0.116196  0  1.048064  0
H  H21  1  0.39280143  0.40256285  0.96161367  1  0  0.106461  0  0.985287  0  0  0.117831  0  1.048053  0  0  0.119937  0  1.048555  0  0  0.094874  0.116235  0  1.047972  0
H  H22  1  0.05390034  0.04512237  0.22204812  1  0  0.108635  0  0.94309  0  0  0.121143  0  1.0023  0  0  0.12412  0  1.000081  0  0  0.105056  0.119185  0  1.003253  0
H  H23  1  0.94609405  0.95487934  0.77795537  1  0  0.108599  0  0.943156  0  0  0.12117  0  1.002305  0  0  0.124153  0  1.000076  0  0  0.10507  0.119196  0  1.003274  0
H  H24  1  0.10578160  0.15278021  0.02474170  1  0  0.094288  0  0.997137  0  0  0.100741  0  1.068795  0  0  0.103402  0  1.068494  0  0  0.088881  0.098665  0  1.069286  0
H  H25  1  0.89422066  0.84721239  0.97525827  1  0  0.094263  0  0.997205  0  0  0.100727  0  1.068852  0  0  0.103384  0  1.068553  0  0  0.088866  0.098655  0  1.069342  0
C  C26  1  0.60674568  0.78403880  0.31651782  1  0  0.65198  0  3.989437  0  0  0.601822  0  4.288847  0  0  0.636216  0  4.286214  0  0  0.184506  0.57756  0  4.295577  0
C  C27  1  0.39325341  0.21596498  0.68348018  1  0  0.651986  0  3.98943  0  0  0.601858  0  4.288792  0  0  0.636248  0  4.286158  0  0  0.18459  0.577601  0  4.295525  0
C  C28  1  0.93585511  0.55093160  0.68027943  1  0  0.741253  0  3.912673  0  0  0.692414  0  4.205352  0  0  0.729891  0  4.196756  0  0  0.223807  0.667441  0  4.212995  0
C  C29  1  0.06414556  0.44907121  0.31972225  1  0  0.741253  0  3.912609  0  0  0.692364  0  4.205362  0  0  0.729847  0  4.19676  0  0  0.223716  0.667375  0  4.21303  0
C  C30  1  0.72702723  0.19138039  0.37326402  1  0  0.745065  0  3.848612  0  0  0.690847  0  4.143272  0  0  0.728714  0  4.130505  0  0  0.234756  0.665471  0  4.151714  0
C  C31  1  0.27297150  0.80862005  0.62673508  1  0  0.745005  0  3.848131  0  0  0.69082  0  4.142763  0  0  0.728693  0  4.129989  0  0  0.234736  0.665413  0  4.151259  0
C  C32  1  0.53615245  0.83464922  0.22215149  1  0  -0.143889  0  3.727834  0  0  -0.127986  0  3.998598  0  0  -0.134169  0  4.015592  0  0  -0.024979  -0.123439  0  3.986102  0
C  C33  1  0.46384232  0.16536043  0.77785282  1  0  -0.14394  0  3.72769  0  0  -0.128035  0  3.998443  0  0  -0.134218  0  4.015441  0  0  -0.024949  -0.123498  0  3.985961  0
C  C34  1  0.49229039  0.95692214  0.04943874  1  0  -0.017649  0  3.791726  0  0  -0.004251  0  4.048799  0  0  -0.002943  0  4.071558  0  0  -0.015491  -0.004904  0  4.033171  0
C  C35  1  0.50771859  0.04309313  0.95056216  1  0  -0.017322  0  3.791493  0  0  -0.004147  0  4.048754  0  0  -0.002837  0  4.071509  0  0  -0.015425  -0.004792  0  4.033125  0
C  C36  1  0.87896095  0.52227041  0.79518947  1  0  -0.166076  0  3.704382  0  0  -0.147567  0  3.967643  0  0  -0.156306  0  3.986668  0  0  -0.027081  -0.141552  0  3.953644  0
C  C37  1  0.12104495  0.47772332  0.20480985  1  0  -0.166141  0  3.704427  0  0  -0.147607  0  3.967667  0  0  -0.156348  0  3.986696  0  0  -0.027014  -0.141594  0  3.953679  0
C  C38  1  0.41319446  0.78242032  0.18447328  1  0  -0.073931  0  3.745797  0  0  -0.104055  0  4.008152  0  0  -0.100639  0  4.023614  0  0  -0.094885  -0.105755  0  3.996685  0
C  C39  1  0.58681483  0.21758467  0.81552459  1  0  -0.073827  0  3.745606  0  0  -0.103932  0  4.00791  0  0  -0.100517  0  4.023371  0  0  -0.094902  -0.105623  0  3.996443  0
C  C40  1  0.80374393  0.21909365  0.25994849  1  0  -0.160652  0  3.71777  0  0  -0.149156  0  3.997291  0  0  -0.156176  0  4.01452  0  0  -0.026021  -0.144534  0  3.984963  0
C  C41  1  0.19626796  0.78089269  0.74006205  1  0  -0.160659  0  3.717651  0  0  -0.149168  0  3.997199  0  0  -0.156195  0  4.014432  0  0  -0.025979  -0.144536  0  3.984869  0
C  C42  1  0.38687282  0.85263937  0.08701182  1  0  -0.136143  0  3.753  0  0  -0.156038  0  4.010281  0  0  -0.15958  0  4.029527  0  0  -0.108547  -0.153735  0  3.997146  0
C  C43  1  0.61314273  0.14736675  0.91298500  1  0  -0.136294  0  3.753222  0  0  -0.1561  0  4.010583  0  0  -0.159643  0  4.029825  0  0  -0.108546  -0.153818  0  3.997462  0
C  C44  1  0.85153599  0.32047428  0.07398687  1  0  -0.030116  0  3.81759  0  0  -0.018741  0  4.08204  0  0  -0.017849  0  4.10508  0  0  -0.018881  -0.019272  0  4.066417  0
C  C45  1  0.14846063  0.67952419  0.92601963  1  0  -0.030236  0  3.817752  0  0  -0.018843  0  4.082184  0  0  -0.01795  0  4.105214  0  0  -0.018892  -0.019366  0  4.066565  0
C  C46  1  0.83718751  0.41185761  0.97911354  1  0  -0.018378  0  3.804219  0  0  -0.006993  0  4.067194  0  0  -0.004941  0  4.089404  0  0  -0.017313  -0.008104  0  4.052046  0
C  C47  1  0.16281812  0.58813709  0.02088191  1  0  -0.018255  0  3.804375  0  0  -0.006899  0  4.067376  0  0  -0.00485  0  4.089588  0  0  -0.017258  -0.008023  0  4.052237  0
C  C48  1  0.73546990  0.60863859  0.86681515  1  0  -0.059214  0  3.775263  0  0  -0.087227  0  4.035668  0  0  -0.083794  0  4.053359  0  0  -0.095351  -0.089348  0  4.023477  0
C  C49  1  0.26452341  0.39134843  0.13318820  1  0  -0.059136  0  3.775169  0  0  -0.087121  0  4.035561  0  0  -0.0837  0  4.053243  0  0  -0.095394  -0.089251  0  4.023388  0
C  C50  1  0.71104431  0.54626012  0.97059880  1  0  -0.137726  0  3.752957  0  0  -0.161184  0  4.011537  0  0  -0.165624  0  4.032292  0  0  -0.112718  -0.158629  0  3.997852  0
C  C51  1  0.28894739  0.45372793  0.02940240  1  0  -0.137726  0  3.752937  0  0  -0.161233  0  4.011541  0  0  -0.165677  0  4.032302  0  0  -0.112691  -0.15867  0  3.997855  0
C  C52  1  0.96211359  0.14059293  0.19415082  1  0  -0.058685  0  3.761597  0  0  -0.092852  0  4.031205  0  0  -0.089941  0  4.048333  0  0  -0.096617  -0.094085  0  4.01797  0
C  C53  1  0.03788896  0.85940323  0.80585342  1  0  -0.058688  0  3.761523  0  0  -0.092921  0  4.031139  0  0  -0.090025  0  4.04829  0  0  -0.096659  -0.094129  0  4.017899  0
C  C54  1  0.98880202  0.19688454  0.08861739  1  0  -0.135458  0  3.767793  0  0  -0.157039  0  4.028523  0  0  -0.161138  0  4.049509  0  0  -0.113545  -0.154126  0  4.014067  0
C  C55  1  0.01119394  0.80311161  0.91138786  1  0  -0.135336  0  3.767889  0  0  -0.156924  0  4.028625  0  0  -0.161016  0  4.049613  0  0  -0.113504  -0.154018  0  4.014166  0
S  S56  1  0.61675740  0.97246925  0.13860872  1  0  0.156595  0  2.600668  0  0  0.160303  0  2.924361  0  0  0.159146  0  2.932929  0  0  0.117858  0.161488  0  2.917357  0
S  S57  1  0.38323545  0.02755177  0.86139801  1  0  0.156577  0  2.600515  0  0  0.160332  0  2.924287  0  0  0.159169  0  2.932864  0  0  0.117842  0.161516  0  2.917283  0
S  S58  1  0.98416417  0.36315036  0.85687853  1  0  0.156495  0  2.583164  0  0  0.158317  0  2.905474  0  0  0.156676  0  2.915733  0  0  0.109643  0.160017  0  2.897112  0
S  S59  1  0.01584403  0.63685372  0.14312495  1  0  0.156459  0  2.582883  0  0  0.15829  0  2.905174  0  0  0.156646  0  2.915435  0  0  0.109627  0.160007  0  2.896805  0
S  S60  1  0.68770042  0.36245132  0.19146737  1  0  0.168572  0  2.603356  0  0  0.168824  0  2.935295  0  0  0.167602  0  2.944717  0  0  0.120532  0.168783  0  2.928829  0
S  S61  1  0.31230035  0.63755125  0.80852817  1  0  0.168636  0  2.603436  0  0  0.168865  0  2.93541  0  0  0.167648  0  2.944829  0  0  0.120509  0.168824  0  2.928953  0
O  O62  1  0.70791208  0.85494231  0.34398786  1  0  -0.6866  0  1.976709  0  0  -0.643551  0  2.226383  0  0  -0.676397  0  2.216492  0  0  -0.383494  -0.626021  0  2.232007  0
O  O63  1  0.29208789  0.14505831  0.65601564  1  0  -0.68661  0  1.976776  0  0  -0.643554  0  2.226405  0  0  -0.676397  0  2.216521  0  0  -0.383495  -0.626025  0  2.232033  0
O  O64  1  0.56952190  0.66645224  0.36990066  1  0  -0.71027  0  2.061363  0  0  -0.654204  0  2.300719  0  0  -0.688146  0  2.290371  0  0  -0.367197  -0.635761  0  2.307378  0
O  O65  1  0.43048316  0.33354918  0.63009355  1  0  -0.710327  0  2.061394  0  0  -0.654247  0  2.300743  0  0  -0.688189  0  2.290389  0  0  -0.367279  -0.635808  0  2.307401  0
O  O66  1  0.70207204  0.46221246  0.56910388  1  0  -0.942144  0  1.842172  0  0  -0.896037  0  2.0423  0  0  -0.925134  0  2.003067  0  0  -0.654243  -0.882237  0  2.065812  0
O  O67  1  0.29792972  0.53778664  0.43088949  1  0  -0.942179  0  1.842279  0  0  -0.896085  0  2.042272  0  0  -0.925192  0  2.003118  0  0  -0.654268  -0.88228  0  2.065793  0
O  O68  1  0.05925186  0.45264514  0.62408631  1  0  -0.762269  0  2.100854  0  0  -0.710909  0  2.371053  0  0  -0.748612  0  2.35545  0  0  -0.412885  -0.692492  0  2.379673  0
O  O69  1  0.94075289  0.54736655  0.37591093  1  0  -0.762307  0  2.100793  0  0  -0.710956  0  2.371069  0  0  -0.748675  0  2.355466  0  0  -0.412886  -0.692525  0  2.379688  0
O  O70  1  0.56280488  0.25513034  0.41248230  1  0  -0.729651  0  2.0357  0  0  -0.674463  0  2.298996  0  0  -0.712179  0  2.280771  0  0  -0.403117  -0.655711  0  2.307949  0
O  O71  1  0.43719706  0.74486339  0.58751763  1  0  -0.72964  0  2.035613  0  0  -0.674466  0  2.298924  0  0  -0.712188  0  2.280681  0  0  -0.403099  -0.655704  0  2.307908  0
O  O72  1  0.85202402  0.67290228  0.64198964  1  0  -0.763338  0  2.038551  0  0  -0.708424  0  2.294576  0  0  -0.745335  0  2.279643  0  0  -0.41323  -0.689704  0  2.302751  0
O  O73  1  0.14796677  0.32709823  0.35801298  1  0  -0.763299  0  2.038619  0  0  -0.708334  0  2.29459  0  0  -0.74523  0  2.279655  0  0  -0.413176  -0.689604  0  2.302773  0
O  O74  1  0.01295503  0.79803705  0.44067396  1  0  -0.903906  0  1.916587  0  0  -0.850676  0  2.110608  0  0  -0.878019  0  2.075373  0  0  -0.605106  -0.83645  0  2.132749  0
O  O75  1  0.98704395  0.20196242  0.55932902  1  0  -0.904005  0  1.916551  0  0  -0.850796  0  2.110474  0  0  -0.878149  0  2.075263  0  0  -0.605125  -0.836568  0  2.132612  0
O  O76  1  0.67099137  0.93617822  0.57430446  1  0  -0.887947  0  1.886597  0  0  -0.844331  0  2.086685  0  0  -0.873148  0  2.055754  0  0  -0.633243  -0.829986  0  2.105789  0
O  O77  1  0.32899518  0.06382791  0.42569834  1  0  -0.888108  0  1.886592  0  0  -0.844456  0  2.086698  0  0  -0.873289  0  2.055765  0  0  -0.633294  -0.830136  0  2.105766  0
O  O78  1  0.83197644  0.10400760  0.42599227  1  0  -0.672526  0  2.002046  0  0  -0.59766  0  2.213936  0  0  -0.623055  0  2.198859  0  0  -0.311131  -0.579329  0  2.223157  0
O  O79  1  0.16801833  0.89599745  0.57401013  1  0  -0.672511  0  2.002036  0  0  -0.597649  0  2.213925  0  0  -0.623037  0  2.198847  0  0  -0.311129  -0.57931  0  2.223153  0
