# generated using pymatgen
data_Zn2CoH14(C3O4)4
_symmetry_space_group_name_H-M   'P 1'
_cell_length_a   6.10028821
_cell_length_b   9.40211331
_cell_length_c   15.11178279
_cell_angle_alpha   89.99966679
_cell_angle_beta   89.99915499
_cell_angle_gamma   102.97761776
_symmetry_Int_Tables_number   1
_chemical_formula_structural   Zn2CoH14(C3O4)4
_chemical_formula_sum   'Zn4 Co2 H28 C24 O32'
_cell_volume   844.60685663
_cell_formula_units_Z   2
loop_
 _symmetry_equiv_pos_site_id
 _symmetry_equiv_pos_as_xyz
  1  'x, y, z'
loop_
 _atom_site_type_symbol
 _atom_site_label
 _atom_site_symmetry_multiplicity
 _atom_site_fract_x
 _atom_site_fract_y
 _atom_site_fract_z
 _atom_site_occupancy
 _atom_site_hle17_ddec_charge
 _atom_site_hle17_ddec_spin_density
 _atom_site_hle17_ddec_sum_bond_order
 _atom_site_hle17_magmom
 _atom_site_hse06_10hf_ddec_charge
 _atom_site_hse06_10hf_ddec_spin_density
 _atom_site_hse06_10hf_ddec_sum_bond_order
 _atom_site_hse06_10hf_magmom
 _atom_site_hse06_ddec_charge
 _atom_site_hse06_ddec_spin_density
 _atom_site_hse06_ddec_sum_bond_order
 _atom_site_hse06_magmom
 _atom_site_pbe_cm5_charge
 _atom_site_pbe_ddec_charge
 _atom_site_pbe_ddec_spin_density
 _atom_site_pbe_ddec_sum_bond_order
 _atom_site_pbe_magmom
Zn  Zn0  1  0.59429478  0.84889977  0.09167595  1  1.163001  -9.8e-05  1.626421  0.0  0.984644  -0.000269  2.079194  0.0  1.039379  -9.7e-05  2.014779  0.0  0.687357  0.94572  -0.0005  2.124069  0.0
Zn  Zn1  1  0.40570286  0.65109413  0.59168146  1  1.16298  9.8e-05  1.626483  0.0  0.984582  0.00027  2.079273  0.0  1.039313  9.7e-05  2.014856  0.0  0.687318  0.945651  0.0005  2.12415  0.0
Zn  Zn2  1  0.40570946  0.15110349  0.90832476  1  1.16295  -9.8e-05  1.626392  0.0  0.984599  -0.00027  2.079147  0.0  1.039335  -9.7e-05  2.014733  0.0  0.687346  0.945677  -0.0005  2.124021  0.0
Zn  Zn3  1  0.59430024  0.34890585  0.40832057  1  1.162983  9.9e-05  1.62645  0.0  0.984597  0.00027  2.07923  0.0  1.039323  9.8e-05  2.014815  0.0  0.687319  0.945665  0.0005  2.124103  0.0
Co  Co4  1  0.00000339  0.50000080  0.99999884  1  1.090721  -2.892524  1.884213  -2.605  1.064145  -2.873119  2.277451  -2.666  1.139304  -2.9113  2.204667  -2.735  0.651778  1.00396  -2.835202  2.332329  -2.598
Co  Co5  1  0.99999608  0.99999704  0.50000015  1  1.090802  2.892521  1.884136  2.605  1.064261  2.873116  2.277314  2.666  1.139369  2.911294  2.204571  2.735  0.651859  1.004066  2.835197  2.332189  2.598
H  H6  1  0.16607830  0.83208416  0.06758684  1  0.446261  6.7e-05  0.838843  0.0  0.414851  0.000128  0.905174  0.0  0.42469  0.000153  0.890911  0.0  0.307901  0.407818  9.4e-05  0.915435  0.0
H  H7  1  0.83392055  0.66791554  0.56758764  1  0.446103  -6.7e-05  0.83906  0.0  0.414706  -0.000128  0.905353  0.0  0.424546  -0.000153  0.891089  0.0  0.307838  0.407671  -9.4e-05  0.915615  0.0
H  H8  1  0.83392228  0.16791800  0.93241387  1  0.446217  6.7e-05  0.838884  0.0  0.4148  0.000128  0.905243  0.0  0.42464  0.000153  0.890978  0.0  0.307886  0.407766  9.4e-05  0.915504  0.0
H  H9  1  0.16608219  0.33208335  0.43241373  1  0.446094  -6.7e-05  0.839047  0.0  0.414697  -0.000128  0.905366  0.0  0.424537  -0.000153  0.891101  0.0  0.307837  0.407663  -9.4e-05  0.915627  0.0
H  H10  1  0.28566133  0.00106225  0.07795087  1  0.438623  4.8e-05  0.859098  0.0  0.40585  3.1e-05  0.925085  0.0  0.416424  2.1e-05  0.909927  0.0  0.30164  0.398138  2e-05  0.936178  0.0
H  H11  1  0.71434445  0.49893548  0.57795046  1  0.438743  -4.8e-05  0.858926  0.0  0.405941  -3.1e-05  0.924981  0.0  0.416514  -2e-05  0.909822  0.0  0.301668  0.398227  -2e-05  0.936073  0.0
H  H12  1  0.71434342  0.99893774  0.92204853  1  0.438611  4.8e-05  0.859108  0.0  0.405838  3.1e-05  0.925096  0.0  0.416411  2e-05  0.909942  0.0  0.301641  0.398126  2e-05  0.936189  0.0
H  H13  1  0.28565463  0.50106231  0.42205026  1  0.438743  -4.8e-05  0.858938  0.0  0.405943  -3.1e-05  0.924985  0.0  0.416517  -2e-05  0.909824  0.0  0.301674  0.398227  -2e-05  0.936078  0.0
H  H14  1  0.31564446  0.43905337  0.23912283  1  0.133891  8.7e-05  0.938823  0.0  0.144303  5.7e-05  1.003602  0.0  0.147527  3.8e-05  1.001928  0.0  0.107131  0.141755  9e-05  1.005066  0.0
H  H15  1  0.68432284  0.06094420  0.73912167  1  0.133924  -8.7e-05  0.938865  0.0  0.14433  -5.8e-05  1.003612  0.0  0.147555  -3.8e-05  1.001942  0.0  0.107156  0.141793  -9e-05  1.005079  0.0
H  H16  1  0.68435397  0.56095207  0.76087524  1  0.133897  8.7e-05  0.938765  0.0  0.144278  5.7e-05  1.003582  0.0  0.1475  3.8e-05  1.001913  0.0  0.107129  0.141736  9e-05  1.005046  0.0
H  H17  1  0.31567573  0.93905687  0.26087971  1  0.133951  -8.7e-05  0.93886  0.0  0.144355  -5.8e-05  1.003608  0.0  0.147576  -3.8e-05  1.00194  0.0  0.107171  0.141811  -9e-05  1.005071  0.0
H  H18  1  0.48049730  0.36790294  0.16342126  1  0.160247  0.00013  0.898766  0.0  0.172733  6.2e-05  0.953003  0.0  0.176462  6.3e-05  0.951162  0.0  0.120308  0.169858  4.9e-05  0.954706  0.0
H  H19  1  0.51949031  0.13209355  0.66341357  1  0.1603  -0.00013  0.898804  0.0  0.172781  -6.2e-05  0.953013  0.0  0.176514  -6.2e-05  0.951169  0.0  0.120304  0.16991  -4.9e-05  0.95472  0.0
H  H20  1  0.51950038  0.63210031  0.83657945  1  0.160246  0.00013  0.898735  0.0  0.172726  6.2e-05  0.952977  0.0  0.176457  6.3e-05  0.951134  0.0  0.120314  0.169854  4.9e-05  0.954678  0.0
H  H21  1  0.48050825  0.86790753  0.33658847  1  0.160246  -0.00013  0.898886  0.0  0.172716  -6.2e-05  0.953111  0.0  0.176447  -6.3e-05  0.951267  0.0  0.120279  0.169843  -4.9e-05  0.954813  0.0
H  H22  1  0.20719569  0.15398303  0.22138855  1  0.133807  -0.000216  0.927021  0.0  0.14689  -0.00021  0.98753  0.0  0.148887  -0.000152  0.987485  0.0  0.112719  0.145676  -0.000275  0.987487  0.0
H  H23  1  0.79279035  0.34601480  0.72138164  1  0.133755  0.000216  0.926916  0.0  0.146788  0.00021  0.98747  0.0  0.148738  0.000152  0.98741  0.0  0.112741  0.145585  0.000275  0.987408  0.0
H  H24  1  0.79280451  0.84601804  0.77861084  1  0.133813  -0.000216  0.927055  0.0  0.14689  -0.00021  0.987569  0.0  0.148874  -0.000152  0.987519  0.0  0.112709  0.145675  -0.000275  0.987527  0.0
H  H25  1  0.20721843  0.65398737  0.27861842  1  0.133774  0.000216  0.926968  0.0  0.146815  0.00021  0.987509  0.0  0.148764  0.000152  0.987452  0.0  0.11275  0.145611  0.000275  0.987447  0.0
H  H26  1  0.99698043  0.23676289  0.26250749  1  0.15047  -7.5e-05  0.910055  0.0  0.163336  -0.000114  0.967423  0.0  0.166498  -8.5e-05  0.966032  0.0  0.117528  0.161092  -0.000153  0.968646  0.0
H  H27  1  0.00299591  0.26322998  0.76250647  1  0.150428  7.4e-05  0.91012  0.0  0.163306  0.000114  0.967447  0.0  0.166418  8.5e-05  0.966059  0.0  0.11753  0.161061  0.000153  0.968672  0.0
H  H28  1  0.00302142  0.76323818  0.73749322  1  0.150483  -7.4e-05  0.910065  0.0  0.163361  -0.000115  0.967417  0.0  0.166513  -8.5e-05  0.966014  0.0  0.11753  0.161115  -0.000153  0.968642  0.0
H  H29  1  0.99700645  0.73676782  0.23749359  1  0.150406  7.5e-05  0.910067  0.0  0.163303  0.000114  0.967396  0.0  0.166414  8.5e-05  0.96601  0.0  0.117508  0.161058  0.000153  0.968621  0.0
H  H30  1  0.89865465  0.42773802  0.17906327  1  0.407472  -0.000225  0.889883  -0.001  0.38015  -0.000395  0.960888  -0.001  0.392407  -0.000257  0.943963  -0.001  0.301958  0.37133  -0.000534  0.969932  -0.002
H  H31  1  0.10133977  0.07225607  0.67906370  1  0.407397  0.000225  0.889903  0.001  0.380038  0.000396  0.96098  0.001  0.392294  0.000257  0.944116  0.001  0.301917  0.371218  0.000534  0.970022  0.002
H  H32  1  0.10134354  0.57226196  0.82093414  1  0.407414  -0.000225  0.889946  -0.001  0.380083  -0.000395  0.960966  -0.001  0.392341  -0.000257  0.944057  -0.001  0.301927  0.371265  -0.000534  0.97001  -0.002
H  H33  1  0.89865930  0.92774173  0.32093503  1  0.407462  0.000225  0.889883  0.001  0.380105  0.000396  0.960947  0.001  0.392363  0.000257  0.944031  0.001  0.301936  0.371286  0.000534  0.969989  0.002
C  C34  1  0.39842128  0.56535536  0.12163255  1  0.733944  0.002047  3.789215  0.003  0.686429  -0.000797  4.087871  -0.001  0.723823  -0.000777  4.079834  -0.001  0.216774  0.659364  -0.000541  4.093571  -0.001
C  C35  1  0.60157302  0.93464138  0.62163243  1  0.733935  -0.002048  3.789475  -0.003  0.68644  0.000795  4.08806  0.001  0.723833  0.000777  4.080019  0.001  0.216722  0.659381  0.00054  4.093768  0.001
C  C36  1  0.60158057  0.43464571  0.87836684  1  0.733884  0.002048  3.789252  0.003  0.686386  -0.000796  4.087891  -0.001  0.723778  -0.000777  4.079854  -0.001  0.21673  0.65932  -0.000541  4.0936  -0.001
C  C37  1  0.39842592  0.06536079  0.37837027  1  0.733985  -0.002048  3.789532  -0.003  0.686448  0.000795  4.08815  0.001  0.723836  0.000776  4.08011  0.001  0.216734  0.65938  0.00054  4.09386  0.001
C  C38  1  0.33628168  0.41975136  0.16825558  1  -0.367404  -0.00069  3.616044  -0.002  -0.406789  -0.000295  3.853275  -0.001  -0.415368  4e-06  3.859272  0.0  -0.163747  -0.400372  -0.000717  3.849534  -0.002
C  C39  1  0.66370007  0.08024288  0.66825249  1  -0.367669  0.000691  3.616221  0.002  -0.406935  0.000296  3.853247  0.001  -0.415531  -1e-06  3.859271  0.0  -0.163788  -0.400549  0.000717  3.849559  0.002
C  C40  1  0.66371815  0.58024862  0.83174381  1  -0.367383  -0.000691  3.615965  -0.002  -0.406745  -0.000295  3.853184  -0.001  -0.415327  3e-06  3.85919  0.0  -0.163745  -0.400322  -0.000717  3.849447  -0.002
C  C41  1  0.33629484  0.91975710  0.33174889  1  -0.367625  0.00069  3.616203  0.002  -0.406887  0.000296  3.853245  0.001  -0.415469  -1e-06  3.859249  0.0  -0.163745  -0.400468  0.000717  3.849524  0.002
C  C42  1  0.12240529  0.31418461  0.13362321  1  0.263639  0.000525  3.582342  0.001  0.260503  -0.000123  3.82908  0.0  0.264898  0.00015  3.841568  0.001  0.072059  0.257256  -0.000466  3.820121  0.0
C  C43  1  0.87758238  0.18580903  0.63362037  1  0.263805  -0.000525  3.582004  -0.001  0.260592  0.000123  3.828746  0.0  0.264929  -0.000151  3.841227  -0.001  0.072034  0.25735  0.000466  3.819797  0.0
C  C44  1  0.87759365  0.68581755  0.86637618  1  0.263587  0.000525  3.582362  0.001  0.260438  -0.000123  3.829105  0.0  0.264817  0.00015  3.841594  0.001  0.072076  0.257192  -0.000466  3.820145  0.0
C  C45  1  0.12241506  0.81418876  0.36637903  1  0.263916  -0.000525  3.582023  -0.001  0.260704  0.000123  3.828782  0.0  0.265045  -0.00015  3.841257  -0.001  0.072055  0.257454  0.000466  3.819834  0.0
C  C46  1  0.17165740  0.25564914  0.04242745  1  0.63333  0.001219  3.787196  0.003  0.577103  -0.001473  4.089101  -0.001  0.611945  -0.001121  4.081726  -0.001  0.224382  0.55215  -0.001678  4.094554  -0.001
C  C47  1  0.82834713  0.24435565  0.54242534  1  0.633383  -0.001219  3.786969  -0.003  0.577211  0.001472  4.088872  0.001  0.612034  0.00112  4.081495  0.001  0.224418  0.552251  0.001678  4.094332  0.001
C  C48  1  0.82834192  0.74435411  0.95757327  1  0.633292  0.001218  3.787347  0.003  0.577091  -0.001473  4.089218  -0.001  0.611927  -0.00112  4.081845  -0.001  0.224352  0.552135  -0.001678  4.09467  -0.001
C  C49  1  0.17163944  0.75564869  0.45757736  1  0.633234  -0.001218  3.787073  -0.003  0.577011  0.001473  4.089053  0.001  0.611828  0.001121  4.081698  0.001  0.224347  0.552056  0.001679  4.094515  0.001
C  C50  1  0.05574710  0.19158328  0.20210532  1  -0.349936  -0.000786  3.615499  -0.001  -0.39062  -0.000659  3.853907  -0.001  -0.397835  -0.000461  3.860267  0.0  -0.159605  -0.385751  -0.00087  3.849624  -0.001
C  C51  1  0.94423961  0.30840501  0.70210092  1  -0.349755  0.000785  3.615309  0.001  -0.390379  0.000659  3.853833  0.001  -0.397361  0.000465  3.859907  0.0  -0.159599  -0.385502  0.00087  3.849541  0.001
C  C52  1  0.94425348  0.80841889  0.79789407  1  -0.349915  -0.000786  3.615564  -0.001  -0.390606  -0.000659  3.853912  -0.001  -0.397755  -0.000461  3.860193  0.0  -0.159576  -0.385736  -0.00087  3.849628  -0.001
C  C53  1  0.05576640  0.69159388  0.29789913  1  -0.349733  0.000785  3.615233  0.001  -0.390458  0.000659  3.853757  0.001  -0.39744  0.000465  3.85983  0.0  -0.159606  -0.385593  0.00087  3.84948  0.001
C  C54  1  0.87887942  0.05936113  0.17507643  1  0.726916  3.5e-05  3.817038  0.0  0.673001  4.1e-05  4.119211  0.0  0.707817  3.6e-05  4.111348  0.0  0.214032  0.649293  5.8e-05  4.123889  0.0
C  C55  1  0.12112097  0.44063083  0.67507663  1  0.726694  -3.4e-05  3.817273  0.0  0.672626  -4e-05  4.119626  0.0  0.707381  -3.8e-05  4.111764  0.0  0.213859  0.648915  -5.8e-05  4.124309  0.0
C  C56  1  0.12112153  0.94064212  0.82492296  1  0.726785  3.5e-05  3.817145  0.0  0.672926  4.1e-05  4.119246  0.0  0.707721  3.6e-05  4.111388  0.0  0.214068  0.649217  5.8e-05  4.12392  0.0
C  C57  1  0.87888808  0.55936261  0.32492012  1  0.726633  -3.4e-05  3.817519  0.0  0.672777  -4e-05  4.119559  0.0  0.707532  -3.7e-05  4.111696  0.0  0.213967  0.649064  -5.8e-05  4.124236  0.0
O  O58  1  0.53806613  0.66698373  0.16208512  1  -0.628966  -0.004116  1.999271  -0.007  -0.560435  -0.003281  2.264425  -0.006  -0.591173  -0.002367  2.249998  -0.004  -0.316448  -0.53887  -0.004211  2.274236  -0.007
O  O59  1  0.46191999  0.83301242  0.66208626  1  -0.628942  0.004115  1.999407  0.007  -0.560452  0.003281  2.264576  0.006  -0.591193  0.002367  2.250155  0.004  -0.31635  -0.538888  0.00421  2.274391  0.007
O  O60  1  0.46193117  0.33301844  0.83791427  1  -0.628944  -0.004116  1.999153  -0.007  -0.560424  -0.003281  2.264294  -0.006  -0.591165  -0.002367  2.249872  -0.004  -0.316403  -0.538864  -0.004211  2.274123  -0.007
O  O61  1  0.53807618  0.16698646  0.33791776  1  -0.628959  0.004115  1.99959  0.007  -0.560413  0.003281  2.264716  0.006  -0.591155  0.002367  2.250301  0.004  -0.316394  -0.538844  0.00421  2.274523  0.007
O  O62  1  0.31734341  0.58649235  0.04669918  1  -0.640142  -0.034206  2.080884  -0.056  -0.603035  -0.026244  2.353346  -0.04  -0.638252  -0.020829  2.341318  -0.031  -0.313435  -0.576086  -0.031564  2.360995  -0.048
O  O63  1  0.68264708  0.91350001  0.54670393  1  -0.640058  0.034197  2.081043  0.056  -0.602974  0.02624  2.35348  0.04  -0.638175  0.020823  2.341452  0.031  -0.313451  -0.576025  0.031559  2.36112  0.048
O  O64  1  0.68266096  0.41350654  0.95329558  1  -0.640113  -0.034202  2.081029  -0.056  -0.602996  -0.026242  2.353462  -0.04  -0.638211  -0.020827  2.341434  -0.031  -0.313441  -0.576042  -0.03156  2.36111  -0.048
O  O65  1  0.31734380  0.08649778  0.45329943  1  -0.640169  0.034203  2.081039  0.056  -0.603051  0.026243  2.353478  0.04  -0.638253  0.020827  2.34145  0.031  -0.313438  -0.576105  0.031563  2.361127  0.048
O  O66  1  0.08614104  0.29919139  0.97367977  1  -0.622103  -0.028361  2.112794  -0.048  -0.58066  -0.022793  2.376007  -0.035  -0.611151  -0.018959  2.359509  -0.028  -0.296911  -0.559029  -0.026068  2.388551  -0.041
O  O67  1  0.91387767  0.20081265  0.47367682  1  -0.622233  0.028367  2.112646  0.048  -0.580796  0.022796  2.375813  0.035  -0.611308  0.01896  2.359368  0.028  -0.296994  -0.559152  0.026072  2.388335  0.041
O  O68  1  0.91386156  0.70081187  0.02631963  1  -0.622119  -0.028361  2.112819  -0.048  -0.580673  -0.022793  2.375999  -0.035  -0.611174  -0.01896  2.35952  -0.028  -0.296911  -0.559042  -0.026068  2.388544  -0.041
O  O69  1  0.08611448  0.79918405  0.52632059  1  -0.622116  0.028358  2.113112  0.048  -0.580663  0.022791  2.3763  0.035  -0.611167  0.018956  2.359859  0.028  -0.296925  -0.559014  0.026065  2.388808  0.041
O  O70  1  0.30959100  0.17167623  0.03861493  1  -0.627729  -0.003908  2.095074  -0.007  -0.550364  -0.003697  2.34751  -0.006  -0.580222  -0.002706  2.334102  -0.005  -0.297715  -0.529612  -0.004455  2.356783  -0.007
O  O71  1  0.69042076  0.32832535  0.53860872  1  -0.627731  0.003908  2.095153  0.007  -0.5505  0.003697  2.34776  0.006  -0.58031  0.002709  2.334312  0.005  -0.297711  -0.529747  0.004455  2.357039  0.007
O  O72  1  0.69041211  0.82832375  0.96138645  1  -0.627688  -0.003908  2.095178  -0.007  -0.550352  -0.003696  2.347636  -0.006  -0.580194  -0.002706  2.334216  -0.005  -0.297702  -0.529601  -0.004455  2.356909  -0.007
O  O73  1  0.30958324  0.67167246  0.46139200  1  -0.627745  0.003909  2.094761  0.007  -0.550449  0.003697  2.347316  0.006  -0.580273  0.00271  2.333889  0.005  -0.297722  -0.52969  0.004456  2.356589  0.007
O  O74  1  0.79824326  0.05130551  0.09648372  1  -0.641249  0.000116  2.005632  0.0  -0.564291  4.5e-05  2.257536  0.0  -0.594309  5.5e-05  2.244243  0.0  -0.31481  -0.543256  3.1e-05  2.26612  0.0
O  O75  1  0.20175839  0.44868213  0.59647677  1  -0.641319  -0.000116  2.005563  0.0  -0.564242  -4.5e-05  2.257448  0.0  -0.594257  -5.5e-05  2.244181  0.0  -0.314768  -0.543198  -3.1e-05  2.266021  0.0
O  O76  1  0.20175101  0.94870210  0.90351633  1  -0.641182  0.000116  2.005567  0.0  -0.564265  4.5e-05  2.257467  0.0  -0.594275  5.5e-05  2.244178  0.0  -0.314861  -0.54323  3.1e-05  2.266049  0.0
O  O77  1  0.79825797  0.55131350  0.40352594  1  -0.641283  -0.000116  2.005466  0.0  -0.564268  -4.5e-05  2.257228  0.0  -0.594287  -5.5e-05  2.243963  0.0  -0.314759  -0.543232  -3.1e-05  2.265812  0.0
O  O78  1  0.81552828  0.95547524  0.22937489  1  -0.6354  0.000405  2.011971  0.001  -0.574159  0.00032  2.246221  0.001  -0.601196  0.000161  2.234624  0.0  -0.306408  -0.555149  0.000552  2.253242  0.001
O  O79  1  0.18446854  0.54451122  0.72936896  1  -0.63528  -0.000405  2.012347  -0.001  -0.573939  -0.000321  2.246565  -0.001  -0.600985  -0.000161  2.235002  0.0  -0.306297  -0.554931  -0.000551  2.253591  -0.001
O  O80  1  0.18447572  0.04452256  0.77062317  1  -0.635318  0.000405  2.012075  0.001  -0.574101  0.00032  2.246299  0.001  -0.601142  0.000162  2.234728  0.0  -0.306415  -0.555092  0.000551  2.253319  0.001
O  O81  1  0.81553569  0.45549204  0.27063374  1  -0.635253  -0.000405  2.012677  -0.001  -0.574013  -0.00032  2.246844  -0.001  -0.601053  -0.000162  2.235277  0.0  -0.306401  -0.555009  -0.000551  2.253865  -0.001
O  O82  1  0.94504314  0.38966464  0.11971878  1  -0.59809  -0.032865  2.152456  -0.055  -0.556794  -0.027759  2.401667  -0.043  -0.58305  -0.022032  2.383953  -0.034  -0.379617  -0.534882  -0.034017  2.410014  -0.053
O  O83  1  0.05494560  0.11032593  0.61971802  1  -0.598108  0.032872  2.152225  0.055  -0.556776  0.027761  2.401488  0.043  -0.583024  0.022032  2.383831  0.034  -0.379669  -0.534866  0.03402  2.409838  0.053
O  O84  1  0.05495505  0.61033534  0.88027863  1  -0.598004  -0.032868  2.152414  -0.055  -0.556701  -0.027759  2.401632  -0.043  -0.582964  -0.022032  2.383937  -0.034  -0.379608  -0.53479  -0.034017  2.409989  -0.053
O  O85  1  0.94505147  0.88967077  0.38028137  1  -0.598191  0.032872  2.152284  0.055  -0.556854  0.027761  2.401536  0.043  -0.583108  0.022032  2.383839  0.034  -0.379687  -0.534947  0.034021  2.409901  0.053
O  O86  1  0.28671595  0.90098024  0.09942705  1  -0.825882  -1e-06  1.899498  0.0  -0.754674  1e-06  2.113226  0.0  -0.777799  2.9e-05  2.077218  0.0  -0.560908  -0.738383  -2.4e-05  2.138827  0.0
O  O87  1  0.71328139  0.59901355  0.59943019  1  -0.825813  1e-06  1.899544  0.0  -0.754533  -2e-06  2.113197  0.0  -0.777665  -2.9e-05  2.077203  0.0  -0.560867  -0.738237  2.4e-05  2.138806  0.0
O  O88  1  0.71328552  0.09901974  0.90057234  1  -0.825825  -1e-06  1.89953  0.0  -0.754605  1e-06  2.113254  0.0  -0.777731  2.9e-05  2.077249  0.0  -0.56089  -0.738313  -2.4e-05  2.138855  0.0
O  O89  1  0.28671882  0.40098752  0.40056986  1  -0.825802  1e-06  1.899514  0.0  -0.754558  -2e-06  2.113229  0.0  -0.777689  -2.9e-05  2.077231  0.0  -0.56089  -0.738261  2.4e-05  2.13884  0.0
