# generated using pymatgen
data_CdH10C18S(NO2)2
_symmetry_space_group_name_H-M   'P 1'
_cell_length_a   7.38297410
_cell_length_b   10.20302476
_cell_length_c   10.85006000
_cell_angle_alpha   80.61909677
_cell_angle_beta   72.72693474
_cell_angle_gamma   79.17247292
_symmetry_Int_Tables_number   1
_chemical_formula_structural   CdH10C18S(NO2)2
_chemical_formula_sum   'Cd2 H20 C36 S2 N4 O8'
_cell_volume   761.53995139
_cell_formula_units_Z   2
loop_
 _symmetry_equiv_pos_site_id
 _symmetry_equiv_pos_as_xyz
  1  'x, y, z'
loop_
 _atom_site_type_symbol
 _atom_site_label
 _atom_site_symmetry_multiplicity
 _atom_site_fract_x
 _atom_site_fract_y
 _atom_site_fract_z
 _atom_site_occupancy
 _atom_site_hle17_bader_spin_density
 _atom_site_hle17_ddec_charge
 _atom_site_hle17_ddec_spin_density
 _atom_site_hle17_ddec_sum_bond_order
 _atom_site_hle17_magmom
 _atom_site_hse06_10hf_bader_spin_density
 _atom_site_hse06_10hf_ddec_charge
 _atom_site_hse06_10hf_ddec_spin_density
 _atom_site_hse06_10hf_ddec_sum_bond_order
 _atom_site_hse06_10hf_magmom
 _atom_site_hse06_bader_spin_density
 _atom_site_hse06_ddec_charge
 _atom_site_hse06_ddec_spin_density
 _atom_site_hse06_ddec_sum_bond_order
 _atom_site_hse06_magmom
 _atom_site_pbe_bader_spin_density
 _atom_site_pbe_cm5_charge
 _atom_site_pbe_ddec_charge
 _atom_site_pbe_ddec_spin_density
 _atom_site_pbe_ddec_sum_bond_order
 _atom_site_pbe_magmom
Cd  Cd0  1  0.20911444  0.39990077  0.88152211  1  0  1.124898  0  1.63747  0  0  0.924231  0  2.080719  0  0  0.987696  0  2.026629  0  0  0.769041  0.880535  0  2.116265  0
Cd  Cd1  1  0.79088673  0.60009906  0.11847967  1  0  1.124906  0  1.637451  0  0  0.924242  0  2.080702  0  0  0.987704  0  2.026611  0  0  0.769056  0.88055  0  2.116251  0
H  H2  1  0.36873358  0.39703472  0.53577996  1  0  0.147773  0  0.965212  0  0  0.15213  0  1.032468  0  0  0.155904  0  1.029737  0  0  0.110064  0.149619  0  1.034061  0
H  H3  1  0.63126209  0.60297114  0.46422206  1  0  0.147792  0  0.9652  0  0  0.152141  0  1.032445  0  0  0.155915  0  1.029715  0  0  0.110074  0.149631  0  1.034039  0
H  H4  1  0.88980255  0.31381469  0.38724445  1  0  0.147415  0  0.966873  0  0  0.155803  0  1.027542  0  0  0.159891  0  1.024703  0  0  0.109462  0.152948  0  1.029462  0
H  H5  1  0.11019722  0.68618523  0.61275114  1  0  0.147358  0  0.966938  0  0  0.155772  0  1.027571  0  0  0.159864  0  1.024733  0  0  0.109464  0.152918  0  1.029494  0
H  H6  1  0.75982723  0.34681230  0.98673028  1  0  0.097863  0  0.93809  0  0  0.103075  0  1.004898  0  0  0.105869  0  1.001959  0  0  0.120665  0.101075  0  1.006871  0
H  H7  1  0.24017293  0.65318552  0.01327198  1  0  0.09785  0  0.938075  0  0  0.10305  0  1.004903  0  0  0.105861  0  1.001943  0  0  0.120651  0.101055  0  1.00687  0
H  H8  1  0.56754826  0.16570994  0.01200697  1  0  0.130174  0  0.981605  0  0  0.138364  0  1.041589  0  0  0.142304  0  1.039588  0  0  0.109518  0.135355  0  1.043434  0
H  H9  1  0.43245353  0.83428690  0.98799326  1  0  0.130167  0  0.981613  0  0  0.138347  0  1.041604  0  0  0.142288  0  1.039605  0  0  0.109522  0.135343  0  1.043443  0
H  H10  1  0.72855269  0.95054510  0.90898733  1  0  0.114731  0  0.948361  0  0  0.126012  0  1.007103  0  0  0.129065  0  1.005074  0  0  0.109839  0.123966  0  1.008414  0
H  H11  1  0.27145052  0.04945171  0.09101446  1  0  0.11474  0  0.948349  0  0  0.126031  0  1.007072  0  0  0.129085  0  1.005041  0  0  0.109854  0.123988  0  1.008383  0
H  H12  1  0.02203012  0.82288801  0.78020188  1  0  0.102659  0  0.969794  0  0  0.114548  0  1.029848  0  0  0.116332  0  1.030255  0  0  0.10459  0.113125  0  1.029653  0
H  H13  1  0.97797289  0.17710983  0.21979797  1  0  0.102631  0  0.969834  0  0  0.114538  0  1.029874  0  0  0.116302  0  1.030306  0  0  0.104583  0.11312  0  1.029669  0
H  H14  1  0.36744916  0.80475910  0.66114701  1  0  0.103712  0  0.974656  0  0  0.111325  0  1.040753  0  0  0.113512  0  1.041266  0  0  0.102136  0.109864  0  1.040326  0
H  H15  1  0.63255221  0.19524684  0.33884742  1  0  0.103721  0  0.974596  0  0  0.111363  0  1.04067  0  0  0.113551  0  1.041183  0  0  0.10214  0.109905  0  1.040239  0
H  H16  1  0.65390109  0.29918580  0.69232615  1  0  0.07758  0  0.947196  0  0  0.084308  0  1.01491  0  0  0.086187  0  1.01365  0  0  0.113617  0.082577  0  1.016453  0
H  H17  1  0.34609824  0.70081604  0.30767572  1  0  0.077593  0  0.947204  0  0  0.084334  0  1.014894  0  0  0.086211  0  1.013635  0  0  0.113649  0.082606  0  1.016437  0
H  H18  1  0.83805338  0.10262463  0.57416035  1  0  0.098486  0  0.958018  0  0  0.108818  0  1.018177  0  0  0.111835  0  1.017844  0  0  0.102316  0.106428  0  1.01905  0
H  H19  1  0.16194859  0.89737820  0.42584084  1  0  0.098458  0  0.95807  0  0  0.108815  0  1.018214  0  0  0.111832  0  1.017882  0  0  0.10233  0.106426  0  1.01908  0
H  H20  1  0.67041698  0.90667835  0.58457718  1  0  0.097645  0  0.958278  0  0  0.105397  0  1.025224  0  0  0.107356  0  1.025088  0  0  0.104012  0.103802  0  1.025671  0
H  H21  1  0.32958337  0.09332555  0.41542050  1  0  0.09765  0  0.958284  0  0  0.105374  0  1.025261  0  0  0.107332  0  1.025127  0  0  0.104001  0.103778  0  1.025706  0
C  C22  1  0.50579127  0.45169409  0.26000818  1  0  0.620542  0  3.963777  0  0  0.574893  0  4.250526  0  0  0.609085  0  4.245525  0  0  0.184712  0.551593  0  4.253188  0
C  C23  1  0.49420828  0.54830678  0.73999101  1  0  0.620631  0  3.963907  0  0  0.575017  0  4.250621  0  0  0.609209  0  4.245618  0  0  0.184757  0.551702  0  4.253301  0
C  C24  1  0.19477194  0.36157183  0.15411971  1  0  0.69114  0  3.882414  0  0  0.634946  0  4.181499  0  0  0.67115  0  4.171141  0  0  0.211606  0.61055  0  4.187575  0
C  C25  1  0.80523210  0.63842098  0.84588156  1  0  0.691316  0  3.882334  0  0  0.63516  0  4.181335  0  0  0.671344  0  4.171016  0  0  0.211699  0.61076  0  4.187422  0
C  C26  1  0.18134758  0.36647705  0.29402789  1  0  -0.063383  0  3.763962  0  0  -0.052321  0  4.009291  0  0  -0.055871  0  4.028002  0  0  -0.027254  -0.05016  0  3.996836  0
C  C27  1  0.81865706  0.63351978  0.70597177  1  0  -0.063541  0  3.764096  0  0  -0.052454  0  4.009388  0  0  -0.056005  0  4.028116  0  0  -0.027247  -0.050284  0  3.996921  0
C  C28  1  0.33202107  0.39331402  0.34103520  1  0  -0.089894  0  3.788329  0  0  -0.078919  0  4.032907  0  0  -0.086005  0  4.053363  0  0  -0.03439  -0.074435  0  4.019978  0
C  C29  1  0.66797848  0.60668684  0.65896491  1  0  -0.089851  0  3.7883  0  0  -0.07893  0  4.032919  0  0  -0.086014  0  4.053372  0  0  -0.034401  -0.074443  0  4.019994  0
C  C30  1  0.28696629  0.37523730  0.47520148  1  0  -0.185018  0  3.666852  0  0  -0.212667  0  3.951892  0  0  -0.209201  0  3.965762  0  0  -0.099291  -0.214818  0  3.942585  0
C  C31  1  0.71303101  0.62476758  0.52479852  1  0  -0.185035  0  3.66676  0  0  -0.212662  0  3.951858  0  0  -0.209204  0  3.965749  0  0  -0.099302  -0.214797  0  3.942512  0
C  C32  1  0.02687819  0.33171222  0.39397805  1  0  -0.225433  0  3.695821  0  0  -0.248451  0  3.972779  0  0  -0.248734  0  3.988502  0  0  -0.110085  -0.248002  0  3.961714  0
C  C33  1  0.97312116  0.66828967  0.60602011  1  0  -0.225336  0  3.695881  0  0  -0.248389  0  3.972826  0  0  -0.248676  0  3.98856  0  0  -0.110106  -0.247943  0  3.961764  0
C  C34  1  0.82752398  0.25244068  0.94707929  1  0  0.172096  0  3.646034  0  0  0.138279  0  3.904853  0  0  0.148372  0  3.92017  0  0  0.063546  0.13156  0  3.894985  0
C  C35  1  0.17247597  0.74755813  0.05292380  1  0  0.172108  0  3.646044  0  0  0.138287  0  3.90489  0  0  0.148369  0  3.920199  0  0  0.06357  0.131567  0  3.895022  0
C  C36  1  0.71868929  0.14942716  0.95910754  1  0  -0.116114  0  3.699511  0  0  -0.13146  0  3.955389  0  0  -0.138773  0  3.975337  0  0  -0.083868  -0.127144  0  3.942952  0
C  C37  1  0.28131008  0.85056766  0.04089530  1  0  -0.116146  0  3.699615  0  0  -0.131473  0  3.95549  0  0  -0.13879  0  3.975446  0  0  -0.083888  -0.127163  0  3.943059  0
C  C38  1  0.80660134  0.03327984  0.90318713  1  0  -0.04833  0  3.673609  0  0  -0.072227  0  3.922902  0  0  -0.069691  0  3.940635  0  0  -0.065133  -0.073523  0  3.910556  0
C  C39  1  0.19339883  0.96671797  0.09681605  1  0  -0.04832  0  3.673616  0  0  -0.072201  0  3.922902  0  0  -0.069663  0  3.940633  0  0  -0.06511  -0.073492  0  3.910557  0
C  C40  1  0.10364269  0.12792058  0.83043166  1  0  0.11477  0  3.795574  0  0  0.107629  0  4.035841  0  0  0.111902  0  4.059135  0  0  0.109534  0.104756  0  4.020659  0
C  C41  1  0.89635727  0.87207826  0.16956957  1  0  0.114743  0  3.795556  0  0  0.10759  0  4.035851  0  0  0.111862  0  4.059146  0  0  0.109534  0.104712  0  4.02068  0
C  C42  1  0.00350026  0.02044099  0.83516888  1  0  0.020844  0  3.805041  0  0  0.035685  0  4.038746  0  0  0.032754  0  4.063548  0  0  -0.005699  0.037441  0  4.021792  0
C  C43  1  0.99650091  0.97955884  0.16483290  1  0  0.020906  0  3.805195  0  0  0.035693  0  4.038984  0  0  0.032764  0  4.063782  0  0  -0.005689  0.037448  0  4.02204  0
C  C44  1  0.10271603  0.90400578  0.77311076  1  0  -0.094555  0  3.735831  0  0  -0.116037  0  3.985614  0  0  -0.11886  0  4.009493  0  0  -0.08386  -0.113601  0  3.969679  0
C  C45  1  0.89728698  0.09599206  0.22688909  1  0  -0.094565  0  3.736058  0  0  -0.116054  0  3.98586  0  0  -0.118864  0  4.00975  0  0  -0.083885  -0.113623  0  3.969924  0
C  C46  1  0.29297653  0.89413366  0.70778131  1  0  -0.101994  0  3.738594  0  0  -0.123102  0  3.990179  0  0  -0.127109  0  4.014241  0  0  -0.086355  -0.120806  0  3.974672  0
C  C47  1  0.70702281  0.10586819  0.29221963  1  0  -0.101957  0  3.738526  0  0  -0.123081  0  3.990085  0  0  -0.127088  0  4.014143  0  0  -0.086327  -0.120783  0  3.97457  0
C  C48  1  0.39871719  0.00036148  0.70049493  1  0  0.028811  0  3.779601  0  0  0.04583  0  4.009227  0  0  0.043393  0  4.032868  0  0  0.000592  0.046953  0  3.993733  0
C  C49  1  0.60128519  0.99963937  0.29950462  1  0  0.02871  0  3.779727  0  0  0.045725  0  4.009327  0  0  0.043289  0  4.03297  0  0  0.00055  0.046851  0  3.99383  0
C  C50  1  0.30573898  0.11735825  0.76243946  1  0  0.126318  0  3.759685  0  0  0.118798  0  3.998579  0  0  0.123268  0  4.021061  0  0  0.115247  0.115868  0  3.983927  0
C  C51  1  0.69426036  0.88264360  0.23756147  1  0  0.126288  0  3.759832  0  0  0.118823  0  3.998648  0  0  0.123292  0  4.02113  0  0  0.11524  0.115891  0  3.984  0
C  C52  1  0.58452018  0.21375948  0.69206591  1  0  0.147116  0  3.708427  0  0  0.115292  0  3.964494  0  0  0.123861  0  3.982277  0  0  0.055727  0.109877  0  3.952682  0
C  C53  1  0.41547915  0.78624236  0.30793595  1  0  0.147069  0  3.708429  0  0  0.115233  0  3.964536  0  0  0.123806  0  3.982317  0  0  0.055669  0.109814  0  3.952731  0
C  C54  1  0.68729938  0.10292769  0.62662138  1  0  -0.123288  0  3.744458  0  0  -0.134769  0  3.99577  0  0  -0.141974  0  4.016462  0  0  -0.086727  -0.130345  0  3.982388  0
C  C55  1  0.31269996  0.89707418  0.37337863  1  0  -0.123224  0  3.744448  0  0  -0.134735  0  3.995765  0  0  -0.141939  0  4.016456  0  0  -0.086717  -0.130305  0  3.98238  0
C  C56  1  0.59487762  0.99541514  0.63220807  1  0  -0.028866  0  3.666076  0  0  -0.051414  0  3.910854  0  0  -0.04782  0  3.927869  0  0  -0.057369  -0.053219  0  3.899325  0
C  C57  1  0.40512131  0.00458875  0.36779082  1  0  -0.028848  0  3.666052  0  0  -0.051381  0  3.910851  0  0  -0.047787  0  3.927867  0  0  -0.057352  -0.053178  0  3.899308  0
S  S58  1  0.06542510  0.32829847  0.54300113  1  0  0.182695  0  2.754335  0  0  0.192835  0  3.11092  0  0  0.190594  0  3.119754  0  0  0.090077  0.194895  0  3.104911  0
S  S59  1  0.93457241  0.67170542  0.45699804  1  0  0.182712  0  2.754261  0  0  0.192849  0  3.110858  0  0  0.190609  0  3.119695  0  0  0.090088  0.194908  0  3.104854  0
N  N60  1  0.01426072  0.24131147  0.88606997  1  0  -0.373055  0  3.272176  0  0  -0.302739  0  3.541775  0  0  -0.324515  0  3.56087  0  0  -0.327852  -0.288653  0  3.529  0
N  N61  1  0.98573782  0.75868735  0.11393248  1  0  -0.373042  0  3.272108  0  0  -0.302719  0  3.541723  0  0  -0.324496  0  3.560824  0  0  -0.327879  -0.288629  0  3.528946  0
N  N62  1  0.40051970  0.22034898  0.75823281  1  0  -0.358325  0  3.247154  0  0  -0.29003  0  3.511256  0  0  -0.309979  0  3.530307  0  0  -0.320379  -0.27689  0  3.498004  0
N  N63  1  0.59948249  0.77965289  0.24176571  1  0  -0.358262  0  3.2472  0  0  -0.289988  0  3.51129  0  0  -0.309937  0  3.530338  0  0  -0.320338  -0.276849  0  3.498046  0
O  O64  1  0.64420618  0.44916016  0.30923603  1  0  -0.649875  0  1.929752  0  0  -0.58729  0  2.165976  0  0  -0.616147  0  2.157665  0  0  -0.338811  -0.566831  0  2.170155  0
O  O65  1  0.35579701  0.55084374  0.69076017  1  0  -0.649885  0  1.929795  0  0  -0.587309  0  2.165994  0  0  -0.616169  0  2.157684  0  0  -0.338798  -0.566847  0  2.170171  0
O  O66  1  0.50567386  0.50852865  0.14622847  1  0  -0.601528  0  1.933288  0  0  -0.535828  0  2.164545  0  0  -0.56457  0  2.156668  0  0  -0.316774  -0.515845  0  2.169219  0
O  O67  1  0.49432265  0.49147327  0.85376933  1  0  -0.601618  0  1.933422  0  0  -0.535916  0  2.164675  0  0  -0.564659  0  2.156797  0  0  -0.316833  -0.515927  0  2.169356  0
O  O68  1  0.30697948  0.26792229  0.09672598  1  0  -0.612092  0  1.935587  0  0  -0.560926  0  2.170213  0  0  -0.586455  0  2.160245  0  0  -0.309631  -0.54225  0  2.176025  0
O  O69  1  0.69302983  0.73207254  0.90327211  1  0  -0.612189  0  1.935588  0  0  -0.560996  0  2.170156  0  0  -0.586516  0  2.160199  0  0  -0.309706  -0.542318  0  2.175971  0
O  O70  1  0.08606797  0.44969508  0.09819989  1  0  -0.675513  0  2.088732  0  0  -0.590015  0  2.358364  0  0  -0.624617  0  2.344962  0  0  -0.33284  -0.566301  0  2.366445  0
O  O71  1  0.91392677  0.55029477  0.90180181  1  0  -0.675536  0  2.088631  0  0  -0.590101  0  2.358295  0  0  -0.624694  0  2.3449  0  0  -0.332839  -0.566358  0  2.366313  0
