# generated using pymatgen
data_Zn3H24C18(NO9)2
_symmetry_space_group_name_H-M   'P 1'
_cell_length_a   6.78939344
_cell_length_b   10.31890625
_cell_length_c   10.65357391
_cell_angle_alpha   100.03913136
_cell_angle_beta   107.88478144
_cell_angle_gamma   106.41176462
_symmetry_Int_Tables_number   1
_chemical_formula_structural   Zn3H24C18(NO9)2
_chemical_formula_sum   'Zn3 H24 C18 N2 O18'
_cell_volume   652.90987343
_cell_formula_units_Z   1
loop_
 _symmetry_equiv_pos_site_id
 _symmetry_equiv_pos_as_xyz
  1  'x, y, z'
loop_
 _atom_site_type_symbol
 _atom_site_label
 _atom_site_symmetry_multiplicity
 _atom_site_fract_x
 _atom_site_fract_y
 _atom_site_fract_z
 _atom_site_occupancy
 _atom_site_pbe_bader_spin_density
 _atom_site_pbe_cm5_charge
 _atom_site_pbe_ddec_charge
 _atom_site_pbe_ddec_spin_density
 _atom_site_pbe_ddec_sum_bond_order
 _atom_site_pbe_magmom
Zn  Zn0  1  0.49999484  0.50000345  0.99999739  1  0  0.676185  1.035429  0  2.123572  0
Zn  Zn1  1  0.86427206  0.00325104  0.74674432  1  0  0.683186  0.924992  0  2.235217  0
Zn  Zn2  1  0.13573430  0.99675033  0.25326256  1  0  0.683252  0.925064  0  2.235107  0
H  H3  1  0.60396205  0.29556978  0.84338811  1  0  0.293848  0.392889  0  0.942008  0
H  H4  1  0.39601341  0.70441915  0.15660995  1  0  0.29376  0.392807  0  0.942151  0
H  H5  1  0.38869793  0.33037689  0.77860346  1  0  0.305517  0.388586  0  0.926252  0
H  H6  1  0.61128111  0.66960689  0.22138789  1  0  0.305517  0.388642  0  0.926201  0
H  H7  1  0.94315579  0.63756586  0.06781703  1  0  0.29712  0.400456  0  0.928488  0
H  H8  1  0.05684040  0.36243399  0.93217827  1  0  0.297099  0.400466  0  0.928475  0
H  H9  1  0.81558347  0.64704283  0.91819213  1  0  0.291106  0.387893  0  0.957864  0
H  H10  1  0.18443040  0.35296792  0.08180452  1  0  0.291122  0.387977  0  0.957747  0
H  H11  1  0.50360769  0.87427138  0.80841384  1  0  0.288694  0.39379  0  0.953253  0
H  H12  1  0.49640606  0.12572610  0.19159383  1  0  0.288727  0.393816  0  0.953207  0
H  H13  1  0.53206778  0.03699418  0.79921266  1  0  0.323234  0.409099  0  0.88171  0
H  H14  1  0.46792982  0.96300181  0.20079732  1  0  0.323241  0.409188  0  0.881612  0
H  H15  1  0.27575205  0.15381942  0.89921242  1  0  0.283835  0.335123  0  0.983171  0
H  H16  1  0.72425282  0.84617258  0.10079268  1  0  0.283804  0.335088  0  0.983136  0
H  H17  1  0.20410454  0.00102690  0.93616817  1  0  0.298004  0.335954  0  0.923123  0
H  H18  1  0.79589187  0.99896374  0.06383228  1  0  0.298001  0.335941  0  0.923184  0
H  H19  1  0.13569782  0.12933570  0.99987690  1  0  0.293266  0.333693  0  0.966313  0
H  H20  1  0.86430968  0.87065848  0.00012999  1  0  0.293274  0.33364  0  0.966312  0
H  H21  1  0.84550091  0.49762096  0.79104804  1  0  0.111331  0.110913  0  1.049997  0
H  H22  1  0.15449582  0.50238622  0.20895229  1  0  0.11134  0.110925  0  1.049923  0
H  H23  1  0.72151581  0.21094491  0.40856307  1  0  0.108424  0.105663  0  1.025161  0
H  H24  1  0.27850041  0.78906088  0.59144263  1  0  0.1085  0.105856  0  1.025169  0
H  H25  1  0.73874734  0.63498679  0.42608800  1  0  0.1063  0.106117  0  1.02255  0
H  H26  1  0.26125868  0.36502059  0.57390662  1  0  0.106297  0.106088  0  1.022743  0
C  C27  1  0.77995303  0.34273613  0.60577661  1  0  -0.018864  -0.043871  0  3.979924  0
C  C28  1  0.22005248  0.65726707  0.39421631  1  0  -0.018798  -0.04382  0  3.979644  0
C  C29  1  0.66220085  0.38646712  0.24535504  1  0  0.214202  0.598181  0  4.186819  0
C  C30  1  0.33781116  0.61352706  0.75464332  1  0  0.214136  0.598144  0  4.186905  0
C  C31  1  0.83002902  0.72616204  0.69753434  1  0  0.209955  0.577166  0  4.193246  0
C  C32  1  0.16997518  0.27384442  0.30247199  1  0  0.209956  0.577209  0  4.193331  0
C  C33  1  0.79535228  0.58212438  0.61662297  1  0  -0.020274  -0.048386  0  3.980203  0
C  C34  1  0.20464585  0.41787960  0.38336772  1  0  -0.020343  -0.048523  0  3.980301  0
C  C35  1  0.80816241  0.47643678  0.68110937  1  0  -0.06975  -0.087462  0  3.908061  0
C  C36  1  0.19184177  0.52356967  0.31889601  1  0  -0.069804  -0.087475  0  3.908384  0
C  C37  1  0.71620100  0.41783697  0.39800120  1  0  -0.019924  -0.06357  0  3.975682  0
C  C38  1  0.28380344  0.58217035  0.60199311  1  0  -0.019877  -0.063465  0  3.975876  0
C  C39  1  0.80337871  0.23470190  0.67976945  1  0  0.214501  0.57652  0  4.174678  0
C  C40  1  0.19661441  0.76529790  0.32022901  1  0  0.214482  0.576442  0  4.174749  0
C  C41  1  0.73651981  0.31413755  0.46482352  1  0  -0.06224  -0.071629  0  3.905384  0
C  C42  1  0.26349708  0.68586939  0.53518906  1  0  -0.062335  -0.071909  0  3.90538  0
C  C43  1  0.74879039  0.55190352  0.47518292  1  0  -0.06368  -0.071933  0  3.915722  0
C  C44  1  0.25120120  0.44809626  0.52481713  1  0  -0.063623  -0.071861  0  3.915668  0
N  N45  1  0.15022348  0.08008864  0.91234564  1  0  -0.780392  -0.850212  0  3.164724  0
N  N46  1  0.84977822  0.91990636  0.08765933  1  0  -0.780372  -0.850062  0  3.164563  0
O  O47  1  0.66345229  0.49149277  0.19581699  1  0  -0.324254  -0.591457  0  2.34682  0
O  O48  1  0.33656168  0.50850867  0.80417914  1  0  -0.324229  -0.591378  0  2.34697  0
O  O49  1  0.62016529  0.26333380  0.17412189  1  0  -0.323428  -0.544222  0  2.182544  0
O  O50  1  0.37984093  0.73666747  0.82587836  1  0  -0.323434  -0.544275  0  2.182458  0
O  O51  1  0.80666762  0.25689583  0.80262884  1  0  -0.318128  -0.586497  0  2.251653  0
O  O52  1  0.19332861  0.74311343  0.19737360  1  0  -0.318045  -0.586395  0  2.251831  0
O  O53  1  0.46204747  0.29577601  0.85338555  1  0  -0.56219  -0.755306  0  2.089547  0
O  O54  1  0.53792166  0.70420332  0.14660508  1  0  -0.562128  -0.755305  0  2.089591  0
O  O55  1  0.85491533  0.75118660  0.82332513  1  0  -0.312631  -0.56389  0  2.238699  0
O  O56  1  0.14508541  0.24881642  0.17666497  1  0  -0.312671  -0.564037  0  2.23838  0
O  O57  1  0.80264817  0.59163260  0.98607935  1  0  -0.582079  -0.776901  0  2.151725  0
O  O58  1  0.19734742  0.40837864  0.01391858  1  0  -0.582065  -0.776904  0  2.15153  0
O  O59  1  0.61027564  0.97232571  0.81622408  1  0  -0.565873  -0.770512  0  2.178948  0
O  O60  1  0.38973340  0.02767474  0.18378504  1  0  -0.565909  -0.770665  0  2.178839  0
O  O61  1  0.82174207  0.12275855  0.61874743  1  0  -0.313935  -0.523474  0  2.23969  0
O  O62  1  0.17823967  0.87723995  0.38125617  1  0  -0.314023  -0.523486  0  2.23948  0
O  O63  1  0.83085074  0.81998588  0.63205764  1  0  -0.322988  -0.54548  0  2.284108  0
O  O64  1  0.16914486  0.18001912  0.36793743  1  0  -0.32293  -0.545392  0  2.284412  0
