# generated using pymatgen
data_CdH15C15(NO)7
_symmetry_space_group_name_H-M   'P 1'
_cell_length_a   8.89663544
_cell_length_b   10.29325373
_cell_length_c   10.46950377
_cell_angle_alpha   77.68664265
_cell_angle_beta   87.18223326
_cell_angle_gamma   87.99778584
_symmetry_Int_Tables_number   1
_chemical_formula_structural   CdH15C15(NO)7
_chemical_formula_sum   'Cd2 H30 C30 N14 O14'
_cell_volume   935.26672219
_cell_formula_units_Z   2
loop_
 _symmetry_equiv_pos_site_id
 _symmetry_equiv_pos_as_xyz
  1  'x, y, z'
loop_
 _atom_site_type_symbol
 _atom_site_label
 _atom_site_symmetry_multiplicity
 _atom_site_fract_x
 _atom_site_fract_y
 _atom_site_fract_z
 _atom_site_occupancy
 _atom_site_hle17_bader_spin_density
 _atom_site_hle17_ddec_charge
 _atom_site_hle17_ddec_spin_density
 _atom_site_hle17_ddec_sum_bond_order
 _atom_site_hle17_magmom
 _atom_site_hse06_10hf_bader_spin_density
 _atom_site_hse06_10hf_ddec_charge
 _atom_site_hse06_10hf_ddec_spin_density
 _atom_site_hse06_10hf_ddec_sum_bond_order
 _atom_site_hse06_10hf_magmom
 _atom_site_hse06_bader_spin_density
 _atom_site_hse06_ddec_charge
 _atom_site_hse06_ddec_spin_density
 _atom_site_hse06_ddec_sum_bond_order
 _atom_site_hse06_magmom
 _atom_site_pbe_bader_spin_density
 _atom_site_pbe_cm5_charge
 _atom_site_pbe_ddec_charge
 _atom_site_pbe_ddec_spin_density
 _atom_site_pbe_ddec_sum_bond_order
 _atom_site_pbe_magmom
Cd  Cd0  1  0.11843208  0.66931487  0.17678326  1  0  1.069129  0  1.689223  0  0  0.863129  0  2.134825  0  0  0.921589  0  2.084697  0  0  0.780913  0.820964  0  2.169943  0
Cd  Cd1  1  0.88156759  0.33068554  0.82321551  1  0  1.069115  0  1.689234  0  0  0.86311  0  2.134844  0  0  0.921391  0  2.084803  0  0  0.780902  0.820959  0  2.169942  0
H  H2  1  0.00473076  0.64181955  0.47474440  1  0  0.092567  0  0.926892  0  0  0.103481  0  0.986429  0  0  0.105556  0  0.984739  0  0  0.123989  0.102078  0  0.987388  0
H  H3  1  0.99526670  0.35817986  0.52525850  1  0  0.092557  0  0.926882  0  0  0.103465  0  0.986435  0  0  0.105535  0  0.984755  0  0  0.123982  0.102064  0  0.9874  0
H  H4  1  0.83510345  0.76064429  0.61308313  1  0  0.131847  0  0.955145  0  0  0.135353  0  1.023182  0  0  0.139107  0  1.020742  0  0  0.116496  0.132339  0  1.025748  0
H  H5  1  0.16489164  0.23935808  0.38691543  1  0  0.13182  0  0.955185  0  0  0.135356  0  1.023174  0  0  0.139126  0  1.020703  0  0  0.116484  0.132348  0  1.025725  0
H  H6  1  0.84476800  0.10380628  0.29455099  1  0  0.118055  0  0.945334  0  0  0.12406  0  1.010298  0  0  0.127814  0  1.008669  0  0  0.112527  0.121338  0  1.011533  0
H  H7  1  0.15523272  0.89619614  0.70544922  1  0  0.118094  0  0.945331  0  0  0.124095  0  1.010313  0  0  0.12785  0  1.008682  0  0  0.112541  0.121372  0  1.01155  0
H  H8  1  0.00227816  0.96873205  0.16419032  1  0  0.080768  0  0.966781  0  0  0.086817  0  1.037227  0  0  0.089326  0  1.034438  0  0  0.113869  0.08473  0  1.039771  0
H  H9  1  0.99772376  0.03126838  0.83581025  1  0  0.08081  0  0.966822  0  0  0.086861  0  1.037261  0  0  0.08937  0  1.034472  0  0  0.113888  0.084798  0  1.039779  0
H  H10  1  0.58061867  0.31158127  0.53153433  1  0  0.080981  0  0.927042  0  0  0.086874  0  0.989844  0  0  0.08973  0  0.985386  0  0  0.131632  0.08473  0  0.99323  0
H  H11  1  0.41937767  0.68841813  0.46846672  1  0  0.081003  0  0.927069  0  0  0.086909  0  0.989845  0  0  0.089762  0  0.985392  0  0  0.131635  0.084767  0  0.993231  0
H  H12  1  0.35012966  0.10917992  0.87202770  1  0  0.117255  0  0.957205  0  0  0.123254  0  1.024491  0  0  0.126982  0  1.022527  0  0  0.112068  0.120664  0  1.025808  0
H  H13  1  0.64987023  0.89081453  0.12797328  1  0  0.117249  0  0.957236  0  0  0.123257  0  1.024505  0  0  0.126986  0  1.022539  0  0  0.112078  0.120668  0  1.025819  0
H  H14  1  0.20721343  0.97635870  0.06190636  1  0  0.078205  0  0.965668  0  0  0.082056  0  1.039652  0  0  0.085221  0  1.036006  0  0  0.111294  0.07941  0  1.043021  0
H  H15  1  0.79278615  0.02364370  0.93809199  1  0  0.078186  0  0.965681  0  0  0.082031  0  1.039693  0  0  0.085197  0  1.036045  0  0  0.111316  0.079376  0  1.043072  0
H  H16  1  0.40908618  0.62313689  0.00126810  1  0  0.085444  0  0.95231  0  0  0.093914  0  1.01598  0  0  0.096073  0  1.014331  0  0  0.11913  0.092435  0  1.016925  0
H  H17  1  0.59091469  0.37686154  0.99873295  1  0  0.085459  0  0.952302  0  0  0.093933  0  1.015965  0  0  0.096073  0  1.014349  0  0  0.119136  0.092453  0  1.016938  0
H  H18  1  0.56189434  0.74324722  0.80735283  1  0  0.129834  0  0.973387  0  0  0.126712  0  1.052821  0  0  0.131727  0  1.04858  0  0  0.111908  0.123178  0  1.055933  0
H  H19  1  0.43810540  0.25675120  0.19264540  1  0  0.1298  0  0.973461  0  0  0.126715  0  1.052853  0  0  0.131759  0  1.048552  0  0  0.111897  0.123189  0  1.055911  0
H  H20  1  0.79094147  0.53359839  0.37514414  1  0  0.048874  0  0.934344  0  0  0.062848  0  1.000122  0  0  0.063139  0  0.999652  0  0  0.095805  0.062767  0  1.000238  0
H  H21  1  0.20905932  0.46640204  0.62485649  1  0  0.04889  0  0.934342  0  0  0.06283  0  1.000126  0  0  0.063132  0  0.999632  0  0  0.095803  0.062752  0  1.00022  0
H  H22  1  0.75690985  0.39515714  0.30637907  1  0  0.048032  0  0.921516  0  0  0.062559  0  0.985966  0  0  0.062913  0  0.985202  0  0  0.096912  0.062418  0  0.986457  0
H  H23  1  0.24309206  0.60484329  0.69362055  1  0  0.048041  0  0.921502  0  0  0.062546  0  0.985951  0  0  0.062898  0  0.985191  0  0  0.096906  0.062403  0  0.98645  0
H  H24  1  0.74586984  0.68861708  0.15901576  1  0  0.097954  0  0.980848  0  0  0.115522  0  1.049821  0  0  0.117081  0  1.049715  0  0  0.080044  0.114482  0  1.049643  0
H  H25  1  0.25413099  0.31138235  0.84098508  1  0  0.097963  0  0.980856  0  0  0.115533  0  1.049824  0  0  0.117092  0  1.049716  0  0  0.080067  0.114495  0  1.049646  0
H  H26  1  0.58730748  0.58846581  0.21340362  1  0  0.110207  0  0.963522  0  0  0.129209  0  1.02795  0  0  0.129994  0  1.029055  0  0  0.088245  0.128033  0  1.028433  0
H  H27  1  0.41269215  0.41153560  0.78659685  1  0  0.11025  0  0.963485  0  0  0.129222  0  1.027946  0  0  0.129991  0  1.02908  0  0  0.088237  0.128038  0  1.028433  0
H  H28  1  0.71271364  0.55081287  0.08748519  1  0  0.107109  0  0.949205  0  0  0.12947  0  1.008222  0  0  0.130694  0  1.008473  0  0  0.086488  0.1291  0  1.00699  0
H  H29  1  0.28728715  0.44918754  0.91251353  1  0  0.107109  0  0.949213  0  0  0.12947  0  1.008222  0  0  0.130698  0  1.008463  0  0  0.086478  0.129101  0  1.006986  0
H  H30  1  0.96698517  0.43775542  0.17606684  1  0  0.369388  0  0.916878  0  0  0.340718  0  0.995038  0  0  0.3521  0  0.982276  0  0  0.292514  0.332399  0  1.004624  0
H  H31  1  0.03301558  0.56224599  0.82393262  1  0  0.369434  0  0.916857  0  0  0.340752  0  0.995025  0  0  0.352132  0  0.982269  0  0  0.292527  0.332433  0  1.004617  0
C  C32  1  0.96393039  0.74316930  0.43732169  1  0  0.137011  0  3.677009  0  0  0.105228  0  3.930349  0  0  0.111711  0  3.949702  0  0  0.052311  0.101021  0  3.91681  0
C  C33  1  0.03606928  0.25683112  0.56267899  1  0  0.13701  0  3.677031  0  0  0.105201  0  3.93036  0  0  0.111679  0  3.949727  0  0  0.052306  0.100996  0  3.916821  0
C  C34  1  0.87025988  0.80922470  0.51401551  1  0  -0.104561  0  3.642083  0  0  -0.128097  0  3.894176  0  0  -0.133479  0  3.913569  0  0  -0.065176  -0.124602  0  3.882154  0
C  C35  1  0.12973862  0.19077670  0.48598310  1  0  -0.104517  0  3.642168  0  0  -0.128007  0  3.8942  0  0  -0.133379  0  3.913572  0  0  -0.065145  -0.124508  0  3.882142  0
C  C36  1  0.82328678  0.94035757  0.46186288  1  0  0.03775  0  3.724288  0  0  0.049316  0  3.956276  0  0  0.050288  0  3.977427  0  0  0.015603  0.048123  0  3.942685  0
C  C37  1  0.17671059  0.05964381  0.53813388  1  0  0.037755  0  3.724394  0  0  0.049247  0  3.956472  0  0  0.050215  0  3.977624  0  0  0.015653  0.048058  0  3.942879  0
C  C38  1  0.87612368  0.00095901  0.33612385  1  0  -0.122066  0  3.697771  0  0  -0.144783  0  3.950115  0  0  -0.151074  0  3.971347  0  0  -0.073022  -0.140174  0  3.93534  0
C  C39  1  0.12387482  0.99904239  0.66387381  1  0  -0.12212  0  3.697856  0  0  -0.144834  0  3.950241  0  0  -0.151124  0  3.971472  0  0  -0.073082  -0.140227  0  3.935473  0
C  C40  1  0.96571696  0.92647449  0.26462477  1  0  0.128842  0  3.703044  0  0  0.098261  0  3.955022  0  0  0.104872  0  3.974412  0  0  0.041921  0.094218  0  3.940708  0
C  C41  1  0.03428496  0.07352594  0.73537676  1  0  0.128814  0  3.703058  0  0  0.098221  0  3.955043  0  0  0.104831  0  3.974431  0  0  0.041921  0.094163  0  3.940724  0
C  C42  1  0.71752513  0.01347815  0.53657930  1  0  0.392464  0  3.747688  0  0  0.37452  0  4.005436  0  0  0.390445  0  4.017763  0  0  0.261262  0.363877  0  3.996785  0
C  C43  1  0.28247341  0.98652225  0.46341952  1  0  0.392509  0  3.74768  0  0  0.374551  0  4.005465  0  0  0.390489  0  4.017781  0  0  0.26125  0.363907  0  3.996816  0
C  C44  1  0.55005337  0.01156878  0.70726688  1  0  0.391657  0  3.750089  0  0  0.373484  0  4.008229  0  0  0.389241  0  4.020687  0  0  0.261478  0.362899  0  4.000113  0
C  C45  1  0.44994638  0.98842965  0.29273517  1  0  0.391655  0  3.750151  0  0  0.373486  0  4.008297  0  0  0.389238  0  4.020764  0  0  0.261472  0.362902  0  4.000179  0
C  C46  1  0.60002634  0.20477821  0.56394361  1  0  0.351067  0  3.674115  0  0  0.304467  0  3.958883  0  0  0.320485  0  3.966703  0  0  0.196157  0.29378  0  3.953736  0
C  C47  1  0.39997217  0.79522319  0.43605691  1  0  0.35105  0  3.674232  0  0  0.304431  0  3.959024  0  0  0.320449  0  3.966847  0  0  0.196167  0.293744  0  3.953873  0
C  C48  1  0.46656504  0.93637500  0.82408123  1  0  0.032251  0  3.730926  0  0  0.044089  0  3.960258  0  0  0.044723  0  3.98139  0  0  0.013848  0.043861  0  3.946452  0
C  C49  1  0.53343707  0.06362046  0.17592039  1  0  0.032338  0  3.730733  0  0  0.044161  0  3.960105  0  0  0.044796  0  3.98124  0  0  0.013919  0.043933  0  3.946299  0
C  C50  1  0.36619753  0.00169685  0.89787201  1  0  -0.126631  0  3.703053  0  0  -0.148399  0  3.953566  0  0  -0.154182  0  3.974929  0  0  -0.074439  -0.144403  0  3.939355  0
C  C51  1  0.63380792  0.99829964  0.10213212  1  0  -0.126584  0  3.703073  0  0  -0.148362  0  3.95364  0  0  -0.154146  0  3.975  0  0  -0.074443  -0.144368  0  3.939427  0
C  C52  1  0.28642539  0.92704400  0.00412707  1  0  0.124826  0  3.708429  0  0  0.093027  0  3.966063  0  0  0.098876  0  3.985476  0  0  0.039733  0.088992  0  3.953578  0
C  C53  1  0.71357331  0.07295244  0.99587736  1  0  0.124822  0  3.708383  0  0  0.093014  0  3.966042  0  0  0.098861  0  3.985452  0  0  0.039692  0.088985  0  3.953563  0
C  C54  1  0.39991596  0.73088071  0.96925021  1  0  0.135185  0  3.681521  0  0  0.106336  0  3.929171  0  0  0.112117  0  3.949302  0  0  0.050456  0.102714  0  3.914901  0
C  C55  1  0.60008266  0.26911771  0.03075094  1  0  0.135182  0  3.681428  0  0  0.106332  0  3.929095  0  0  0.112106  0  3.949248  0  0  0.050468  0.102706  0  3.91485  0
C  C56  1  0.48500090  0.79798656  0.86200206  1  0  -0.110509  0  3.642138  0  0  -0.129683  0  3.888463  0  0  -0.135086  0  3.907108  0  0  -0.067817  -0.126377  0  3.875941  0
C  C57  1  0.51499997  0.20201187  0.13799899  1  0  -0.110593  0  3.642151  0  0  -0.129792  0  3.888481  0  0  -0.135185  0  3.90709  0  0  -0.06786  -0.126486  0  3.875932  0
C  C58  1  0.79774188  0.49758682  0.28352611  1  0  0.192414  0  3.620338  0  0  0.139195  0  3.892398  0  0  0.147555  0  3.899647  0  0  -0.080953  0.132943  0  3.887511  0
C  C59  1  0.20225783  0.50241261  0.71647573  1  0  0.192374  0  3.620421  0  0  0.139246  0  3.892373  0  0  0.147606  0  3.899617  0  0  -0.080941  0.132992  0  3.887489  0
C  C60  1  0.70587973  0.58627893  0.17952445  1  0  -0.341562  0  3.711631  0  0  -0.41773  0  3.956712  0  0  -0.421283  0  3.967154  0  0  -0.260183  -0.4147  0  3.949371  0
C  C61  1  0.29411994  0.41372148  0.82047623  1  0  -0.341602  0  3.711671  0  0  -0.417764  0  3.956714  0  0  -0.421324  0  3.967171  0  0  -0.260201  -0.41474  0  3.949407  0
N  N62  1  0.32573394  0.47369778  0.30501622  1  0  0.692277  0  4.128527  0  0  0.722066  0  4.42305  0  0  0.750903  0  4.429818  0  0  0.094831  0.714095  0  4.403017  0
N  N63  1  0.67426798  0.52630265  0.69498245  1  0  0.692235  0  4.128654  0  0  0.722022  0  4.423156  0  0  0.7491  0  4.43025  0  0  0.094791  0.702017  0  4.420135  0
N  N64  1  0.95481108  0.75306736  0.92973990  1  0  0.690081  0  4.123541  0  0  0.719408  0  4.41459  0  0  0.747794  0  4.421175  0  0  0.098711  0.700311  0  4.408997  0
N  N65  1  0.04518968  0.24693406  0.07026052  1  0  0.690013  0  4.123506  0  0  0.719341  0  4.414556  0  0  0.747719  0  4.421143  0  0  0.098625  0.700246  0  4.408957  0
N  N66  1  0.00800087  0.79938316  0.31326455  1  0  -0.337485  0  3.254311  0  0  -0.254519  0  3.514254  0  0  -0.275832  0  3.535369  0  0  -0.331144  -0.238812  0  3.498461  0
N  N67  1  0.99199985  0.20061925  0.68673470  1  0  -0.337484  0  3.254304  0  0  -0.25449  0  3.514233  0  0  -0.27581  0  3.535369  0  0  -0.331151  -0.238784  0  3.498455  0
N  N68  1  0.64549311  0.94211748  0.64249217  1  0  -0.40812  0  2.963201  0  0  -0.373116  0  3.218138  0  0  -0.390099  0  3.230653  0  0  -0.290282  -0.361894  0  3.209984  0
N  N69  1  0.35450656  0.05788293  0.35750756  1  0  -0.408129  0  2.96323  0  0  -0.373117  0  3.218193  0  0  -0.390101  0  3.230697  0  0  -0.290269  -0.361894  0  3.210032  0
N  N70  1  0.52367032  0.14373565  0.67249878  1  0  -0.407705  0  2.941529  0  0  -0.37247  0  3.204092  0  0  -0.388871  0  3.215884  0  0  -0.306853  -0.361713  0  3.196557  0
N  N71  1  0.47632717  0.85626276  0.32750242  1  0  -0.407718  0  2.941654  0  0  -0.372496  0  3.204251  0  0  -0.388893  0  3.216042  0  0  -0.30689  -0.361738  0  3.196711  0
N  N72  1  0.69806002  0.14547473  0.49192048  1  0  -0.408427  0  2.949529  0  0  -0.374572  0  3.215856  0  0  -0.391242  0  3.227763  0  0  -0.304204  -0.363286  0  3.207803  0
N  N73  1  0.30193740  0.85452567  0.50808030  1  0  -0.408473  0  2.949521  0  0  -0.374589  0  3.21585  0  0  -0.391264  0  3.227755  0  0  -0.304223  -0.363302  0  3.2078  0
N  N74  1  0.30102574  0.79357796  0.03892492  1  0  -0.3428  0  3.266104  0  0  -0.265578  0  3.534034  0  0  -0.286146  0  3.555163  0  0  -0.331207  -0.251304  0  3.519206  0
N  N75  1  0.69897404  0.20641948  0.96107734  1  0  -0.34277  0  3.265885  0  0  -0.265537  0  3.533809  0  0  -0.286115  0  3.554964  0  0  -0.331195  -0.251265  0  3.518991  0
O  O76  1  0.29829888  0.48551675  0.18320453  1  0  -0.491472  0  1.76267  0  0  -0.465066  0  1.987354  0  0  -0.484584  0  1.979607  0  0  -0.205043  -0.45587  0  1.988887  0
O  O77  1  0.70170300  0.51448466  0.81679297  1  0  -0.491465  0  1.762655  0  0  -0.465047  0  1.987335  0  0  -0.483829  0  1.979564  0  0  -0.205054  -0.45188  0  1.993468  0
O  O78  1  0.25451651  0.55259487  0.36806220  1  0  -0.495678  0  1.779107  0  0  -0.478348  0  2.014533  0  0  -0.497922  0  2.007101  0  0  -0.201363  -0.468802  0  2.015216  0
O  O79  1  0.74548428  0.44740555  0.63193652  1  0  -0.495678  0  1.779231  0  0  -0.478354  0  2.014665  0  0  -0.4972  0  2.007228  0  0  -0.201352  -0.464822  0  2.019986  0
O  O80  1  0.41829463  0.38910855  0.35870103  1  0  -0.402585  0  1.761484  0  0  -0.399222  0  1.972471  0  0  -0.410896  0  1.966049  0  0  -0.153887  -0.395012  0  1.972454  0
O  O81  1  0.58170730  0.61089188  0.64129955  1  0  -0.402572  0  1.761523  0  0  -0.399193  0  1.972485  0  0  -0.410122  0  1.966104  0  0  -0.153846  -0.390858  0  1.977558  0
O  O82  1  0.03763042  0.64573267  0.94858786  1  0  -0.492114  0  1.811022  0  0  -0.458487  0  2.02623  0  0  -0.478758  0  2.020013  0  0  -0.189272  -0.444388  0  2.030047  0
O  O83  1  0.96237030  0.35426974  0.05141139  1  0  -0.49204  0  1.810877  0  0  -0.458446  0  2.026123  0  0  -0.478706  0  2.019903  0  0  -0.189223  -0.444357  0  2.029953  0
O  O84  1  0.94869227  0.81996481  0.01993496  1  0  -0.499247  0  1.816548  0  0  -0.476869  0  2.052306  0  0  -0.496724  0  2.047256  0  0  -0.195145  -0.462014  0  2.055275  0
O  O85  1  0.05130845  0.18003760  0.98006429  1  0  -0.49923  0  1.816568  0  0  -0.47686  0  2.052347  0  0  -0.496718  0  2.047302  0  0  -0.195114  -0.462006  0  2.055311  0
O  O86  1  0.88454076  0.78998591  0.82847056  1  0  -0.393624  0  1.770421  0  0  -0.39404  0  1.98727  0  0  -0.404956  0  1.982513  0  0  -0.152653  -0.386181  0  1.99041  0
O  O87  1  0.11546112  0.21001551  0.17152885  1  0  -0.393599  0  1.77041  0  0  -0.394011  0  1.987271  0  0  -0.40492  0  1.982502  0  0  -0.152643  -0.386148  0  1.990397  0
O  O88  1  0.95651590  0.49171601  0.24494378  1  0  -0.586912  0  2.134632  0  0  -0.514395  0  2.386152  0  0  -0.537054  0  2.373046  0  0  -0.417505  -0.498403  0  2.396259  0
O  O89  1  0.04348482  0.50828640  0.75505452  1  0  -0.586941  0  2.134693  0  0  -0.514433  0  2.386195  0  0  -0.537112  0  2.373129  0  0  -0.417507  -0.498447  0  2.396322  0
