# generated using pymatgen
data_Zn4H29C44I6N16F5
_symmetry_space_group_name_H-M   'P 1'
_cell_length_a   14.59649315
_cell_length_b   15.01554872
_cell_length_c   15.15455244
_cell_angle_alpha   67.90134757
_cell_angle_beta   69.38710781
_cell_angle_gamma   104.34438013
_symmetry_Int_Tables_number   1
_chemical_formula_structural   Zn4H29C44I6N16F5
_chemical_formula_sum   'Zn4 H29 C44 I6 N16 F5'
_cell_volume   2588.89949138
_cell_formula_units_Z   1
loop_
 _symmetry_equiv_pos_site_id
 _symmetry_equiv_pos_as_xyz
  1  'x, y, z'
loop_
 _atom_site_type_symbol
 _atom_site_label
 _atom_site_symmetry_multiplicity
 _atom_site_fract_x
 _atom_site_fract_y
 _atom_site_fract_z
 _atom_site_occupancy
 _atom_site_pbe_bader_charge
 _atom_site_pbe_bader_spin_density
 _atom_site_pbe_cm5_charge
 _atom_site_pbe_ddec_charge
 _atom_site_pbe_ddec_spin_density
 _atom_site_pbe_ddec_sum_bond_order
 _atom_site_pbe_magmom
Zn  Zn0  1  0.14189565  0.50233916  0.86794288  1  1.192348  0  0.744036  0.619508  0  2.423946  0
Zn  Zn1  1  0.87178261  0.50901080  0.14360774  1  1.202354  0  0.745222  0.660786  0  2.377779  0
Zn  Zn2  1  0.02202374  0.37125496  0.13600073  1  1.194875  0  0.723709  0.624155  0  2.448346  0
Zn  Zn3  1  0.00179638  0.64479097  0.87314453  1  1.192441  0  0.723478  0.616488  0  2.486209  0
H  H4  1  0.20250151  0.31619461  0.82252185  1  0.040639  0  0.118193  0.108178  0  0.993382  0
H  H5  1  0.66961061  0.58757816  0.19027737  1  0.124171  0  0.117952  0.110683  0  0.997641  0
H  H6  1  0.00937285  0.33331121  0.84012804  1  0.126985  0  0.113054  0.107528  0  1.034311  0
H  H7  1  0.85210245  0.76635920  0.83517586  1  0.103357  0  0.103368  0.08738  0  1.0472  0
H  H8  1  0.06722846  0.15581608  0.17483059  1  0.096503  0  0.113766  0.099679  0  1.00957  0
H  H9  1  0.35114564  0.67111561  0.60445071  1  0.098518  0  0.122821  0.113544  0  0.985125  0
H  H10  1  0.79672030  0.46794356  0.39591529  1  0.106377  0  0.108399  0.100999  0  1.03008  0
H  H11  1  0.18915727  0.52338349  0.17062969  1  0.080606  0  0.09501  0.082623  0  1.077314  0
H  H12  1  0.20201423  0.84119668  0.82167510  1  0.119089  0  0.112915  0.105204  0  1.008188  0
H  H13  1  0.36968085  0.68006971  0.81578421  1  0.077221  0  0.11521  0.100743  0  1.001708  0
H  H14  1  0.75905846  0.42503600  0.71995980  1  0.058516  0  0.074271  0.082642  0  1.064574  0
H  H15  1  0.73048333  0.28956045  0.79352941  1  0.017998  0  0.095421  0.101235  0  0.968271  0
H  H16  1  0.74167496  0.26860811  0.64462858  1  0.046947  0  0.09625  0.104822  0  0.962913  0
H  H17  1  0.74386450  0.39579898  0.58568936  1  0.028906  0  0.082868  0.089268  0  1.02018  0
H  H18  1  0.97948592  0.57355536  0.60190979  1  0.05101  0  0.082899  0.108578  0  1.03374  0
H  H19  1  0.87596514  0.23294965  0.76052019  1  0.064456  0  0.104378  0.055121  0  0.942023  0
H  H20  1  0.90793247  0.24136786  0.59329459  1  0.042252  0  0.092536  0.110367  0  0.983722  0
H  H21  1  0.03620322  0.35138879  0.52544788  1  0.079833  0  0.081108  0.099058  0  1.045969  0
H  H22  1  0.06742108  0.51344244  0.57853509  1  0.071164  0  0.092629  0.11855  0  0.995365  0
H  H23  1  0.53307538  0.75949889  0.83225684  1  0.020771  0  0.092372  0.088207  0  0.998156  0
H  H24  1  0.40203880  0.64831148  0.08353572  1  0.05033  0  0.091426  0.099083  0  1.024272  0
H  H25  1  0.69465498  0.79168109  0.84285803  1  0.047645  0  0.099183  0.119853  0  0.9973  0
H  H26  1  0.50105888  0.16441186  0.33264224  1  0.072158  0  0.086315  0.104215  0  1.05674  0
H  H27  1  0.34280784  0.00956366  0.46986051  1  0.026994  0  0.075414  0.074044  0  1.069124  0
H  H28  1  0.45493678  0.87130253  0.42401295  1  0.053739  0  0.098335  0.10586  0  1.008435  0
H  H29  1  0.09705330  0.84828628  0.16181314  1  0.078474  0  0.086488  0.087107  0  1.038605  0
H  H30  1  0.21558392  0.97649618  0.90936749  1  0.035689  0  0.097748  0.096599  0  0.99725  0
H  H31  1  0.12977298  0.01642629  0.15504824  1  0.031909  0  0.094559  0.093777  0  0.994261  0
H  H32  1  0.17016602  0.10573230  0.91899824  1  0.053623  0  0.095846  0.093471  0  1.004773  0
C  C33  1  0.16762658  0.29208611  0.90875033  1  0.451616  0  0.004628  -0.064999  0  3.993071  0
C  C34  1  0.72855180  0.62673362  0.10393180  1  0.415194  0  0.003229  -0.040047  0  4.008758  0
C  C35  1  0.80823797  0.21870668  0.18397181  1  1.091487  0  0.209177  0.363391  0  4.063457  0
C  C36  1  0.88929853  0.49084327  0.81899831  1  0.252176  0  0.039914  0.076948  0  3.925077  0
C  C37  1  0.71753925  0.31326179  0.16215528  1  0.278748  0  0.044584  0.101698  0  3.948117  0
C  C38  1  0.97306834  0.38809716  0.84046278  1  0.406658  0  0.001419  -0.049241  0  3.967609  0
C  C39  1  0.82103443  0.71779595  0.92250351  1  0.422035  0  0.003616  -0.036902  0  4.016764  0
C  C40  1  0.10021948  0.21060857  0.08816241  1  0.416424  0  0.00919  -0.046445  0  3.967825  0
C  C41  1  0.14522761  0.19685612  0.99798176  1  -0.007068  0  -0.041212  0.009373  0  4.139203  0
C  C42  1  0.72463155  0.69329854  0.01201701  1  0.049582  0  -0.049961  -0.100799  0  4.155195  0
C  C43  1  0.70296248  0.20600679  0.20353943  1  0.089153  0  -0.053361  -0.243078  0  4.129498  0
C  C44  1  0.91161391  0.41592191  0.79074192  1  0.012349  0  -0.037951  -0.071167  0  3.952997  0
C  C45  1  0.29077687  0.70052572  0.62670048  1  0.426357  0  0.011242  -0.053659  0  3.968527  0
C  C46  1  0.84920812  0.43076042  0.37462264  1  0.419153  0  0.003026  -0.038541  0  3.992529  0
C  C47  1  0.21808853  0.55163135  0.08414156  1  0.414314  0  0.004302  -0.045088  0  3.948992  0
C  C48  1  0.14816290  0.78556895  0.90919480  1  0.369187  0  0.007611  -0.038622  0  3.957024  0
C  C49  1  0.05200658  0.70363167  0.08730203  1  1.012658  0  0.203959  0.340817  0  4.039071  0
C  C50  1  0.31099468  0.63168038  0.90295843  1  0.435093  0  0.011531  -0.042861  0  3.939392  0
C  C51  1  0.19621824  0.79320234  0.63596200  1  0.281642  0  0.041857  0.07085  0  3.931215  0
C  C52  1  0.95971568  0.35450939  0.36165535  1  0.2459  0  0.037307  0.068407  0  3.957781  0
C  C53  1  0.29697359  0.80197274  0.56584216  1  0.008085  0  -0.038258  -0.014177  0  4.110762  0
C  C54  1  0.90274640  0.38889720  0.42856627  1  0.031499  0  -0.046443  -0.087594  0  3.984906  0
C  C55  1  0.32149557  0.62854088  0.99320719  1  -0.020877  0  -0.039217  0.012344  0  4.106789  0
C  C56  1  0.13152375  0.80489225  0.99656794  1  0.082548  0  -0.044531  -0.099559  0  4.13318  0
C  C57  1  0.78693809  0.36483813  0.71498999  1  -0.045391  0  -0.16732  -0.195528  0  3.859949  0
C  C58  1  0.78572493  0.35280429  0.61842842  1  -0.038191  0  -0.165055  -0.190221  0  3.852789  0
C  C59  1  0.98600820  0.50606222  0.59297288  1  -0.007509  0  -0.180019  -0.260663  0  3.863454  0
C  C60  1  0.93524665  0.31278774  0.68871425  1  0.434831  0  0.027603  0.198011  0  3.758546  0
C  C61  1  0.90238387  0.39845667  0.70168407  1  0.068578  0  -0.012534  0.085469  0  3.814123  0
C  C62  1  0.90292298  0.39383576  0.52611520  1  0.069084  0  -0.012288  0.115547  0  3.80323  0
C  C63  1  0.97226069  0.50934347  0.49618968  1  -0.262983  0  -0.022652  0.10355  0  3.390611  0
C  C64  1  0.94878879  0.32079724  0.58033097  1  -0.044462  0  -0.171931  -0.275979  0  3.845477  0
C  C65  1  0.52051031  0.73253607  0.91524201  1  -0.015771  0  -0.113095  -0.081461  0  4.094113  0
C  C66  1  0.41621595  0.67372438  0.00042359  1  0.041315  0  -0.099686  -0.122295  0  4.017503  0
C  C67  1  0.61926050  0.75105139  0.92100441  1  0.069386  0  -0.128578  -0.251182  0  4.096658  0
C  C68  1  0.63203073  0.70951424  0.00995663  1  0.320635  0  0.082889  0.239694  0  4.058081  0
C  C69  1  0.50505608  0.09089928  0.33885617  1  0.094316  0  -0.126842  -0.240968  0  4.078648  0
C  C70  1  0.60459929  0.10648819  0.27027986  1  0.352395  0  0.087936  0.276525  0  4.053952  0
C  C71  1  0.40827674  0.99446616  0.42510774  1  0.008673  0  -0.111984  -0.061257  0  4.067037  0
C  C72  1  0.39137880  0.89072602  0.46462579  1  -0.019637  0  -0.100348  -0.123749  0  4.012011  0
C  C73  1  0.13810078  0.91913323  0.08013726  1  0.000437  0  -0.110484  -0.105151  0  4.058894  0
C  C74  1  0.16838617  0.90580947  0.99192272  1  -0.06826  0  -0.101311  -0.104217  0  4.036223  0
C  C75  1  0.14510116  0.01762627  0.07844942  1  -0.002656  0  -0.107457  -0.098771  0  4.06631  0
C  C76  1  0.15710595  0.10531091  0.99486379  1  -0.085188  0  -0.099353  -0.124989  0  4.047028  0
I  I77  1  0.12215544  0.89583370  0.62090328  1  0.133299  0  0.111277  -0.012201  0  1.476668  0
I  I78  1  0.05981494  0.27664506  0.36647704  1  0.13707  0  0.112023  -0.010265  0  1.506713  0
I  I79  1  0.89673592  0.61890162  0.45466406  1  0.031309  0  0.042786  -0.083021  0  1.465034  0
I  I80  1  0.13503284  0.58465743  0.35228316  1  0.043095  0  0.048446  -0.060008  0  1.429622  0
I  I81  1  0.80515209  0.57826310  0.77815480  1  0.140417  0  0.117732  -0.011434  0  1.65624  0
I  I82  1  0.60702857  0.37109388  0.14087135  1  0.174799  0  0.12371  0.020166  0  1.537995  0
N  N83  1  0.13933852  0.35684847  0.94285526  1  -0.793793  0  -0.275451  -0.178503  0  3.566447  0
N  N84  1  0.81846423  0.61083396  0.07105499  1  -0.803192  0  -0.278044  -0.185967  0  3.563316  0
N  N85  1  0.87703459  0.32003012  0.13934072  1  -0.80536  0  -0.278911  -0.273246  0  3.557205  0
N  N86  1  0.93550734  0.50700248  0.87802875  1  -0.777866  0  -0.286029  -0.218913  0  3.5992  0
N  N87  1  0.82047107  0.38024967  0.12620902  1  -0.7583  0  -0.275238  -0.210195  0  3.542887  0
N  N88  1  0.98805402  0.44361824  0.89087115  1  -0.766724  0  -0.280473  -0.176495  0  3.548537  0
N  N89  1  0.87578185  0.66784196  0.95819570  1  -0.800686  0  -0.272815  -0.170154  0  3.568044  0
N  N90  1  0.09665328  0.30560416  0.05476864  1  -0.798313  0  -0.273185  -0.182061  0  3.560418  0
N  N91  1  0.19708114  0.63911549  0.72333337  1  -0.806064  0  -0.264362  -0.156424  0  3.517239  0
N  N92  1  0.87370250  0.42392092  0.28379203  1  -0.779886  0  -0.269004  -0.154977  0  3.515293  0
N  N93  1  0.15338174  0.51132965  0.05051074  1  -0.812275  0  -0.286765  -0.183126  0  3.630206  0
N  N94  1  0.08281851  0.68326248  0.94684502  1  -0.777273  0  -0.287896  -0.18643  0  3.597322  0
N  N95  1  0.02274561  0.63191830  0.05895285  1  -0.813696  0  -0.293413  -0.304695  0  3.584222  0
N  N96  1  0.21051355  0.56083760  0.93910361  1  -0.776225  0  -0.279471  -0.175201  0  3.643257  0
N  N97  1  0.13815954  0.69711629  0.72878927  1  -0.780512  0  -0.273303  -0.20864  0  3.552579  0
N  N98  1  0.94249322  0.37606349  0.27580386  1  -0.78205  0  -0.277106  -0.213548  0  3.544839  0
F  F99  1  0.00196730  0.67563789  0.19340034  1  -0.653416  0  -0.086855  -0.148129  0  1.46534  0
F  F100  1  0.03726234  0.32622830  0.68484700  1  -0.630612  0  -0.14999  -0.212019  0  1.24341  0
F  F101  1  0.84203116  0.14200650  0.20876325  1  -0.632241  0  -0.083592  -0.131895  0  1.358594  0
F  F102  1  0.54326922  0.65823774  0.11347378  1  -0.633486  0  -0.107237  -0.14806  0  1.326164  0
F  F103  1  0.62189368  0.02067163  0.27025411  1  -0.619433  0  -0.107162  -0.147329  0  1.314934  0
