# generated using pymatgen
data_Cd5H16C12N28(ClO)2
_symmetry_space_group_name_H-M   'P 1'
_cell_length_a   8.02918330
_cell_length_b   8.43549288
_cell_length_c   13.27161150
_cell_angle_alpha   93.48256735
_cell_angle_beta   107.44376039
_cell_angle_gamma   108.47448692
_symmetry_Int_Tables_number   1
_chemical_formula_structural   Cd5H16C12N28(ClO)2
_chemical_formula_sum   'Cd5 H16 C12 N28 Cl2 O2'
_cell_volume   801.21788289
_cell_formula_units_Z   1
loop_
 _symmetry_equiv_pos_site_id
 _symmetry_equiv_pos_as_xyz
  1  'x, y, z'
loop_
 _atom_site_type_symbol
 _atom_site_label
 _atom_site_symmetry_multiplicity
 _atom_site_fract_x
 _atom_site_fract_y
 _atom_site_fract_z
 _atom_site_occupancy
 _atom_site_hle17_bader_spin_density
 _atom_site_hle17_ddec_charge
 _atom_site_hle17_ddec_spin_density
 _atom_site_hle17_ddec_sum_bond_order
 _atom_site_hle17_magmom
 _atom_site_hse06_10hf_bader_spin_density
 _atom_site_hse06_10hf_ddec_charge
 _atom_site_hse06_10hf_ddec_spin_density
 _atom_site_hse06_10hf_ddec_sum_bond_order
 _atom_site_hse06_10hf_magmom
 _atom_site_hse06_bader_spin_density
 _atom_site_hse06_ddec_charge
 _atom_site_hse06_ddec_spin_density
 _atom_site_hse06_ddec_sum_bond_order
 _atom_site_hse06_magmom
 _atom_site_pbe_bader_spin_density
 _atom_site_pbe_cm5_charge
 _atom_site_pbe_ddec_charge
 _atom_site_pbe_ddec_spin_density
 _atom_site_pbe_ddec_sum_bond_order
 _atom_site_pbe_magmom
Cd  Cd0  1  0.00000379  0.99999980  0.00000058  1  0  0.948831  0  1.951969  0  0  0.739704  0  2.42988  0  0  0.784005  0  2.392381  0  0  0.823594  0.708685  0  2.455346  0
Cd  Cd1  1  0.49728996  0.69364650  0.89602310  1  0  1.011622  0  1.842029  0  0  0.809978  0  2.319357  0  0  0.856691  0  2.278714  0  0  0.819772  0.777081  0  2.34701  0
Cd  Cd2  1  0.50271296  0.30635199  0.10397651  1  0  1.01159  0  1.842035  0  0  0.809953  0  2.319349  0  0  0.856666  0  2.278708  0  0  0.81976  0.777055  0  2.347004  0
Cd  Cd3  1  0.04567604  0.49669749  0.64243690  1  0  0.987328  0  1.959168  0  0  0.806249  0  2.432163  0  0  0.85217  0  2.391488  0  0  0.701245  0.773869  0  2.459802  0
Cd  Cd4  1  0.95432296  0.50330102  0.35756275  1  0  0.98734  0  1.959136  0  0  0.806258  0  2.43213  0  0  0.85218  0  2.391456  0  0  0.701241  0.773877  0  2.45977  0
H  H5  1  0.43931905  0.42389769  0.66232361  1  0  0.114867  0  0.940333  0  0  0.129604  0  1.004278  0  0  0.130989  0  1.003957  0  0  0.100916  0.128584  0  1.004611  0
H  H6  1  0.56068032  0.57610843  0.33767413  1  0  0.114802  0  0.940447  0  0  0.129548  0  1.004356  0  0  0.130934  0  1.004035  0  0  0.100895  0.128529  0  1.00469  0
H  H7  1  0.52522626  0.28960401  0.74061929  1  0  0.113551  0  0.947929  0  0  0.120806  0  1.021397  0  0  0.122097  0  1.02109  0  0  0.102236  0.119862  0  1.021708  0
H  H8  1  0.47476870  0.71040087  0.25937911  1  0  0.11355  0  0.947914  0  0  0.120782  0  1.021401  0  0  0.122076  0  1.02109  0  0  0.102252  0.11984  0  1.021712  0
H  H9  1  0.45185176  0.19572584  0.54864769  1  0  0.061177  0  0.922401  0  0  0.072657  0  0.990124  0  0  0.073517  0  0.989041  0  0  0.100025  0.071957  0  0.99099  0
H  H10  1  0.54814793  0.80427775  0.45135152  1  0  0.061241  0  0.922393  0  0  0.072718  0  0.990099  0  0  0.073579  0  0.989016  0  0  0.100048  0.072017  0  0.990968  0
H  H11  1  0.60543837  0.39455651  0.53636261  1  0  0.062481  0  0.939486  0  0  0.075656  0  1.005467  0  0  0.076344  0  1.004656  0  0  0.096218  0.075055  0  1.006157  0
H  H12  1  0.39456212  0.60544580  0.46363670  1  0  0.06251  0  0.939531  0  0  0.075655  0  1.005522  0  0  0.076344  0  1.004711  0  0  0.096214  0.075054  0  1.006211  0
H  H13  1  0.59876316  0.99150590  0.61096282  1  0  0.057424  0  0.915832  0  0  0.07256  0  0.976588  0  0  0.072967  0  0.976194  0  0  0.101875  0.072167  0  0.977009  0
H  H14  1  0.40123341  0.00849644  0.38903954  1  0  0.057396  0  0.915851  0  0  0.072534  0  0.976603  0  0  0.07294  0  0.976211  0  0  0.101843  0.072141  0  0.977021  0
H  H15  1  0.68315493  0.12393749  0.73812482  1  0  0.050447  0  0.949657  0  0  0.062037  0  1.018186  0  0  0.062045  0  1.018994  0  0  0.095295  0.061959  0  1.0177  0
H  H16  1  0.31684624  0.87606991  0.26187782  1  0  0.050463  0  0.94971  0  0  0.06206  0  1.018225  0  0  0.062067  0  1.019036  0  0  0.095312  0.061982  0  1.017738  0
H  H17  1  0.86652997  0.93520987  0.71834426  1  0  0.117531  0  0.928322  0  0  0.131167  0  0.987623  0  0  0.132076  0  0.988596  0  0  0.109509  0.13052  0  0.986995  0
H  H18  1  0.13346349  0.06479123  0.28165975  1  0  0.117529  0  0.928352  0  0  0.131182  0  0.987608  0  0  0.132087  0  0.988581  0  0  0.109537  0.130537  0  0.986978  0
H  H19  1  0.93521885  0.04907352  0.62138796  1  0  0.127334  0  0.911101  0  0  0.138848  0  0.973105  0  0  0.140866  0  0.971873  0  0  0.109278  0.137349  0  0.974098  0
H  H20  1  0.06477605  0.95092121  0.37861382  1  0  0.127429  0  0.911075  0  0  0.138928  0  0.973047  0  0  0.140942  0  0.971814  0  0  0.109332  0.137433  0  0.974039  0
C  C21  1  0.72558067  0.53325682  0.75676401  1  0  0.369017  0  3.691981  0  0  0.34712  0  3.958109  0  0  0.360414  0  3.973451  0  0  0.227284  0.338181  0  3.94765  0
C  C22  1  0.27441983  0.46674549  0.24323380  1  0  0.368945  0  3.691971  0  0  0.346993  0  3.958154  0  0  0.360288  0  3.973496  0  0  0.22726  0.338054  0  3.947694  0
C  C23  1  0.56139593  0.38459442  0.69002664  1  0  -0.250468  0  3.706615  0  0  -0.29263  0  3.956139  0  0  -0.296124  0  3.966496  0  0  -0.160792  -0.290149  0  3.949062  0
C  C24  1  0.43860245  0.61540917  0.30997158  1  0  -0.250368  0  3.706678  0  0  -0.292506  0  3.956187  0  0  -0.296004  0  3.966541  0  0  -0.160798  -0.290025  0  3.949111  0
C  C25  1  0.58203291  0.30324357  0.59071325  1  0  0.101889  0  3.620211  0  0  0.041272  0  3.894246  0  0  0.049206  0  3.898798  0  0  -0.073145  0.03597  0  3.891082  0
C  C26  1  0.41796759  0.69675874  0.40928531  1  0  0.101753  0  3.620446  0  0  0.041188  0  3.894385  0  0  0.049121  0  3.89894  0  0  -0.073184  0.035885  0  3.891221  0
C  C27  1  0.71638904  0.10060829  0.66519521  1  0  0.116302  0  3.612187  0  0  0.0578  0  3.883394  0  0  0.065119  0  3.889401  0  0  -0.068667  0.052966  0  3.879137  0
C  C28  1  0.28361063  0.89939530  0.33480702  1  0  0.11636  0  3.612235  0  0  0.057825  0  3.883438  0  0  0.065139  0  3.889447  0  0  -0.068676  0.05299  0  3.879185  0
C  C29  1  0.89496497  0.05954991  0.69305804  1  0  -0.239873  0  3.693058  0  0  -0.283479  0  3.950894  0  0  -0.286774  0  3.960271  0  0  -0.152053  -0.281137  0  3.944476  0
C  C30  1  0.10503142  0.94044862  0.30694415  1  0  -0.240077  0  3.693332  0  0  -0.283641  0  3.951054  0  0  -0.286904  0  3.960367  0  0  -0.152133  -0.281307  0  3.944642  0
C  C31  1  0.05533221  0.18566752  0.78025686  1  0  0.368875  0  3.68757  0  0  0.340526  0  3.969768  0  0  0.353069  0  3.984861  0  0  0.234653  0.332057  0  3.95958  0
C  C32  1  0.94466890  0.81432971  0.21974313  1  0  0.36889  0  3.687724  0  0  0.340573  0  3.969839  0  0  0.353111  0  3.984932  0  0  0.234677  0.332106  0  3.95965  0
N  N33  1  0.90190981  0.57650939  0.75571211  1  0  -0.334824  0  3.137705  0  0  -0.275101  0  3.42466  0  0  -0.293499  0  3.440093  0  0  -0.23803  -0.262617  0  3.413996  0
N  N34  1  0.09809149  0.42349164  0.24428579  1  0  -0.334772  0  3.137731  0  0  -0.275042  0  3.424707  0  0  -0.29344  0  3.440141  0  0  -0.237987  -0.262556  0  3.414041  0
N  N35  1  0.00619805  0.71625573  0.83001173  1  0  -0.055081  0  2.970295  0  0  -0.062317  0  3.265393  0  0  -0.05922  0  3.279683  0  0  -0.096567  -0.064092  0  3.255551  0
N  N36  1  0.99380405  0.28374404  0.16998778  1  0  -0.055032  0  2.970234  0  0  -0.062264  0  3.265339  0  0  -0.059167  0  3.27963  0  0  -0.096588  -0.064041  0  3.255498  0
N  N37  1  0.89706314  0.75558414  0.87507661  1  0  -0.115797  0  3.234709  0  0  -0.063373  0  3.530794  0  0  -0.071196  0  3.546735  0  0  -0.123567  -0.057849  0  3.519727  0
N  N38  1  0.10293717  0.24441436  0.12492328  1  0  -0.115971  0  3.234536  0  0  -0.063558  0  3.530646  0  0  -0.07138  0  3.546586  0  0  -0.123648  -0.058031  0  3.519579  0
N  N39  1  0.72086772  0.64497257  0.83141326  1  0  -0.33592  0  3.131881  0  0  -0.280424  0  3.410835  0  0  -0.298047  0  3.427176  0  0  -0.240039  -0.268445  0  3.399534  0
N  N40  1  0.27913569  0.35502718  0.16858573  1  0  -0.335767  0  3.131545  0  0  -0.280248  0  3.41049  0  0  -0.297871  0  3.426832  0  0  -0.239932  -0.268269  0  3.399189  0
N  N41  1  0.15891923  0.33832038  0.76797054  1  0  -0.306022  0  3.102258  0  0  -0.255774  0  3.385024  0  0  -0.271853  0  3.400758  0  0  -0.228949  -0.244855  0  3.374166  0
N  N42  1  0.84108077  0.66168067  0.23202864  1  0  -0.306069  0  3.102288  0  0  -0.255841  0  3.385036  0  0  -0.271928  0  3.400784  0  0  -0.228959  -0.244924  0  3.374186  0
N  N43  1  0.29061767  0.41025713  0.86366120  1  0  -0.081303  0  3.160045  0  0  -0.036146  0  3.448104  0  0  -0.042075  0  3.463834  0  0  -0.101295  -0.031859  0  3.437198  0
N  N44  1  0.70938394  0.58974136  0.13633667  1  0  -0.081212  0  3.159973  0  0  -0.03605  0  3.448027  0  0  -0.041979  0  3.463755  0  0  -0.101304  -0.031762  0  3.437121  0
N  N45  1  0.26880778  0.30699401  0.93238724  1  0  -0.082288  0  3.139818  0  0  -0.049371  0  3.427367  0  0  -0.053324  0  3.443416  0  0  -0.097631  -0.046298  0  3.416169  0
N  N46  1  0.73119383  0.69300448  0.06761138  1  0  -0.082401  0  3.13977  0  0  -0.049494  0  3.427341  0  0  -0.053446  0  3.443387  0  0  -0.097656  -0.046421  0  3.416144  0
N  N47  1  0.12173383  0.16575459  0.88273782  1  0  -0.320293  0  3.106773  0  0  -0.270612  0  3.395992  0  0  -0.287272  0  3.412241  0  0  -0.22905  -0.25933  0  3.384818  0
N  N48  1  0.87827138  0.83424643  0.11726231  1  0  -0.320218  0  3.10665  0  0  -0.270557  0  3.39585  0  0  -0.287222  0  3.412105  0  0  -0.229048  -0.259273  0  3.384675  0
N  N49  1  0.32223396  0.72485444  0.73072217  1  0  -0.637519  0  2.773871  0  0  -0.589232  0  3.092992  0  0  -0.61796  0  3.099504  0  0  -0.353956  -0.569451  0  3.088257  0
N  N50  1  0.67776585  0.27514279  0.26927758  1  0  -0.63754  0  2.773909  0  0  -0.589233  0  3.093051  0  0  -0.617963  0  3.099564  0  0  -0.353956  -0.569452  0  3.088316  0
N  N51  1  0.31244960  0.86407325  0.72011894  1  0  0.400347  0  4.228334  0  0  0.429761  0  4.517477  0  0  0.445705  0  4.546677  0  0  0.081493  0.418994  0  4.497775  0
N  N52  1  0.68755070  0.13592526  0.27988171  1  0  0.400381  0  4.228423  0  0  0.429753  0  4.517615  0  0  0.445697  0  4.546813  0  0  0.081467  0.418985  0  4.497912  0
N  N53  1  0.30340220  0.99663716  0.70842099  1  0  -0.334236  0  2.398593  0  0  -0.337201  0  2.629497  0  0  -0.341559  0  2.639246  0  0  -0.167236  -0.334181  0  2.62319  0
N  N54  1  0.69659860  0.00336263  0.29158130  1  0  -0.33423  0  2.398652  0  0  -0.33717  0  2.62957  0  0  -0.341526  0  2.639318  0  0  -0.167196  -0.334148  0  2.623263  0
N  N55  1  0.69008670  0.00119105  0.92528983  1  0  -0.552963  0  2.68224  0  0  -0.510683  0  2.977031  0  0  -0.532982  0  2.983514  0  0  -0.295103  -0.495419  0  2.972676  0
N  N56  1  0.30991814  0.99880235  0.07470995  1  0  -0.552991  0  2.682019  0  0  -0.510768  0  2.976854  0  0  -0.533065  0  2.983332  0  0  -0.295121  -0.495503  0  2.972501  0
N  N57  1  0.65622572  0.12287605  0.95023670  1  0  0.431303  0  4.214405  0  0  0.460238  0  4.491269  0  0  0.477619  0  4.520728  0  0  0.0934  0.448501  0  4.471499  0
N  N58  1  0.34377651  0.87711736  0.04976260  1  0  0.431406  0  4.214244  0  0  0.460368  0  4.491088  0  0  0.477749  0  4.520545  0  0  0.093487  0.448631  0  4.471319  0
N  N59  1  0.62598169  0.24580852  0.97115751  1  0  -0.434988  0  2.578624  0  0  -0.427757  0  2.859983  0  0  -0.440703  0  2.866519  0  0  -0.234779  -0.418854  0  2.855755  0
N  N60  1  0.37402054  0.75418489  0.02884179  1  0  -0.435033  0  2.578632  0  0  -0.427813  0  2.859985  0  0  -0.440765  0  2.866533  0  0  -0.234836  -0.418909  0  2.855757  0
Cl  Cl61  1  0.89205249  0.66206966  0.50525506  1  0  -0.543794  0  0.979824  0  0  -0.474519  0  1.252777  0  0  -0.495065  0  1.232261  0  0  -0.287112  -0.459777  0  1.266594  0
Cl  Cl62  1  0.10794750  0.33793139  0.49474563  1  0  -0.543773  0  0.979824  0  0  -0.47451  0  1.252802  0  0  -0.495059  0  1.232286  0  0  -0.287099  -0.45977  0  1.266618  0
O  O63  1  0.73832690  0.24577526  0.61248796  1  0  -0.340557  0  2.290613  0  0  -0.257503  0  2.544867  0  0  -0.27523  0  2.545114  0  0  -0.237028  -0.245092  0  2.544327  0
O  O64  1  0.26167179  0.75422579  0.38751248  1  0  -0.340534  0  2.290691  0  0  -0.257487  0  2.544925  0  0  -0.275216  0  2.545176  0  0  -0.236995  -0.245075  0  2.544383  0
