# generated using pymatgen
data_CdH9C7N7O
_symmetry_space_group_name_H-M   'P 1'
_cell_length_a   3.70582504
_cell_length_b   16.59879122
_cell_length_c   16.62796188
_cell_angle_alpha   89.99975958
_cell_angle_beta   90.00016413
_cell_angle_gamma   89.99991448
_symmetry_Int_Tables_number   1
_chemical_formula_structural   CdH9C7N7O
_chemical_formula_sum   'Cd4 H36 C28 N28 O4'
_cell_volume   1022.82278397
_cell_formula_units_Z   4
loop_
 _symmetry_equiv_pos_site_id
 _symmetry_equiv_pos_as_xyz
  1  'x, y, z'
loop_
 _atom_site_type_symbol
 _atom_site_label
 _atom_site_symmetry_multiplicity
 _atom_site_fract_x
 _atom_site_fract_y
 _atom_site_fract_z
 _atom_site_occupancy
 _atom_site_pbe_bader_charge
 _atom_site_pbe_bader_spin_density
 _atom_site_pbe_cm5_charge
 _atom_site_pbe_ddec_charge
 _atom_site_pbe_ddec_spin_density
 _atom_site_pbe_ddec_sum_bond_order
 _atom_site_pbe_magmom
Cd  Cd0  1  0.48354195  0.94251589  0.08017104  1  1.241201  0  0.784941  0.898631  0  2.289712  0
Cd  Cd1  1  0.98354302  0.05748205  0.91982749  1  1.241222  0  0.784954  0.898629  0  2.289729  0
Cd  Cd2  1  0.48354261  0.44251973  0.41982828  1  1.241271  0  0.784958  0.898627  0  2.289737  0
Cd  Cd3  1  0.98354506  0.55748362  0.58017206  1  1.241202  0  0.784953  0.898599  0  2.289735  0
H  H4  1  0.88159693  0.04003784  0.43713212  1  0.093006  0  0.110017  0.126918  0  1.008232  0
H  H5  1  0.38159552  0.95996197  0.56286691  1  0.092858  0  0.110001  0.126915  0  1.008244  0
H  H6  1  0.88160158  0.54003889  0.06286872  1  0.093322  0  0.110028  0.126918  0  1.008262  0
H  H7  1  0.38159896  0.45996093  0.93713272  1  0.092968  0  0.110014  0.126919  0  1.008224  0
H  H8  1  0.97326651  0.89511625  0.48020058  1  0.126436  0  0.105977  0.102657  0  1.024625  0
H  H9  1  0.47326163  0.10488289  0.51979915  1  0.126365  0  0.105973  0.102641  0  1.024653  0
H  H10  1  0.97324634  0.39511815  0.01979825  1  0.126396  0  0.105938  0.102531  0  1.024568  0
H  H11  1  0.47324672  0.60488220  0.98020389  1  0.126336  0  0.105988  0.102659  0  1.024652  0
H  H12  1  0.76015851  0.78588928  0.38872286  1  0.131653  0  0.108388  0.122476  0  1.033331  0
H  H13  1  0.26016494  0.21411061  0.61127484  1  0.131513  0  0.108383  0.122445  0  1.033327  0
H  H14  1  0.76013339  0.28589080  0.11127380  1  0.131629  0  0.108404  0.122454  0  1.033336  0
H  H15  1  0.26014149  0.71410909  0.88872751  1  0.131597  0  0.108404  0.122466  0  1.033358  0
H  H16  1  0.58175511  0.80480018  0.18732763  1  0.046646  0  0.093541  0.126836  0  1.045764  0
H  H17  1  0.08175711  0.19519984  0.81266928  1  0.046711  0  0.093511  0.126788  0  1.045682  0
H  H18  1  0.58173906  0.30479965  0.31267057  1  0.046856  0  0.093535  0.126793  0  1.045731  0
H  H19  1  0.08175427  0.69520097  0.68732935  1  0.046749  0  0.093534  0.126808  0  1.045721  0
H  H20  1  0.14444368  0.81525041  0.22684576  1  0.083346  0  0.096421  0.139969  0  1.043125  0
H  H21  1  0.64444413  0.18475138  0.77315182  1  0.083372  0  0.096425  0.139982  0  1.043042  0
H  H22  1  0.14442744  0.31525065  0.27315375  1  0.083268  0  0.096398  0.139893  0  1.043169  0
H  H23  1  0.64444148  0.68475053  0.72684684  1  0.083341  0  0.096413  0.139961  0  1.043132  0
H  H24  1  0.44945007  0.74471134  0.27139512  1  0.065712  0  0.102203  0.156655  0  1.011601  0
H  H25  1  0.94945304  0.25528903  0.72860338  1  0.065657  0  0.102176  0.156602  0  1.011611  0
H  H26  1  0.44942822  0.24471056  0.22860440  1  0.065686  0  0.102203  0.156635  0  1.011611  0
H  H27  1  0.94944791  0.75528981  0.77139650  1  0.065674  0  0.102194  0.156629  0  1.011587  0
H  H28  1  0.24941888  0.09999574  0.29194911  1  0.092581  0  0.099609  0.149822  0  1.023978  0
H  H29  1  0.74942217  0.90000476  0.70805159  1  0.092598  0  0.099616  0.149828  0  1.023983  0
H  H30  1  0.24942424  0.59999739  0.20805082  1  0.092599  0  0.099636  0.149894  0  1.023947  0
H  H31  1  0.74942491  0.40000432  0.79194868  1  0.092614  0  0.099616  0.149856  0  1.023984  0
H  H32  1  0.66486741  0.10307243  0.24161483  1  0.071223  0  0.096052  0.134202  0  1.046747  0
H  H33  1  0.16487230  0.89692813  0.75838458  1  0.071204  0  0.096046  0.134195  0  1.046735  0
H  H34  1  0.66487031  0.60307146  0.25838672  1  0.071175  0  0.096045  0.134179  0  1.04674  0
H  H35  1  0.16488559  0.39692851  0.74161389  1  0.071189  0  0.096036  0.134156  0  1.046781  0
H  H36  1  0.64099984  0.13469441  0.34446740  1  0.064468  0  0.092831  0.138365  0  1.041881  0
H  H37  1  0.14100151  0.86530617  0.65553258  1  0.064459  0  0.092842  0.138378  0  1.041861  0
H  H38  1  0.64101034  0.63469386  0.15553339  1  0.064537  0  0.092835  0.138395  0  1.041849  0
H  H39  1  0.14101260  0.36530672  0.84446780  1  0.064496  0  0.092839  0.138357  0  1.04185  0
C  C40  1  0.61801702  0.00807439  0.32798277  1  0.364383  0  0.115493  0.214713  0  3.902409  0
C  C41  1  0.11801886  0.99192621  0.67201659  1  0.364404  0  0.11552  0.214757  0  3.902513  0
C  C42  1  0.61801951  0.50807498  0.17201732  1  0.364373  0  0.115491  0.214697  0  3.902471  0
C  C43  1  0.11802447  0.49192562  0.82798264  1  0.364448  0  0.115484  0.214659  0  3.902578  0
C  C44  1  0.79000621  0.98982338  0.40019228  1  0.076706  0  -0.088653  -0.186747  0  3.970275  0
C  C45  1  0.29000436  0.01017590  0.59980665  1  0.076873  0  -0.088665  -0.186802  0  3.970317  0
C  C46  1  0.79000262  0.48982374  0.09980716  1  0.07644  0  -0.088652  -0.186739  0  3.970303  0
C  C47  1  0.29000525  0.51017553  0.90019298  1  0.076327  0  -0.088651  -0.186735  0  3.970314  0
C  C48  1  0.84208371  0.91021571  0.42365056  1  -0.15965  0  -0.078967  -0.044183  0  4.030539  0
C  C49  1  0.34207910  0.08978353  0.57634783  1  -0.159609  0  -0.079014  -0.044246  0  4.030567  0
C  C50  1  0.84207461  0.41021616  0.07634867  1  -0.15959  0  -0.078946  -0.044066  0  4.030437  0
C  C51  1  0.34207471  0.58978367  0.92365392  1  -0.15923  0  -0.079025  -0.044276  0  4.030618  0
C  C52  1  0.72278760  0.84897766  0.37313150  1  0.048173  0  -0.083291  -0.169081  0  3.965819  0
C  C53  1  0.22278327  0.15102226  0.62686676  1  0.0483  0  -0.083246  -0.168944  0  3.965947  0
C  C54  1  0.72276525  0.34897851  0.12686726  1  0.048219  0  -0.083251  -0.169008  0  3.966155  0
C  C55  1  0.22277324  0.65102141  0.87313461  1  0.048247  0  -0.083267  -0.16899  0  3.966047  0
C  C56  1  0.55705105  0.86666711  0.30030646  1  0.362045  0  0.114015  0.204479  0  3.907973  0
C  C57  1  0.05704977  0.13333413  0.69969103  1  0.362276  0  0.114008  0.204365  0  3.908154  0
C  C58  1  0.55703446  0.36666645  0.19969146  1  0.362036  0  0.113984  0.20436  0  3.90814  0
C  C59  1  0.05704478  0.63333419  0.80030844  1  0.36209  0  0.114005  0.20437  0  3.908053  0
C  C60  1  0.42578188  0.80411452  0.24359182  1  -0.049482  0  -0.240823  -0.446758  0  3.94294  0
C  C61  1  0.92578225  0.19588646  0.75640606  1  -0.049484  0  -0.240773  -0.446633  0  3.942735  0
C  C62  1  0.42576286  0.30411423  0.25640683  1  -0.049608  0  -0.240775  -0.446536  0  3.942757  0
C  C63  1  0.92577698  0.69588735  0.74359225  1  -0.049544  0  -0.240799  -0.446663  0  3.942761  0
C  C64  1  0.54022054  0.09118715  0.30036522  1  -0.03843  0  -0.245897  -0.459076  0  3.967856  0
C  C65  1  0.04022246  0.90881290  0.69963526  1  -0.038456  0  -0.245895  -0.459064  0  3.967808  0
C  C66  1  0.54022316  0.59118823  0.19963625  1  -0.038503  0  -0.245923  -0.459156  0  3.967789  0
C  C67  1  0.04022524  0.40881242  0.80036484  1  -0.038457  0  -0.245873  -0.459015  0  3.967773  0
N  N68  1  0.97622029  0.85712038  0.06254575  1  -0.309793  0  -0.343671  -0.589761  0  3.083087  0
N  N69  1  0.47622286  0.14287816  0.93745338  1  -0.309928  0  -0.343626  -0.589661  0  3.083032  0
N  N70  1  0.97622374  0.35712475  0.43745505  1  -0.310122  0  -0.343642  -0.589696  0  3.083358  0
N  N71  1  0.47622751  0.64287921  0.56254588  1  -0.309836  0  -0.3436  -0.589638  0  3.083209  0
N  N72  1  0.97251798  0.78408675  0.06064428  1  -0.383295  0  0.086017  0.431578  0  4.48134  0
N  N73  1  0.47251791  0.21591119  0.93935544  1  -0.383297  0  0.085913  0.431425  0  4.481452  0
N  N74  1  0.97251874  0.28409473  0.43935561  1  -0.38335  0  0.085924  0.431465  0  4.481586  0
N  N75  1  0.47251985  0.71590983  0.56064351  1  -0.383285  0  0.085878  0.431407  0  4.48139  0
N  N76  1  0.96995443  0.71402683  0.05918003  1  0.008901  0  -0.167227  -0.342921  0  2.595413  0
N  N77  1  0.46996250  0.28597171  0.94082090  1  0.009004  0  -0.167181  -0.342859  0  2.595508  0
N  N78  1  0.96996059  0.21403059  0.44082016  1  0.009199  0  -0.167181  -0.342877  0  2.595314  0
N  N79  1  0.46995634  0.78597337  0.55917776  1  0.008944  0  -0.167167  -0.342856  0  2.595244  0
N  N80  1  0.48025731  0.96387771  0.93371637  1  -0.3745  0  -0.340639  -0.578175  0  3.130129  0
N  N81  1  0.98025962  0.03611902  0.06628095  1  -0.374719  0  -0.340631  -0.578189  0  3.130293  0
N  N82  1  0.48026165  0.46388303  0.56628274  1  -0.374775  0  -0.340653  -0.578256  0  3.130522  0
N  N83  1  0.98025798  0.53612032  0.43371759  1  -0.374587  0  -0.340628  -0.578122  0  3.130388  0
N  N84  1  0.50885002  0.90021712  0.89796109  1  -0.330338  0  0.090215  0.429072  0  4.446856  0
N  N85  1  0.00884581  0.09977874  0.10203575  1  -0.328847  0  0.090209  0.428964  0  4.446722  0
N  N86  1  0.50884645  0.40022470  0.60203652  1  -0.329287  0  0.09016  0.42897  0  4.446842  0
N  N87  1  0.00884939  0.59977838  0.39796272  1  -0.330301  0  0.090169  0.428918  0  4.446828  0
N  N88  1  0.53919404  0.83925671  0.86471302  1  0.04974  0  -0.14299  -0.306163  0  2.621532  0
N  N89  1  0.03919003  0.16074153  0.13528325  1  0.048476  0  -0.143016  -0.306068  0  2.621173  0
N  N90  1  0.53919063  0.33926054  0.63528668  1  0.048969  0  -0.142942  -0.305983  0  2.62106  0
N  N91  1  0.03919615  0.66074252  0.36471260  1  0.049821  0  -0.142981  -0.306062  0  2.621176  0
N  N92  1  0.50766122  0.94592896  0.27933797  1  -0.631815  0  -0.111163  0.21728  0  3.834729  0
N  N93  1  0.00766268  0.05407111  0.72066067  1  -0.632082  0  -0.111167  0.217295  0  3.83498  0
N  N94  1  0.50765552  0.44593003  0.22066136  1  -0.632065  0  -0.111135  0.217362  0  3.834839  0
N  N95  1  0.00766298  0.55407125  0.77933909  1  -0.631771  0  -0.111151  0.217384  0  3.834976  0
O  O96  1  0.33156532  0.96408410  0.21221476  1  -0.648926  0  -0.252397  -0.470774  0  2.102922  0
O  O97  1  0.83157113  0.03591695  0.78778361  1  -0.648864  0  -0.252377  -0.470758  0  2.103098  0
O  O98  1  0.33156264  0.46408368  0.28778431  1  -0.648696  0  -0.252424  -0.470836  0  2.103007  0
O  O99  1  0.83157111  0.53591677  0.71221707  1  -0.64901  0  -0.252386  -0.470809  0  2.103141  0
