# generated using pymatgen
data_Al3H25C42I6(N3O7)2
_symmetry_space_group_name_H-M   'P 1'
_cell_length_a   13.15512067
_cell_length_b   13.13808499
_cell_length_c   28.29284151
_cell_angle_alpha   89.86557938
_cell_angle_beta   89.92080848
_cell_angle_gamma   120.29135077
_symmetry_Int_Tables_number   1
_chemical_formula_structural   Al3H25C42I6(N3O7)2
_chemical_formula_sum   'Al6 H50 C84 I12 N12 O28'
_cell_volume   4222.29397647
_cell_formula_units_Z   2
loop_
 _symmetry_equiv_pos_site_id
 _symmetry_equiv_pos_as_xyz
  1  'x, y, z'
loop_
 _atom_site_type_symbol
 _atom_site_label
 _atom_site_symmetry_multiplicity
 _atom_site_fract_x
 _atom_site_fract_y
 _atom_site_fract_z
 _atom_site_occupancy
 _atom_site_pbe_bader_charge
 _atom_site_pbe_bader_spin_density
 _atom_site_pbe_cm5_charge
 _atom_site_pbe_ddec_charge
 _atom_site_pbe_ddec_spin_density
 _atom_site_pbe_ddec_sum_bond_order
 _atom_site_pbe_magmom
Al  Al0  1  0.52254503  0.77021189  0.25242212  1  2.48684  0  0.398687  1.683071  0  2.547674  0
Al  Al1  1  0.27720858  0.52704782  0.25211918  1  2.478576  0  0.500616  1.657936  0  2.520417  0
Al  Al2  1  0.26929594  0.75060552  0.25263688  1  2.479799  0  0.504092  1.660599  0  2.512198  0
Al  Al3  1  0.77799962  0.52098794  0.74788624  1  2.493979  0  0.399324  1.683961  0  2.548371  0
Al  Al4  1  0.52929533  0.28071846  0.74930798  1  2.479027  0  0.50182  1.659794  0  2.51845  0
Al  Al5  1  0.74729026  0.26315230  0.74999455  1  2.480202  0  0.505344  1.658558  0  2.5127  0
H  H6  1  0.90500593  0.31624553  0.40391590  1  0.424945  0  0.305056  0.251549  0  0.950415  0
H  H7  1  0.79849974  0.78869350  0.43660166  1  0.038549  0  0.087937  0.095621  0  1.009767  0
H  H8  1  0.88432362  0.71816254  0.43244866  1  0.053559  0  0.094347  0.103573  0  1.012578  0
H  H9  1  0.83121529  0.73417917  0.48844517  1  0.098122  0  0.106017  0.120629  0  1.023663  0
H  H10  1  0.15539838  0.44141749  0.08146079  1  0.428789  0  0.300063  0.246836  0  0.963553  0
H  H11  1  0.02480440  0.23282426  0.05279129  1  0.027307  0  0.082692  0.0882  0  1.019534  0
H  H12  1  0.17837470  0.28276836  0.05965085  1  0.063286  0  0.089313  0.100988  0  1.039115  0
H  H13  1  0.11881995  0.27756977  0.00255492  1  0.076776  0  0.101362  0.114994  0  1.021688  0
H  H14  1  0.40407504  0.09266869  0.41350234  1  0.426539  0  0.301911  0.248916  0  0.956335  0
H  H15  1  0.20253514  0.01785675  0.44204213  1  0.026138  0  0.084671  0.091659  0  1.019376  0
H  H16  1  0.28146124  0.17514473  0.43725156  1  0.04741  0  0.094528  0.104423  0  1.010914  0
H  H17  1  0.97982492  0.18822928  0.42936424  1  0.041491  0  0.087654  0.095656  0  1.011497  0
H  H18  1  0.26310123  0.10517237  0.49331623  1  0.082373  0  0.107165  0.123658  0  1.02108  0
H  H19  1  0.55737114  0.70333051  0.07916847  1  0.429835  0  0.300105  0.248952  0  0.961831  0
H  H20  1  0.76402045  0.78357312  0.04920213  1  0.023186  0  0.080974  0.086728  0  1.027426  0
H  H21  1  0.71460647  0.88735504  0.05601621  1  0.053942  0  0.088708  0.100555  0  1.039242  0
H  H22  1  0.71841919  0.83164144  0.99904798  1  0.068432  0  0.100544  0.114086  0  1.0234  0
H  H23  1  0.32071801  0.91547931  0.90229301  1  0.430775  0  0.3  0.245706  0  0.958901  0
H  H24  1  0.13469897  0.74032430  0.91662521  1  0.079843  0  0.10226  0.117836  0  0.986161  0
H  H25  1  0.18368031  0.73107307  0.97442597  1  0.075708  0  0.100737  0.111116  0  1.0503  0
H  H26  1  0.24985655  0.70723513  0.92406664  1  0.018652  0  0.087663  0.087597  0  1.012851  0
H  H27  1  0.88559144  0.27026758  0.57608671  1  0.44276  0  0.301728  0.249571  0  0.956833  0
H  H28  1  0.82265265  0.10874358  0.42632234  1  0.066943  0  0.101289  0.113424  0  0.991889  0
H  H29  1  0.70996167  0.10833382  0.54508861  1  0.068029  0  0.093488  0.108555  0  1.030415  0
H  H30  1  0.73175401  0.18778526  0.49140869  1  0.050663  0  0.101945  0.114956  0  1.020809  0
H  H31  1  0.69756285  0.23765198  0.54419627  1  0.018994  0  0.086909  0.088003  0  1.01237  0
H  H32  1  0.59437929  0.67528779  0.90822228  1  0.421241  0  0.29935  0.246207  0  0.960396  0
H  H33  1  0.59960619  0.85706241  0.92346278  1  0.07236  0  0.098459  0.112626  0  0.99742  0
H  H34  1  0.53861616  0.80361407  0.98070245  1  0.089486  0  0.100728  0.111306  0  1.047228  0
H  H35  1  0.45145677  0.73827009  0.92963236  1  0.037703  0  0.085973  0.085096  0  1.017334  0
H  H36  1  0.39104745  0.11264828  0.58612330  1  0.427357  0  0.304052  0.253024  0  0.95162  0
H  H37  1  0.39985059  0.28598979  0.55475752  1  0.057522  0  0.094286  0.10975  0  1.029243  0
H  H38  1  0.45693308  0.26528835  0.50079355  1  0.037963  0  0.101571  0.11456  0  1.025996  0
H  H39  1  0.89546467  0.15918949  0.48190429  1  0.108228  0  0.107349  0.122962  0  1.025622  0
H  H40  1  0.54271870  0.30175459  0.55320785  1  0.012251  0  0.087862  0.089503  0  1.01148  0
H  H41  1  0.08073844  0.39734069  0.91130819  1  0.434961  0  0.297996  0.244332  0  0.963815  0
H  H42  1  0.25930928  0.39627658  0.92469852  1  0.055027  0  0.099749  0.114955  0  0.995109  0
H  H43  1  0.26936986  0.45672578  0.98204557  1  0.099357  0  0.100087  0.109918  0  1.05038  0
H  H44  1  0.28793674  0.54373326  0.93105828  1  0.000665  0  0.087006  0.086614  0  1.01642  0
H  H45  1  0.71466583  0.60683297  0.58250192  1  0.458534  0  0.305562  0.25689  0  0.947768  0
H  H46  1  0.88036357  0.60045332  0.55356383  1  0.030769  0  0.094921  0.11056  0  1.025233  0
H  H47  1  0.80830043  0.54594758  0.49830445  1  0.092561  0  0.100489  0.112956  0  1.027248  0
H  H48  1  0.75454813  0.45605426  0.54979919  1  0.035854  0  0.086589  0.08725  0  1.013192  0
H  H49  1  0.27715787  0.84771237  0.07314340  1  0.451036  0  0.299613  0.246962  0  0.961792  0
H  H50  1  0.20616753  0.97983701  0.04121713  1  0.029537  0  0.07912  0.084098  0  1.036787  0
H  H51  1  0.09791791  0.82666917  0.04762524  1  0.068863  0  0.086966  0.098679  0  1.044277  0
H  H52  1  0.15941607  0.88616946  0.99108609  1  0.087978  0  0.100449  0.114205  0  1.022431  0
H  H53  1  0.67981243  0.58505271  0.40981688  1  0.428501  0  0.303501  0.251006  0  0.951921  0
H  H54  1  0.71370430  0.89804817  0.22497946  1  0.612087  0  0.292382  0.382482  0  0.924401  0
H  H55  1  0.87977306  0.71455357  0.77625806  1  0.585122  0  0.293464  0.384223  0  0.921078  0
C  C56  1  0.44663466  0.56074300  0.31721397  1  1.658484  0  0.276959  0.705849  0  4.166447  0
C  C57  1  0.57661510  0.45971496  0.68397026  1  1.660823  0  0.273734  0.702901  0  4.178109  0
C  C58  1  0.56124258  0.12519693  0.81267305  1  1.660097  0  0.281166  0.722269  0  4.145921  0
C  C59  1  0.89311958  0.42162838  0.68325846  1  1.638476  0  0.276453  0.701607  0  4.168259  0
C  C60  1  0.06039044  0.52505567  0.35781954  1  0.244789  0  -0.046001  -0.216247  0  3.92146  0
C  C61  1  0.44955848  0.92975034  0.13634410  1  0.154363  0  -0.034392  -0.189773  0  3.913732  0
C  C62  1  0.47605779  0.53044987  0.36182962  1  0.217987  0  -0.040916  -0.200106  0  3.920173  0
C  C63  1  0.07990021  0.53708968  0.14177526  1  0.247388  0  -0.038287  -0.205174  0  3.926397  0
C  C64  1  0.45666256  0.94345496  0.36478504  1  0.002013  0  -0.039767  -0.197973  0  3.910451  0
C  C65  1  0.46645376  0.53418379  0.13924324  1  -0.146983  0  -0.035368  -0.190437  0  3.925085  0
C  C66  1  0.52567745  0.06270871  0.85670821  1  0.24185  0  -0.043467  -0.212724  0  3.905842  0
C  C67  1  0.13448097  0.56232712  0.18714927  1  1.646679  0  0.276037  0.712474  0  4.164738  0
C  C68  1  0.94888773  0.44281952  0.63771362  1  0.214818  0  -0.033842  -0.188467  0  3.897834  0
C  C69  1  0.53773265  0.47677080  0.86025619  1  0.259866  0  -0.039515  -0.196774  0  3.907627  0
C  C70  1  0.51336204  0.05991867  0.64376550  1  0.03695  0  -0.04048  -0.206138  0  3.915513  0
C  C71  1  0.93944506  0.45193477  0.86337091  1  0.130867  0  -0.038227  -0.196506  0  3.895049  0
C  C72  1  0.54190233  0.49127148  0.64097406  1  0.083195  0  -0.036068  -0.19149  0  3.913682  0
C  C73  1  0.95027410  0.38505665  0.46864318  1  0.433825  0  0.105936  0.117229  0  4.003096  0
C  C74  1  0.37881532  0.92280871  0.01657425  1  0.433093  0  0.105896  0.116864  0  3.970402  0
C  C75  1  0.60724583  0.56017615  0.47392974  1  0.457402  0  0.103897  0.115103  0  3.99835  0
C  C76  1  0.07624990  0.45903063  0.02441805  1  0.438923  0  0.107721  0.122557  0  3.967075  0
C  C77  1  0.42903148  0.04504629  0.47753603  1  0.408593  0  0.103593  0.112936  0  3.997838  0
C  C78  1  0.43766874  0.88940734  0.31903503  1  1.661097  0  0.275625  0.708552  0  4.159459  0
C  C79  1  0.53674439  0.60732777  0.02160722  1  0.502925  0  0.105768  0.117709  0  3.970253  0
C  C80  1  0.39161290  0.93803497  0.96657862  1  0.452741  0  0.103418  0.114289  0  3.987989  0
C  C81  1  0.94040754  0.37354413  0.51886443  1  0.45677  0  0.103967  0.112153  0  3.983689  0
C  C82  1  0.54266766  0.59895104  0.97161973  1  0.426912  0  0.10298  0.111515  0  3.990666  0
C  C83  1  0.43171611  0.05539994  0.52778184  1  0.468578  0  0.106502  0.116586  0  3.982471  0
C  C84  1  0.05900309  0.45064079  0.97454835  1  0.494902  0  0.10275  0.110486  0  3.989759  0
C  C85  1  0.61595720  0.56132444  0.52420765  1  0.485208  0  0.105913  0.115588  0  3.981857  0
C  C86  1  0.07195020  0.59028580  0.52691597  1  -0.150107  0  -0.065318  -0.046397  0  3.960372  0
C  C87  1  0.60787309  0.06786337  0.97691008  1  -0.155324  0  -0.063148  -0.041678  0  3.956604  0
C  C88  1  0.39959215  0.48037186  0.53049305  1  -0.191759  0  -0.067006  -0.046495  0  3.970276  0
C  C89  1  0.44801233  0.56829728  0.18505663  1  1.665017  0  0.271405  0.704285  0  4.176674  0
C  C90  1  0.92548614  0.53229327  0.98286385  1  -0.163643  0  -0.064382  -0.043606  0  3.952723  0
C  C91  1  0.50861243  0.91724520  0.53387268  1  -0.165382  0  -0.066937  -0.046961  0  3.971822  0
C  C92  1  0.45794883  0.38214048  0.97955981  1  -0.185977  0  -0.064953  -0.045281  0  3.961048  0
C  C93  1  0.59599518  0.04785366  0.02532671  1  -0.126198  0  -0.061499  -0.03346  0  3.930473  0
C  C94  1  0.07351353  0.60267347  0.47822205  1  -0.240759  0  -0.061963  -0.035323  0  3.948755  0
C  C95  1  0.44735502  0.38962886  0.02805281  1  -0.190672  0  -0.062109  -0.035533  0  3.941594  0
C  C96  1  0.51309920  0.91317939  0.48497726  1  -0.169604  0  -0.063618  -0.041474  0  3.950515  0
C  C97  1  0.94792691  0.54720323  0.03103209  1  -0.208601  0  -0.061361  -0.033968  0  3.937644  0
C  C98  1  0.38991951  0.47009338  0.48177670  1  -0.169981  0  -0.064459  -0.040724  0  3.957117  0
C  C99  1  0.01533843  0.50064717  0.44899586  1  0.20349  0  -0.02677  -0.022191  0  4.128721  0
C  C100  1  0.12550515  0.56242704  0.31461356  1  1.656414  0  0.278665  0.720126  0  4.148827  0
C  C101  1  0.48196199  0.97489755  0.04517675  1  0.104886  0  -0.016094  0.001765  0  4.107499  0
C  C102  1  0.49326752  0.51089340  0.45348322  1  0.179272  0  -0.026857  -0.016624  0  4.133513  0
C  C103  1  0.02403533  0.51200497  0.05177644  1  0.175227  0  -0.018653  -0.006702  0  4.112758  0
C  C104  1  0.47370816  0.97680823  0.45680478  1  0.130569  0  -0.023713  -0.01064  0  4.12341  0
C  C105  1  0.48505523  0.50140859  0.04896050  1  0.127615  0  -0.017827  -0.000498  0  4.118223  0
C  C106  1  0.50613308  0.01333101  0.94759662  1  0.162309  0  -0.023315  -0.017839  0  4.129107  0
C  C107  1  0.00230949  0.47600508  0.54728600  1  0.126607  0  -0.018712  -0.004547  0  4.121429  0
C  C108  1  0.50542230  0.48636957  0.95146342  1  0.196574  0  -0.023067  -0.010431  0  4.133141  0
C  C109  1  0.47266571  0.99213329  0.55524297  1  0.114603  0  -0.022464  -0.01612  0  4.128279  0
C  C110  1  0.98178225  0.48529545  0.95461158  1  0.117212  0  -0.021396  -0.009297  0  4.12622  0
C  C111  1  0.43040152  0.88618959  0.18406908  1  1.648993  0  0.271755  0.707253  0  4.168478  0
C  C112  1  0.51170216  0.52172034  0.55169031  1  0.12605  0  -0.021622  -0.009505  0  4.132178  0
C  C113  1  0.98052554  0.46231240  0.59640334  1  -0.474553  0  -0.02677  -0.015025  0  4.147265  0
C  C114  1  0.51777265  0.03731204  0.89871422  1  -0.565461  0  -0.021011  0.001599  0  4.147104  0
C  C115  1  0.52184414  0.50886411  0.60055565  1  -0.416875  0  -0.028407  -0.019  0  4.164002  0
C  C116  1  0.96021486  0.47056935  0.90557777  1  -0.430657  0  -0.030994  -0.019605  0  4.1599  0
C  C117  1  0.49168273  0.01993987  0.60367084  1  -0.316849  0  -0.018257  0.003806  0  4.13636  0
C  C118  1  0.51916414  0.47975334  0.90240876  1  -0.582401  0  -0.031654  -0.020425  0  4.166988  0
C  C119  1  0.46749519  0.95396189  0.09429944  1  -0.426336  0  -0.028632  -0.018055  0  4.149505  0
C  C120  1  0.03514064  0.51288846  0.39991580  1  -0.571886  0  -0.024033  -0.00232  0  4.156855  0
C  C121  1  0.47418529  0.51253656  0.09788132  1  -0.177828  0  -0.028587  -0.019999  0  4.159781  0
C  C122  1  0.56720515  0.44981678  0.81486438  1  1.682709  0  0.272708  0.708837  0  4.163872  0
C  C123  1  0.46698019  0.96209310  0.40734414  1  -0.312617  0  -0.033529  -0.025135  0  4.169639  0
C  C124  1  0.04924002  0.52619172  0.10043542  1  -0.563945  0  -0.019328  0.001992  0  4.139144  0
C  C125  1  0.48466901  0.51765856  0.40415665  1  -0.549939  0  -0.032751  -0.020761  0  4.171365  0
C  C126  1  0.89881672  0.18055903  0.44435469  1  0.224601  0  -0.141114  -0.222511  0  3.930809  0
C  C127  1  0.17840303  0.88995229  0.02891123  1  0.227654  0  -0.148014  -0.215193  0  3.924062  0
C  C128  1  0.81035252  0.71717514  0.45084993  1  0.249811  0  -0.143264  -0.220443  0  3.93348  0
C  C129  1  0.11425949  0.29601730  0.03997311  1  0.241198  0  -0.145685  -0.214121  0  3.922685  0
C  C130  1  0.27797344  0.09977360  0.45560548  1  0.280638  0  -0.143554  -0.219294  0  3.933346  0
C  C131  1  0.70078473  0.80929871  0.03661128  1  0.267562  0  -0.147186  -0.216378  0  3.927865  0
C  C132  1  0.21180298  0.75929939  0.93795991  1  0.268302  0  -0.143736  -0.221992  0  3.941256  0
C  C133  1  0.55071536  0.12696085  0.68633590  1  1.633986  0  0.275835  0.714788  0  4.159694  0
C  C134  1  0.74596750  0.19633686  0.52966955  1  0.277871  0  -0.146919  -0.220013  0  3.934971  0
C  C135  1  0.54134918  0.77798907  0.94414661  1  0.218974  0  -0.145095  -0.221847  0  3.947721  0
C  C136  1  0.45243606  0.25150531  0.53908937  1  0.303668  0  -0.145525  -0.221503  0  3.937192  0
C  C137  1  0.23890159  0.45359644  0.94581648  1  0.275116  0  -0.145325  -0.222331  0  3.943284  0
C  C138  1  0.79486799  0.54734881  0.53644071  1  0.272669  0  -0.145371  -0.218849  0  3.93635  0
C  C139  1  0.88754428  0.43193091  0.81709894  1  1.663534  0  0.274217  0.712049  0  4.158046  0
I  I140  1  0.16206518  0.73311958  0.57277619  1  0.164905  0  0.103621  0.018639  0  1.600528  0
I  I141  1  0.56855540  0.80999362  0.44978935  1  0.181774  0  0.129444  0.044763  0  1.735525  0
I  I142  1  0.86408986  0.60851708  0.07634170  1  0.151582  0  0.109768  0.01379  0  1.568094  0
I  I143  1  0.22889917  0.40612332  0.44711135  1  0.161386  0  0.119866  0.026623  0  1.748572  0
I  I144  1  0.77052233  0.17507508  0.94413857  1  0.171104  0  0.108148  0.020602  0  1.693181  0
I  I145  1  0.25545735  0.43124596  0.57547747  1  0.154296  0  0.091447  0.000971  0  1.621578  0
I  I146  1  0.81210915  0.57705011  0.94904723  1  0.172489  0  0.109234  0.0251  0  1.677439  0
I  I147  1  0.55923330  0.82348556  0.57862095  1  0.159478  0  0.095227  0.006297  0  1.606207  0
I  I148  1  0.40364021  0.22209867  0.94518978  1  0.161957  0  0.105532  0.018616  0  1.679929  0
I  I149  1  0.73911269  0.13170454  0.07176556  1  0.147979  0  0.106679  0.011769  0  1.566667  0
I  I150  1  0.16611201  0.76646618  0.44455040  1  0.166666  0  0.126455  0.033656  0  1.747911  0
I  I151  1  0.38925455  0.24381835  0.07336574  1  0.145461  0  0.10757  0.010954  0  1.583152  0
N  N152  1  0.89674144  0.29026503  0.43835859  1  -1.151128  0  -0.438018  -0.264399  0  3.53429  0
N  N153  1  0.39680144  0.12597131  0.55048879  1  -1.138605  0  -0.448637  -0.283896  0  3.529383  0
N  N154  1  0.11162767  0.40650069  0.94499467  1  -1.171538  0  -0.44753  -0.280391  0  3.531202  0
N  N155  1  0.72216278  0.59965254  0.54695587  1  -1.181774  0  -0.445653  -0.280991  0  3.521544  0
N  N156  1  0.26910496  0.85839993  0.03788274  1  -1.167537  0  -0.446514  -0.281991  0  3.503703  0
N  N157  1  0.70413282  0.60168945  0.44442564  1  -1.168811  0  -0.441249  -0.271598  0  3.519115  0
N  N158  1  0.14303660  0.41853020  0.04664235  1  -1.141189  0  -0.444581  -0.279395  0  3.506462  0
N  N159  1  0.38930526  0.10191512  0.44819110  1  -1.129934  0  -0.442118  -0.271015  0  3.527569  0
N  N160  1  0.57850601  0.71484375  0.04409584  1  -1.148938  0  -0.445497  -0.279824  0  3.500242  0
N  N161  1  0.29655333  0.88599731  0.93610656  1  -1.20362  0  -0.445243  -0.277135  0  3.530482  0
N  N162  1  0.87172651  0.26489620  0.54050346  1  -1.164733  0  -0.450486  -0.287521  0  3.522876  0
N  N163  1  0.58648433  0.69655894  0.94213699  1  -1.154939  0  -0.447477  -0.280658  0  3.529338  0
O  O164  1  0.51015962  0.85860156  0.30620895  1  -1.205045  0  -0.203548  -0.54316  0  2.289524  0
O  O165  1  0.88136378  0.50271003  0.70139690  1  -1.204915  0  -0.199498  -0.529411  0  2.262804  0
O  O166  1  0.49189046  0.34620538  0.79922086  1  -1.258233  0  -0.240626  -0.600792  0  2.23947  0
O  O167  1  0.64467196  0.14294707  0.70637175  1  -1.238972  0  -0.22656  -0.586661  0  2.249588  0
O  O168  1  0.52131160  0.65622947  0.29766733  1  -1.216553  0  -0.20442  -0.538631  0  2.270677  0
O  O169  1  0.17154965  0.49380740  0.20130395  1  -1.243701  0  -0.232965  -0.594207  0  2.245472  0
O  O170  1  0.34575262  0.87260161  0.29585964  1  -1.256947  0  -0.247341  -0.612631  0  2.225347  0
O  O171  1  0.51580920  0.67447124  0.19679665  1  -1.218319  0  -0.213969  -0.563015  0  2.2913  0
O  O172  1  0.14976429  0.49090633  0.29360042  1  -1.247286  0  -0.229931  -0.593963  0  2.24948  0
O  O173  1  0.32811482  0.85504191  0.20188605  1  -1.251911  0  -0.244547  -0.60552  0  2.227971  0
O  O174  1  0.66280828  0.52354523  0.79529853  1  -1.228161  0  -0.214347  -0.565302  0  2.269005  0
O  O175  1  0.36106223  0.48908890  0.20963916  1  -1.258327  0  -0.244882  -0.605494  0  2.232303  0
O  O176  1  0.48800293  0.17131698  0.70013465  1  -1.246225  0  -0.233237  -0.597498  0  2.242607  0
O  O177  1  0.86789842  0.33826947  0.79476414  1  -1.255187  0  -0.244305  -0.606027  0  2.22606  0
O  O178  1  0.68449925  0.52075873  0.69464620  1  -1.218418  0  -0.207657  -0.546274  0  2.286183  0
O  O179  1  0.49190751  0.15297972  0.79232842  1  -1.248045  0  -0.227371  -0.589131  0  2.248087  0
O  O180  1  0.85496644  0.31728063  0.70089340  1  -1.251852  0  -0.245464  -0.608924  0  2.225702  0
O  O181  1  0.35518803  0.68240494  0.25214322  1  -1.608784  0  -0.390789  -1.271385  0  2.302309  0
O  O182  1  0.68420245  0.35370113  0.74940926  1  -1.611677  0  -0.390975  -1.273018  0  2.302431  0
O  O183  1  0.16020841  0.66855184  0.30139932  1  -1.243238  0  -0.228437  -0.591696  0  2.255133  0
O  O184  1  0.51160219  0.87753042  0.20400315  1  -1.216544  0  -0.213778  -0.564259  0  2.27489  0
O  O185  1  0.34175676  0.48804498  0.30215895  1  -1.254962  0  -0.241384  -0.604677  0  2.244618  0
O  O186  1  0.14740283  0.65292302  0.20923911  1  -1.245251  0  -0.228207  -0.586238  0  2.250508  0
O  O187  1  0.86152183  0.50739466  0.80315035  1  -1.211859  0  -0.209185  -0.562377  0  2.308566  0
O  O188  1  0.49690978  0.36977156  0.70698244  1  -1.255723  0  -0.242101  -0.604761  0  2.238587  0
O  O189  1  0.66491662  0.15374030  0.79828586  1  -1.247034  0  -0.227281  -0.588092  0  2.252856  0
O  O190  1  0.67658014  0.85113787  0.25287489  1  -1.392017  0  -0.574986  -0.989581  0  1.793471  0
O  O191  1  0.86557439  0.67471269  0.74623379  1  -1.365987  0  -0.573257  -0.989376  0  1.793418  0
