# generated using pymatgen
data_CuH7C12(N3O)2
_symmetry_space_group_name_H-M   'P 1'
_cell_length_a   5.30020411
_cell_length_b   8.40859638
_cell_length_c   15.51505513
_cell_angle_alpha   89.99961901
_cell_angle_beta   89.99975435
_cell_angle_gamma   105.21866047
_symmetry_Int_Tables_number   1
_chemical_formula_structural   CuH7C12(N3O)2
_chemical_formula_sum   'Cu2 H14 C24 N12 O4'
_cell_volume   667.21485424
_cell_formula_units_Z   2
loop_
 _symmetry_equiv_pos_site_id
 _symmetry_equiv_pos_as_xyz
  1  'x, y, z'
loop_
 _atom_site_type_symbol
 _atom_site_label
 _atom_site_symmetry_multiplicity
 _atom_site_fract_x
 _atom_site_fract_y
 _atom_site_fract_z
 _atom_site_occupancy
 _atom_site_hle17_bader_spin_density
 _atom_site_hle17_ddec_charge
 _atom_site_hle17_ddec_spin_density
 _atom_site_hle17_ddec_sum_bond_order
 _atom_site_hle17_magmom
 _atom_site_hse06_10hf_bader_spin_density
 _atom_site_hse06_10hf_ddec_charge
 _atom_site_hse06_10hf_ddec_spin_density
 _atom_site_hse06_10hf_ddec_sum_bond_order
 _atom_site_hse06_10hf_magmom
 _atom_site_hse06_bader_spin_density
 _atom_site_hse06_ddec_charge
 _atom_site_hse06_ddec_spin_density
 _atom_site_hse06_ddec_sum_bond_order
 _atom_site_hse06_magmom
 _atom_site_pbe_bader_spin_density
 _atom_site_pbe_cm5_charge
 _atom_site_pbe_ddec_charge
 _atom_site_pbe_ddec_spin_density
 _atom_site_pbe_ddec_sum_bond_order
 _atom_site_pbe_magmom
Cu  Cu0  1  0.61976663  0.92421395  0.42234572  1  0  0.682777  0  2.218521  0  0  0.599573  0  2.76508  0  0  0.578196  0  2.728699  0  0  0.683631  0.618928  0  2.784991  0
Cu  Cu1  1  0.38024334  0.07579030  0.92234436  1  0  0.682644  0  2.21858  0  0  0.599419  0  2.765173  0  0  0.57806  0  2.72883  0  0  0.683555  0.618769  0  2.785069  0
H  H2  1  0.51457085  0.24767027  0.50647885  1  0  0.162481  0  0.93124  0  0  0.176764  0  0.995734  0  0  0.179728  0  0.992712  0  0  0.115994  0.174647  0  0.997889  0
H  H3  1  0.48542577  0.75233919  0.00647974  1  0  0.162579  0  0.931146  0  0  0.176806  0  0.995715  0  0  0.17977  0  0.992693  0  0  0.115997  0.174689  0  0.997868  0
H  H4  1  0.36852197  0.41617225  0.49618671  1  0  0.159518  0  0.926491  0  0  0.175896  0  0.987112  0  0  0.177318  0  0.986881  0  0  0.114721  0.174882  0  0.987282  0
H  H5  1  0.63147442  0.58383334  0.99618960  1  0  0.159488  0  0.926469  0  0  0.175895  0  0.987061  0  0  0.177318  0  0.986828  0  0  0.114718  0.174882  0  0.987232  0
H  H6  1  0.48633006  0.33158021  0.40233020  1  0  0.157888  0  0.945518  0  0  0.176337  0  1.002811  0  0  0.177509  0  1.00306  0  0  0.113306  0.175476  0  1.002704  0
H  H7  1  0.51367395  0.66843175  0.90232973  1  0  0.157855  0  0.945565  0  0  0.176313  0  1.002859  0  0  0.177484  0  1.003109  0  0  0.113269  0.175453  0  1.002754  0
H  H8  1  0.04818037  0.54675420  0.27288167  1  0  0.153214  0  0.933204  0  0  0.168819  0  0.993295  0  0  0.169834  0  0.993341  0  0  0.113909  0.168119  0  0.993241  0
H  H9  1  0.95181152  0.45324745  0.77288134  1  0  0.153238  0  0.93314  0  0  0.16879  0  0.993286  0  0  0.169804  0  0.993332  0  0  0.113906  0.168092  0  0.993228  0
H  H10  1  0.98402237  0.42607992  0.36880546  1  0  0.159237  0  0.924254  0  0  0.181414  0  0.97427  0  0  0.182323  0  0.974833  0  0  0.11939  0.180754  0  0.97391  0
H  H11  1  0.01596770  0.57392025  0.86880541  1  0  0.159229  0  0.924237  0  0  0.181417  0  0.97423  0  0  0.182328  0  0.974788  0  0  0.1194  0.180755  0  0.973873  0
H  H12  1  0.25658711  0.60624201  0.36502546  1  0  0.153526  0  0.935337  0  0  0.16826  0  1.001122  0  0  0.171022  0  0.998973  0  0  0.113661  0.166264  0  1.002645  0
H  H13  1  0.74340422  0.39375206  0.86502758  1  0  0.153415  0  0.935441  0  0  0.168159  0  1.001217  0  0  0.170919  0  0.99907  0  0  0.113604  0.166166  0  1.002729  0
H  H14  1  0.48273917  0.59192927  0.15812628  1  0  0.341197  0  0.902143  0  0  0.31578  0  0.974458  0  0  0.326246  0  0.964646  0  0  0.311834  0.308433  0  0.981374  0
H  H15  1  0.51725181  0.40806675  0.65812610  1  0  0.341191  0  0.90215  0  0  0.315822  0  0.974401  0  0  0.326291  0  0.964582  0  0  0.311852  0.308474  0  0.981323  0
C  C16  1  0.13190695  0.43580129  0.09993753  1  0  0.56658  0  3.85967  0  0  0.518107  0  4.153176  0  0  0.54701  0  4.154542  0  0  0.238191  0.498565  0  4.151961  0
C  C17  1  0.86809165  0.56419317  0.59993886  1  0  0.566459  0  3.859475  0  0  0.518002  0  4.153008  0  0  0.54691  0  4.154373  0  0  0.238131  0.498466  0  4.151791  0
C  C18  1  0.00926031  0.25884489  0.11302910  1  0  -0.246275  0  3.900652  0  0  -0.238297  0  4.162131  0  0  -0.253397  0  4.17982  0  0  -0.043947  -0.228616  0  4.150363  0
C  C19  1  0.99074215  0.74114566  0.61303089  1  0  -0.246131  0  3.900605  0  0  -0.238156  0  4.162089  0  0  -0.253283  0  4.179801  0  0  -0.043887  -0.228506  0  4.150324  0
C  C20  1  0.15404539  0.19781986  0.17384229  1  0  -0.002057  0  3.765473  0  0  -0.012873  0  4.015111  0  0  -0.002636  0  4.029592  0  0  0.017287  -0.01925  0  4.005126  0
C  C21  1  0.84595369  0.80217345  0.67384021  1  0  -0.002116  0  3.765579  0  0  -0.012927  0  4.015126  0  0  -0.002688  0  4.029611  0  0  0.017227  -0.019302  0  4.005151  0
C  C22  1  0.37775604  0.34199218  0.20052756  1  0  0.561845  0  3.806142  0  0  0.519949  0  4.091975  0  0  0.547871  0  4.088524  0  0  0.254756  0.500734  0  4.094108  0
C  C23  1  0.62224305  0.65800195  0.70052762  1  0  0.561801  0  3.806163  0  0  0.519975  0  4.091884  0  0  0.547899  0  4.088432  0  0  0.254833  0.500759  0  4.09402  0
C  C24  1  0.78893265  0.18064771  0.06586093  1  0  0.357877  0  3.808481  0  0  0.338364  0  4.078612  0  0  0.351446  0  4.09442  0  0  0.192548  0.329819  0  4.068266  0
C  C25  1  0.21107226  0.81934727  0.56586230  1  0  0.357936  0  3.808292  0  0  0.33842  0  4.078428  0  0  0.351509  0  4.094235  0  0  0.192623  0.329893  0  4.068065  0
C  C26  1  0.91377806  0.90526675  0.18555618  1  0  0.310181  0  3.773123  0  0  0.294169  0  4.040459  0  0  0.307676  0  4.057891  0  0  0.198504  0.284998  0  4.029074  0
C  C27  1  0.08621858  0.09473008  0.68555131  1  0  0.310302  0  3.773278  0  0  0.29427  0  4.040594  0  0  0.307782  0  4.058023  0  0  0.198515  0.285104  0  4.029204  0
C  C28  1  0.12302860  0.04057713  0.20929397  1  0  -0.116841  0  3.924178  0  0  -0.102855  0  4.166358  0  0  -0.114585  0  4.184539  0  0  -0.011975  -0.095519  0  4.154585  0
C  C29  1  0.87696981  0.95941563  0.70929128  1  0  -0.116824  0  3.924278  0  0  -0.102775  0  4.166351  0  0  -0.114506  0  4.184511  0  0  -0.011934  -0.095446  0  4.154581  0
C  C30  1  0.29335324  0.00687545  0.27222117  1  0  0.325538  0  3.788923  0  0  0.305396  0  4.057272  0  0  0.316518  0  4.075204  0  0  0.197367  0.298133  0  4.045632  0
C  C31  1  0.70664448  0.99311758  0.77221796  1  0  0.325441  0  3.789176  0  0  0.305271  0  4.057504  0  0  0.316401  0  4.07543  0  0  0.197297  0.298008  0  4.045875  0
C  C32  1  0.13793654  0.19067792  0.45414167  1  0  0.445479  0  3.691723  0  0  0.433828  0  3.973736  0  0  0.443068  0  3.991053  0  0  0.217238  0.427676  0  3.962178  0
C  C33  1  0.86206923  0.80933078  0.95414406  1  0  0.445427  0  3.691576  0  0  0.43377  0  3.973605  0  0  0.443014  0  3.99092  0  0  0.21722  0.427615  0  3.962052  0
C  C34  1  0.39190047  0.30319723  0.46555407  1  0  -0.390131  0  3.738525  0  0  -0.463983  0  3.971785  0  0  -0.466266  0  3.97664  0  0  -0.213938  -0.462155  0  3.968348  0
C  C35  1  0.60809994  0.69681253  0.96555594  1  0  -0.3902  0  3.738413  0  0  -0.464026  0  3.971674  0  0  -0.466309  0  3.976526  0  0  -0.213899  -0.462197  0  3.968241  0
C  C36  1  0.88926088  0.65109368  0.37325241  1  0  0.441054  0  3.685263  0  0  0.428748  0  3.966924  0  0  0.438359  0  3.983601  0  0  0.218382  0.422313  0  3.955862  0
C  C37  1  0.11074145  0.34890887  0.87325239  1  0  0.440916  0  3.68528  0  0  0.428597  0  3.966946  0  0  0.43821  0  3.983622  0  0  0.21831  0.42216  0  3.955892  0
C  C38  1  0.05493615  0.55163073  0.34348663  1  0  -0.367357  0  3.727254  0  0  -0.436728  0  3.953398  0  0  -0.438695  0  3.957862  0  0  -0.207559  -0.435132  0  3.950271  0
C  C39  1  0.94505629  0.44836982  0.84348697  1  0  -0.36718  0  3.72713  0  0  -0.436509  0  3.953262  0  0  -0.438473  0  3.957723  0  0  -0.207497  -0.434913  0  3.950144  0
N  N40  1  0.35236277  0.47626955  0.15406086  1  0  -0.52556  0  3.255576  0  0  -0.465753  0  3.493187  0  0  -0.490332  0  3.494124  0  0  -0.395134  -0.448858  0  3.492206  0
N  N41  1  0.64763154  0.52372531  0.65406072  1  0  -0.525516  0  3.255462  0  0  -0.46581  0  3.493073  0  0  -0.490392  0  3.494003  0  0  -0.395205  -0.448912  0  3.492096  0
N  N42  1  0.60624581  0.12816264  0.02184327  1  0  -0.472307  0  3.022959  0  0  -0.440097  0  3.354008  0  0  -0.443113  0  3.353433  0  0  -0.381706  -0.43923  0  3.353825  0
N  N43  1  0.39376577  0.87183794  0.52184482  1  0  -0.472393  0  3.022879  0  0  -0.44019  0  3.35393  0  0  -0.443196  0  3.353334  0  0  -0.381781  -0.439328  0  3.353746  0
N  N44  1  0.74161710  0.79139038  0.16755915  1  0  -0.410929  0  2.639026  0  0  -0.383404  0  2.864364  0  0  -0.396753  0  2.87613  0  0  -0.297666  -0.374607  0  2.856725  0
N  N45  1  0.25837525  0.20860920  0.66755427  1  0  -0.411025  0  2.639218  0  0  -0.383509  0  2.864558  0  0  -0.396865  0  2.876326  0  0  -0.297666  -0.374715  0  2.856921  0
N  N46  1  0.42154813  0.96828551  0.32566872  1  0  -0.457704  0  3.06662  0  0  -0.425581  0  3.401982  0  0  -0.428468  0  3.401474  0  0  -0.379334  -0.425039  0  3.401962  0
N  N47  1  0.57845681  0.03171285  0.82566594  1  0  -0.457576  0  3.066654  0  0  -0.425449  0  3.402014  0  0  -0.428346  0  3.401519  0  0  -0.379261  -0.424905  0  3.401993  0
N  N48  1  0.93280339  0.10069025  0.44321187  1  0  -0.4919  0  3.029649  0  0  -0.458287  0  3.351872  0  0  -0.463702  0  3.354198  0  0  -0.377458  -0.455704  0  3.349804  0
N  N49  1  0.06720584  0.89931738  0.94321509  1  0  -0.491796  0  3.029544  0  0  -0.458172  0  3.351769  0  0  -0.463594  0  3.354111  0  0  -0.377408  -0.455583  0  3.349699  0
N  N50  1  0.75843237  0.73453838  0.39592389  1  0  -0.491727  0  3.019322  0  0  -0.458493  0  3.33934  0  0  -0.464188  0  3.342147  0  0  -0.372346  -0.455695  0  3.337075  0
N  N51  1  0.24157519  0.26546383  0.89592140  1  0  -0.491638  0  3.01941  0  0  -0.4584  0  3.339437  0  0  -0.464102  0  3.342261  0  0  -0.37229  -0.455603  0  3.337174  0
O  O52  1  0.06273854  0.53364577  0.05246674  1  0  -0.506804  0  1.919635  0  0  -0.461104  0  2.129787  0  0  -0.480482  0  2.126774  0  0  -0.274829  -0.44802  0  2.131667  0
O  O53  1  0.93725857  0.46634819  0.55246767  1  0  -0.506761  0  1.919529  0  0  -0.461072  0  2.129696  0  0  -0.480439  0  2.126663  0  0  -0.27478  -0.447987  0  2.131578  0
O  O54  1  0.54819450  0.34076049  0.25413537  1  0  -0.498794  0  1.92653  0  0  -0.453938  0  2.131767  0  0  -0.471503  0  2.12781  0  0  -0.264829  -0.441901  0  2.134454  0
O  O55  1  0.45179894  0.65923528  0.75413438  1  0  -0.498774  0  1.926606  0  0  -0.453946  0  2.131812  0  0  -0.471511  0  2.127856  0  0  -0.264848  -0.441904  0  2.134497  0
