# generated using pymatgen
data_MnH24C50(BrN2)4
_symmetry_space_group_name_H-M   'P 1'
_cell_length_a   9.44815657
_cell_length_b   10.85048848
_cell_length_c   22.31099516
_cell_angle_alpha   89.99840887
_cell_angle_beta   93.80344039
_cell_angle_gamma   89.99912556
_symmetry_Int_Tables_number   1
_chemical_formula_structural   MnH24C50(BrN2)4
_chemical_formula_sum   'Mn2 H48 C100 Br8 N16'
_cell_volume   2282.22111750
_cell_formula_units_Z   2
loop_
 _symmetry_equiv_pos_site_id
 _symmetry_equiv_pos_as_xyz
  1  'x, y, z'
loop_
 _atom_site_type_symbol
 _atom_site_label
 _atom_site_symmetry_multiplicity
 _atom_site_fract_x
 _atom_site_fract_y
 _atom_site_fract_z
 _atom_site_occupancy
 _atom_site_pbe_bader_charge
 _atom_site_pbe_bader_spin_density
 _atom_site_pbe_cm5_charge
 _atom_site_pbe_ddec_charge
 _atom_site_pbe_ddec_spin_density
 _atom_site_pbe_ddec_sum_bond_order
 _atom_site_pbe_magmom
Mn  Mn0  1  0.50000052  0.99999396  0.00000341  1  1.646402  -3.489233  0.867381  0.927199  -3.614148  3.058492  -3.47
Mn  Mn1  1  0.00000295  0.50000432  0.50000148  1  1.646222  -3.489327  0.867363  0.927068  -3.614252  3.058589  -3.47
H  H2  1  0.25019724  0.71622457  0.83391398  1  0.09883  -8.5e-05  0.105804  0.123506  1.7e-05  1.023068  0.0
H  H3  1  0.24979441  0.21621054  0.66609234  1  0.09878  -8.5e-05  0.105785  0.123516  1.7e-05  1.023018  0.0
H  H4  1  0.74978500  0.28378738  0.16608901  1  0.098864  -8.5e-05  0.105775  0.123501  1.7e-05  1.02308  0.0
H  H5  1  0.75019095  0.78379035  0.33391126  1  0.09885  -8.5e-05  0.105792  0.12358  1.7e-05  1.022918  0.0
H  H6  1  0.54074722  0.79508541  0.77974005  1  0.099636  -9e-06  0.102693  0.105507  -2.1e-05  1.003315  0.0
H  H7  1  0.95927475  0.29506940  0.72027060  1  0.099707  -9e-06  0.102733  0.105604  -2.1e-05  1.003363  0.0
H  H8  1  0.45926286  0.20492838  0.22026217  1  0.099667  -9e-06  0.102696  0.105519  -2.1e-05  1.003335  0.0
H  H9  1  0.04073166  0.70492965  0.27973502  1  0.09975  -9e-06  0.102694  0.105503  -2.1e-05  1.003387  0.0
H  H10  1  0.49492572  0.50754532  0.05679827  1  0.066024  -3.7e-05  0.091869  0.089586  -4.4e-05  1.059197  0.0
H  H11  1  0.00508985  0.00754523  0.44320179  1  0.065961  -3.6e-05  0.091858  0.089531  -4.4e-05  1.059354  0.0
H  H12  1  0.50507682  0.49245649  0.94318918  1  0.066271  -3.7e-05  0.091869  0.089623  -4.4e-05  1.059362  0.0
H  H13  1  0.99491246  0.99245750  0.55681034  1  0.066393  -3.7e-05  0.091912  0.08964  -4.4e-05  1.059354  0.0
H  H14  1  0.22882080  0.59165578  0.93839996  1  0.106645  -5e-05  0.095099  0.104365  -2e-06  1.076712  0.0
H  H15  1  0.27117876  0.09164583  0.56160687  1  0.106492  -5e-05  0.095078  0.104416  -2e-06  1.076599  0.0
H  H16  1  0.77116045  0.40835709  0.06160253  1  0.106725  -5e-05  0.095003  0.104268  -2e-06  1.076857  0.0
H  H17  1  0.72880504  0.90836427  0.43839261  1  0.106759  -5e-05  0.095061  0.104371  -2e-06  1.076413  0.0
H  H18  1  0.11944848  0.98662072  0.67088830  1  0.079444  -0.000107  0.103057  0.114816  -0.000112  1.008786  0.0
H  H19  1  0.38052793  0.48661860  0.82912232  1  0.079492  -0.000107  0.103059  0.114809  -0.000112  1.008807  0.0
H  H20  1  0.88056117  0.01339215  0.32911704  1  0.079627  -0.000107  0.10307  0.114851  -0.000112  1.008689  0.0
H  H21  1  0.61944982  0.51337860  0.17088223  1  0.079302  -0.000107  0.10303  0.114807  -0.000112  1.008746  0.0
H  H22  1  0.40432133  0.30876632  0.09437059  1  0.092274  3.2e-05  0.10023  0.116883  0.00023  1.021938  0.0
H  H23  1  0.09568624  0.80877729  0.40561920  1  0.091874  3.2e-05  0.100277  0.116856  0.000231  1.021926  0.0
H  H24  1  0.59569068  0.69123088  0.90561781  1  0.091833  3.1e-05  0.100302  0.116881  0.00023  1.021998  0.0
H  H25  1  0.90429439  0.19122083  0.59438775  1  0.092051  3.2e-05  0.100276  0.116891  0.000231  1.021881  0.0
H  H26  1  0.48638929  0.74855417  0.67186434  1  0.140072  0.000256  0.101026  0.120932  0.0004  1.054837  0.0
H  H27  1  0.01363385  0.24853516  0.82814440  1  0.140014  0.000256  0.100947  0.120836  0.000401  1.054912  0.0
H  H28  1  0.51363506  0.25146607  0.32813503  1  0.140112  0.000256  0.100954  0.120915  0.0004  1.054843  0.0
H  H29  1  0.98636970  0.75145467  0.17185882  1  0.140037  0.000256  0.101008  0.120912  0.0004  1.054853  0.0
H  H30  1  0.62879252  0.31679205  0.83408029  1  0.096042  -0.000117  0.112919  0.134607  7.4e-05  0.990034  0.0
H  H31  1  0.87122533  0.81679582  0.66591568  1  0.096015  -0.000117  0.112922  0.134662  7.4e-05  0.990006  0.0
H  H32  1  0.37120717  0.68321529  0.16592767  1  0.096228  -0.000117  0.112951  0.134609  7.4e-05  0.990141  0.0
H  H33  1  0.12878999  0.18321336  0.33408726  1  0.096186  -0.000117  0.112902  0.13453  7.4e-05  0.990096  0.0
H  H34  1  0.07785946  0.66641789  0.06196010  1  0.107256  0.00031  0.094409  0.093309  0.000541  1.040822  0.0
H  H35  1  0.42211926  0.16641227  0.43803103  1  0.107472  0.00031  0.094347  0.093202  0.000541  1.041086  0.0
H  H36  1  0.92213150  0.33358208  0.93803393  1  0.107267  0.00031  0.094411  0.093306  0.00054  1.040959  0.0
H  H37  1  0.57787830  0.83358493  0.56196154  1  0.107401  0.00031  0.094336  0.09325  0.000541  1.040957  0.0
H  H38  1  0.17485710  0.03255919  0.77933894  1  0.061554  0.000159  0.104211  0.113814  0.000219  1.002749  0.0
H  H39  1  0.32513172  0.53255604  0.72066938  1  0.061894  0.000159  0.104238  0.113796  0.000219  1.002525  0.0
H  H40  1  0.82514613  0.96744723  0.22066651  1  0.061676  0.000159  0.104233  0.113764  0.000219  1.002749  0.0
H  H41  1  0.67486604  0.46744300  0.27933712  1  0.061845  0.000159  0.104241  0.113789  0.000219  1.002621  0.0
H  H42  1  0.49034772  0.13264729  0.77338808  1  0.094885  -0.00015  0.107028  0.123099  3e-06  1.017059  0.0
H  H43  1  0.00966263  0.63265432  0.72661421  1  0.094907  -0.000149  0.107048  0.123103  3e-06  1.017006  0.0
H  H44  1  0.50965084  0.86735544  0.22662027  1  0.0952  -0.00015  0.107085  0.123281  3e-06  1.017127  0.0
H  H45  1  0.99034316  0.36735302  0.27338823  1  0.09494  -0.000149  0.106998  0.123081  3e-06  1.016935  0.0
H  H46  1  0.98854960  0.47038298  0.10187931  1  0.098462  -2.1e-05  0.093972  0.102431  -4.5e-05  1.045523  0.0
H  H47  1  0.51142345  0.97039547  0.39809800  1  0.098557  -2.1e-05  0.09397  0.102565  -4.5e-05  1.045516  0.0
H  H48  1  0.01144602  0.52960777  0.89811182  1  0.098492  -2.1e-05  0.094004  0.102526  -4.5e-05  1.045592  0.0
H  H49  1  0.48856109  0.02960450  0.60188850  1  0.098547  -2.1e-05  0.093945  0.10249  -4.5e-05  1.045657  0.0
C  C50  1  0.18025397  0.06714769  0.99624061  1  0.801572  -0.018814  0.189756  0.26137  -0.018681  4.081598  -0.037
C  C51  1  0.31978549  0.56717549  0.50375452  1  0.802552  -0.018759  0.189853  0.261509  -0.01864  4.082512  -0.037
C  C52  1  0.81974160  0.93281173  0.00375859  1  0.801959  -0.01876  0.189822  0.261396  -0.018658  4.081918  -0.037
C  C53  1  0.68023026  0.43283001  0.49624530  1  0.802741  -0.018765  0.189821  0.261459  -0.01865  4.082219  -0.037
C  C54  1  0.36171816  0.91698274  0.78658977  1  0.011142  -0.000536  -0.007226  0.075073  -0.000247  4.019829  -0.001
C  C55  1  0.13828309  0.41698360  0.71340720  1  0.010507  -0.000535  -0.007243  0.075166  -0.000247  4.019928  -0.001
C  C56  1  0.63828040  0.08302737  0.21341094  1  0.010569  -0.000536  -0.007249  0.075035  -0.000247  4.020048  -0.001
C  C57  1  0.86172419  0.58302006  0.28659218  1  0.01079  -0.000536  -0.007275  0.075055  -0.000247  4.020028  -0.001
C  C58  1  0.04248665  0.03163202  0.97926763  1  0.248848  0.17454  -0.003587  -0.074266  0.183399  4.15339  0.11
C  C59  1  0.45752399  0.53168606  0.52072209  1  0.299724  0.174797  -0.00353  -0.07434  0.183367  4.153738  0.11
C  C60  1  0.95751970  0.96830436  0.02072316  1  0.298619  0.174857  -0.003358  -0.073762  0.183442  4.152937  0.11
C  C61  1  0.54247475  0.46832773  0.47927728  1  0.248142  0.174528  -0.003582  -0.074263  0.183414  4.153448  0.11
C  C62  1  0.29301345  0.60090780  0.05736717  1  -0.000122  -0.000499  -0.009494  0.073665  -0.000239  4.005957  -0.001
C  C63  1  0.20698555  0.10091259  0.44264193  1  0.000203  -0.000499  -0.009452  0.073542  -0.000238  4.006696  -0.001
C  C64  1  0.70698717  0.39909125  0.94263410  1  -0.000167  -0.000499  -0.009433  0.073697  -0.000238  4.006322  -0.001
C  C65  1  0.79301601  0.89909199  0.55736028  1  0.00053  -0.000499  -0.009416  0.073651  -0.000238  4.006412  -0.001
C  C66  1  0.28843731  0.74352636  0.87886636  1  -0.049712  -0.011474  -0.096317  -0.175225  -0.008767  3.97178  -0.006
C  C67  1  0.21156210  0.24352932  0.62113800  1  -0.049724  -0.01147  -0.096329  -0.175313  -0.008764  3.971956  -0.006
C  C68  1  0.71156724  0.25647729  0.12113736  1  -0.049879  -0.011474  -0.096262  -0.175226  -0.008767  3.971511  -0.006
C  C69  1  0.78842512  0.75648539  0.37886750  1  -0.049375  -0.01147  -0.096364  -0.175353  -0.008764  3.971954  -0.006
C  C70  1  0.44811695  0.83687904  0.75592739  1  -0.099592  0.000218  -0.083524  -0.10709  0.000255  3.945034  0.0
C  C71  1  0.05188824  0.33686409  0.74407867  1  -0.099704  0.000218  -0.083458  -0.107153  0.000256  3.944729  0.0
C  C72  1  0.55188678  0.16313199  0.24407449  1  -0.099663  0.000219  -0.083513  -0.107135  0.000256  3.9452  0.0
C  C73  1  0.94810902  0.66313127  0.25592377  1  -0.09986  0.000219  -0.083475  -0.107055  0.000256  3.945171  0.0
C  C74  1  0.39864148  0.94406244  0.85120425  1  0.064591  0.006091  0.006283  -0.068172  0.006397  3.958912  0.004
C  C75  1  0.10137620  0.44405813  0.64879751  1  0.065035  0.006093  0.006266  -0.068366  0.006399  3.959008  0.004
C  C76  1  0.60136169  0.05594582  0.14880164  1  0.064817  0.006094  0.006222  -0.06826  0.0064  3.959101  0.004
C  C77  1  0.89864559  0.55595289  0.35120488  1  0.064842  0.006096  0.006301  -0.068197  0.006402  3.958889  0.004
C  C78  1  0.34210828  0.75563463  0.97881416  1  0.464216  -0.011906  0.098067  0.190222  -0.009346  4.02731  -0.009
C  C79  1  0.15790189  0.25564209  0.52118623  1  0.464166  -0.011899  0.098125  0.190259  -0.009341  4.027782  -0.009
C  C80  1  0.65789022  0.24436350  0.02118700  1  0.46406  -0.011901  0.0981  0.190219  -0.00934  4.027581  -0.009
C  C81  1  0.84209157  0.74437355  0.47881286  1  0.464132  -0.011897  0.0981  0.190453  -0.00934  4.027636  -0.009
C  C82  1  0.35092976  0.72246724  0.03940041  1  -0.030678  0.006418  0.006574  -0.062502  0.006712  3.947455  0.005
C  C83  1  0.14907321  0.22246755  0.46060792  1  -0.030565  0.006419  0.006574  -0.062308  0.006713  3.947892  0.005
C  C84  1  0.64906830  0.27753642  0.96060386  1  -0.030694  0.006418  0.006462  -0.062607  0.006713  3.947666  0.005
C  C85  1  0.85095949  0.77754348  0.53939280  1  -0.030771  0.006413  0.006677  -0.062372  0.006707  3.947612  0.005
C  C86  1  0.36241863  0.85665059  0.89357210  1  0.377504  -0.011397  0.098256  0.183886  -0.008911  4.042764  -0.009
C  C87  1  0.13758327  0.35664376  0.60642921  1  0.377436  -0.011392  0.098336  0.184211  -0.008907  4.042961  -0.009
C  C88  1  0.63758816  0.14334938  0.10643084  1  0.377516  -0.011397  0.098256  0.183869  -0.008911  4.042751  -0.009
C  C89  1  0.86240514  0.64335253  0.39357546  1  0.377658  -0.011396  0.098352  0.18401  -0.008912  4.042656  -0.009
C  C90  1  0.38347642  0.49902724  0.06613333  1  -0.007608  0.000315  -0.093511  -0.12746  0.000301  3.977421  0.0
C  C91  1  0.11653499  0.99904670  0.43386840  1  -0.008077  0.000316  -0.093614  -0.127477  0.000301  3.977983  0.0
C  C92  1  0.61652961  0.50095982  0.93385969  1  -0.001466  0.000315  -0.093548  -0.127563  0.000301  3.977908  0.0
C  C93  1  0.88346551  0.00095972  0.56614140  1  -0.002217  0.000315  -0.093537  -0.127464  0.000301  3.977726  0.0
C  C94  1  0.27680341  0.68091386  0.93150050  1  -0.080013  -0.011008  -0.097652  -0.166855  -0.008305  3.966005  -0.005
C  C95  1  0.22318545  0.18091152  0.56850493  1  -0.080088  -0.011012  -0.097689  -0.167052  -0.008308  3.965927  -0.005
C  C96  1  0.72319228  0.31909164  0.06849781  1  -0.080332  -0.01101  -0.097642  -0.166847  -0.008306  3.96594  -0.005
C  C97  1  0.77680427  0.81908016  0.43149801  1  -0.080836  -0.010998  -0.097679  -0.167089  -0.008297  3.966582  -0.005
C  C98  1  0.30057147  0.86630944  0.66537987  1  -0.111094  -0.000127  -0.018971  0.095209  -0.000161  3.985308  0.0
C  C99  1  0.19942614  0.36629187  0.83463419  1  -0.111682  -0.000127  -0.018895  0.095458  -0.000161  3.984781  0.0
C  C100  1  0.69944160  0.13370251  0.33462385  1  -0.11127  -0.000127  -0.018975  0.095293  -0.000161  3.985175  0.0
C  C101  1  0.80056744  0.63368966  0.16537165  1  -0.111599  -0.000127  -0.019098  0.095087  -0.000161  3.985106  0.0
C  C102  1  0.47281477  0.05266971  0.86535124  1  0.413533  -0.012316  0.101866  0.191647  -0.010066  4.035045  -0.009
C  C103  1  0.02719359  0.55267505  0.63464905  1  0.413375  -0.012315  0.101834  0.19153  -0.010065  4.035098  -0.009
C  C104  1  0.52719101  0.94733026  0.13465120  1  0.413952  -0.012321  0.101851  0.191636  -0.01007  4.034799  -0.009
C  C105  1  0.97280827  0.44733598  0.36535094  1  0.413864  -0.012311  0.101967  0.191756  -0.010063  4.035198  -0.009
C  C106  1  0.21186816  0.94545471  0.69485730  1  0.004306  -0.000242  -0.098647  -0.137073  -0.00028  4.013918  0.0
C  C107  1  0.28812025  0.44544639  0.80514740  1  0.004215  -0.000242  -0.098696  -0.13722  -0.00028  4.013603  0.0
C  C108  1  0.78813058  0.05455079  0.30514208  1  0.004008  -0.000242  -0.098761  -0.137325  -0.00028  4.014164  0.0
C  C109  1  0.71186691  0.55454344  0.19485855  1  0.004463  -0.000242  -0.09858  -0.137148  -0.00028  4.013715  0.0
C  C110  1  0.33362347  0.38753539  0.08778485  1  -0.04461  0.000264  -0.10221  -0.134995  0.000446  3.994509  0.0
C  C111  1  0.16636682  0.88755505  0.41220009  1  -0.044142  0.000264  -0.102171  -0.134789  0.000446  3.994173  0.0
C  C112  1  0.66637502  0.61245813  0.91220105  1  -0.050982  0.000263  -0.102195  -0.134781  0.000446  3.994105  0.0
C  C113  1  0.83360963  0.11244676  0.58780619  1  -0.051074  0.000264  -0.102293  -0.134962  0.000446  3.99426  0.0
C  C114  1  0.41861562  0.81126453  0.69514652  1  -0.010368  0.000434  -0.099692  -0.140614  0.000352  4.000064  0.0
C  C115  1  0.08140492  0.31124588  0.80485597  1  -0.009667  0.000435  -0.099648  -0.140563  0.000353  4.000211  0.0
C  C116  1  0.58140213  0.18874834  0.30485431  1  -0.009925  0.000434  -0.099629  -0.140596  0.000352  4.000053  0.0
C  C117  1  0.91860006  0.68874395  0.19514463  1  -0.009605  0.000434  -0.099728  -0.140675  0.000353  4.000122  0.0
C  C118  1  0.58240243  0.23447601  0.85216935  1  -0.057796  -0.014466  -0.088356  -0.155806  -0.011058  3.953063  -0.007
C  C119  1  0.91760056  0.73448425  0.64782574  1  -0.058246  -0.01447  -0.088308  -0.155861  -0.011061  3.953061  -0.007
C  C120  1  0.41759850  0.76552580  0.14783732  1  -0.058215  -0.014467  -0.088342  -0.155818  -0.01106  3.953008  -0.007
C  C121  1  0.08240641  0.26552585  0.35217586  1  -0.057809  -0.014472  -0.088329  -0.155646  -0.01106  3.953106  -0.007
C  C122  1  0.19192710  0.37931754  0.10155986  1  -0.157782  0.00049  -0.020101  0.107286  0.000539  3.981107  0.0
C  C123  1  0.30806891  0.87932571  0.39841689  1  -0.158511  0.00049  -0.020143  0.107186  0.000539  3.981239  0.0
C  C124  1  0.80808092  0.62067321  0.89842654  1  -0.157843  0.00049  -0.020161  0.107305  0.000539  3.981163  0.0
C  C125  1  0.69191457  0.12067518  0.60157719  1  -0.157207  0.00049  -0.020137  0.107327  0.000539  3.981233  0.0
C  C126  1  0.14989050  0.58843402  0.06894584  1  -0.039486  0.000429  -0.087764  -0.108091  0.000552  3.955165  0.0
C  C127  1  0.35009494  0.08843819  0.43104913  1  -0.039941  0.000429  -0.087795  -0.10786  0.000552  3.955098  0.0
C  C128  1  0.85011080  0.41155857  0.93105053  1  -0.039521  0.000429  -0.087817  -0.107955  0.000552  3.955137  0.0
C  C129  1  0.64990418  0.91156271  0.56894756  1  -0.040124  0.000429  -0.087773  -0.107971  0.000552  3.955286  0.0
C  C130  1  0.98725603  0.05870866  0.92056343  1  0.817784  -0.003605  0.171291  0.232506  -0.002507  4.09657  -0.017
C  C131  1  0.51273455  0.55874762  0.57943133  1  0.817709  -0.003585  0.171248  0.232676  -0.002505  4.095991  -0.017
C  C132  1  0.01276221  0.94125813  0.07942620  1  0.818375  -0.003589  0.171104  0.232322  -0.002501  4.096732  -0.017
C  C133  1  0.48727086  0.44126709  0.42056615  1  0.817259  -0.003604  0.171329  0.232836  -0.002513  4.095842  -0.017
C  C134  1  0.24340360  0.97088397  0.75567741  1  -0.060253  0.000285  -0.086185  -0.117977  0.000395  3.949254  0.0
C  C135  1  0.25657607  0.47087106  0.74432941  1  -0.060214  0.000285  -0.08638  -0.118125  0.000395  3.949408  0.0
C  C136  1  0.75659795  0.02912522  0.24432480  1  -0.060321  0.000285  -0.086127  -0.117733  0.000396  3.949402  0.0
C  C137  1  0.74342361  0.52912798  0.25567855  1  -0.060629  0.000285  -0.086197  -0.117841  0.000396  3.949363  0.0
C  C138  1  0.51248734  0.14136729  0.82153499  1  -0.004698  -0.015137  -0.088322  -0.156059  -0.011818  3.944196  -0.008
C  C139  1  0.98752936  0.64137464  0.67846393  1  -0.004511  -0.015141  -0.088363  -0.156111  -0.011822  3.944246  -0.008
C  C140  1  0.48751783  0.85863360  0.17847190  1  -0.005504  -0.015141  -0.088392  -0.156251  -0.01182  3.944182  -0.008
C  C141  1  0.01247200  0.35863455  0.32153963  1  -0.005081  -0.015139  -0.088307  -0.156227  -0.011822  3.944246  -0.008
C  C142  1  0.41326480  0.79657797  0.08507461  1  0.410596  -0.012668  0.099953  0.183876  -0.010312  4.053169  -0.01
C  C143  1  0.08672412  0.29659070  0.41493760  1  0.411011  -0.012672  0.099891  0.18377  -0.010316  4.053436  -0.01
C  C144  1  0.58674497  0.20341186  0.91492984  1  0.410635  -0.012666  0.100041  0.183941  -0.01031  4.05329  -0.01
C  C145  1  0.91328367  0.70341572  0.58506585  1  0.411043  -0.012669  0.099908  0.183847  -0.010314  4.0533  -0.01
C  C146  1  0.09897944  0.47806558  0.09136306  1  0.006637  -4.1e-05  -0.102307  -0.138853  -0.000125  4.012299  0.0
C  C147  1  0.40099468  0.97807292  0.40861344  1  0.006723  -4.1e-05  -0.102307  -0.139178  -0.000125  4.012518  0.0
C  C148  1  0.90101774  0.52193439  0.90862455  1  0.006976  -4.1e-05  -0.102374  -0.139245  -0.000125  4.012597  0.0
C  C149  1  0.59898313  0.02192060  0.59137540  1  0.00642  -4.1e-05  -0.102318  -0.139194  -0.000125  4.012662  0.0
Br  Br150  1  0.25978173  0.83109454  0.58224639  1  -0.071203  -5.6e-05  0.081134  -0.013839  0.000248  1.624091  0.0
Br  Br151  1  0.24021347  0.33108874  0.91776411  1  -0.0711  -5.6e-05  0.081204  -0.013783  0.000248  1.623991  0.0
Br  Br152  1  0.74020905  0.16890451  0.41775661  1  -0.07116  -5.6e-05  0.081179  -0.013779  0.000248  1.623991  0.0
Br  Br153  1  0.75979406  0.66890016  0.08224112  1  -0.071016  -5.6e-05  0.081216  -0.013685  0.000248  1.624228  0.0
Br  Br154  1  0.12577709  0.23162024  0.13651237  1  -0.06916  -0.000254  0.033567  -0.053804  5.3e-05  1.462853  0.0
Br  Br155  1  0.37418907  0.73165382  0.36344369  1  -0.068382  -0.000253  0.033666  -0.053664  5.5e-05  1.462821  0.0
Br  Br156  1  0.87420869  0.76837327  0.86346522  1  -0.069008  -0.000254  0.033615  -0.053791  5.3e-05  1.462795  0.0
Br  Br157  1  0.62578164  0.26836090  0.63654253  1  -0.068746  -0.000254  0.033686  -0.05369  5.3e-05  1.462721  0.0
N  N158  1  0.29717270  0.09711416  0.01138061  1  -1.197443  0.065162  -0.319898  -0.397832  0.068996  3.087794  0.062
N  N159  1  0.20285559  0.59711118  0.48863365  1  -1.198286  0.065215  -0.319929  -0.39779  0.06904  3.087871  0.062
N  N160  1  0.70282556  0.90285816  0.98862233  1  -1.197464  0.065139  -0.319996  -0.397943  0.068981  3.088197  0.062
N  N161  1  0.79715574  0.40289985  0.51136729  1  -1.198434  0.065147  -0.319914  -0.397782  0.068984  3.088037  0.062
N  N162  1  0.52032013  0.09129395  0.92229063  1  -1.200419  0.007801  -0.361126  -0.352492  0.020679  3.424376  0.033
N  N163  1  0.97968829  0.59129026  0.57771256  1  -1.200442  0.007807  -0.361075  -0.352231  0.020677  3.424463  0.033
N  N164  1  0.47969494  0.90869588  0.07771409  1  -1.200105  0.007811  -0.361017  -0.352313  0.020679  3.424133  0.033
N  N165  1  0.02029700  0.40871155  0.42229149  1  -1.200618  0.00781  -0.361081  -0.352254  0.020673  3.424224  0.033
N  N166  1  0.39370844  0.86304935  0.95491805  1  -1.184775  0.010501  -0.361368  -0.352476  0.022892  3.424199  0.034
N  N167  1  0.10629695  0.36305179  0.54508701  1  -1.184855  0.010502  -0.361381  -0.352625  0.022893  3.424565  0.034
N  N168  1  0.60631230  0.13694048  0.04508428  1  -1.184537  0.010503  -0.361299  -0.352324  0.022889  3.423908  0.034
N  N169  1  0.89368305  0.63694910  0.45491676  1  -1.184972  0.0105  -0.361438  -0.35256  0.022903  3.424034  0.034
N  N170  1  0.93868736  0.07948412  0.87185360  1  -1.133241  0.095854  -0.306572  -0.359933  0.094408  2.777077  0.069
N  N171  1  0.56134853  0.57951867  0.62813178  1  -1.133216  0.095824  -0.306598  -0.360067  0.09438  2.776891  0.069
N  N172  1  0.06133163  0.92048267  0.12813068  1  -1.133576  0.095835  -0.306548  -0.359914  0.094389  2.777314  0.069
N  N173  1  0.43864865  0.42048683  0.37186347  1  -1.132684  0.095887  -0.306636  -0.360262  0.094441  2.776814  0.069
