# generated using pymatgen
data_MnH24C34N4O5
_symmetry_space_group_name_H-M   'P 1'
_cell_length_a   9.11205174
_cell_length_b   11.75045730
_cell_length_c   13.05427289
_cell_angle_alpha   89.99945875
_cell_angle_beta   87.76311634
_cell_angle_gamma   89.99984286
_symmetry_Int_Tables_number   1
_chemical_formula_structural   MnH24C34N4O5
_chemical_formula_sum   'Mn2 H48 C68 N8 O10'
_cell_volume   1396.66603940
_cell_formula_units_Z   2
loop_
 _symmetry_equiv_pos_site_id
 _symmetry_equiv_pos_as_xyz
  1  'x, y, z'
loop_
 _atom_site_type_symbol
 _atom_site_label
 _atom_site_symmetry_multiplicity
 _atom_site_fract_x
 _atom_site_fract_y
 _atom_site_fract_z
 _atom_site_occupancy
 _atom_site_pbe_bader_charge
 _atom_site_pbe_bader_spin_density
 _atom_site_pbe_cm5_charge
 _atom_site_pbe_ddec_charge
 _atom_site_pbe_ddec_spin_density
 _atom_site_pbe_ddec_sum_bond_order
 _atom_site_pbe_magmom
Mn  Mn0  1  0.25000453  0.05793778  0.00000013  1  1.550513  4.488902  0.618771  0.952726  4.62707  2.443878  4.43
Mn  Mn1  1  0.75000186  0.94205955  0.00000158  1  1.550555  4.488801  0.618751  0.952785  4.626963  2.444006  4.43
H  H2  1  0.58789491  0.78544321  0.74340866  1  0.101947  0.000266  0.103927  0.102997  -9.7e-05  1.026964  0.0
H  H3  1  0.91211185  0.78544200  0.25659002  1  0.101987  0.000266  0.103942  0.103011  -9.7e-05  1.027011  0.0
H  H4  1  0.41210821  0.21455667  0.25659233  1  0.101975  0.000266  0.103934  0.103007  -9.7e-05  1.027017  0.0
H  H5  1  0.08789130  0.21455788  0.74341020  1  0.101952  0.000266  0.103927  0.102977  -9.7e-05  1.027021  0.0
H  H6  1  0.48146853  0.69047335  0.59064715  1  0.060695  6.4e-05  0.10072  0.111722  -1e-05  1.034314  0.0
H  H7  1  0.01853270  0.69047394  0.40935592  1  0.060736  6.4e-05  0.100708  0.111734  -1e-05  1.03426  0.0
H  H8  1  0.51853571  0.30952568  0.40935306  1  0.06077  6.4e-05  0.100719  0.111705  -1e-05  1.03431  0.0
H  H9  1  0.98146816  0.30952508  0.59064739  1  0.060784  6.4e-05  0.100721  0.111713  -1e-05  1.034294  0.0
H  H10  1  0.14488694  0.94725183  0.58535087  1  0.09911  0.000156  0.102723  0.118637  5.1e-05  1.007118  0.0
H  H11  1  0.35511247  0.94724994  0.41464851  1  0.09911  0.000156  0.102741  0.118638  5.1e-05  1.007186  0.0
H  H12  1  0.85511733  0.05274975  0.41464857  1  0.099061  0.000156  0.10271  0.118601  5.1e-05  1.00723  0.0
H  H13  1  0.64489067  0.05274738  0.58535171  1  0.099119  0.000156  0.102734  0.118639  5.1e-05  1.007159  0.0
H  H14  1  0.25226923  0.04082407  0.73784419  1  0.139492  0.000147  0.106179  0.109178  -0.000441  1.050055  0.0
H  H15  1  0.24773657  0.04082316  0.26215053  1  0.13946  0.000147  0.106195  0.109183  -0.000441  1.050056  0.0
H  H16  1  0.74773391  0.95917581  0.26215602  1  0.139494  0.000147  0.106179  0.109159  -0.000441  1.050083  0.0
H  H17  1  0.75226767  0.95917332  0.73784967  1  0.139525  0.000147  0.106179  0.109165  -0.000441  1.049977  0.0
H  H18  1  0.35729115  0.84804164  0.13659449  1  0.116186  0.001258  0.1166  0.087511  0.000536  1.030668  0.0
H  H19  1  0.14270631  0.84804573  0.86340729  1  0.115833  0.001258  0.116618  0.087508  0.000536  1.030609  0.0
H  H20  1  0.64270428  0.15196079  0.86340659  1  0.116205  0.001257  0.116617  0.087494  0.000535  1.030674  0.0
H  H21  1  0.85729356  0.15195585  0.13659220  1  0.115833  0.001258  0.116627  0.087538  0.000536  1.030587  0.0
H  H22  1  0.36535566  0.63872209  0.14260146  1  0.118422  0.00064  0.100944  0.101795  0.000386  1.066633  0.0
H  H23  1  0.13464138  0.63872455  0.85740057  1  0.118431  0.00064  0.100974  0.101838  0.000385  1.066664  0.0
H  H24  1  0.63463870  0.36127949  0.85739887  1  0.118377  0.00064  0.100992  0.101851  0.000386  1.066616  0.0
H  H25  1  0.86535519  0.36127617  0.14259897  1  0.118433  0.00064  0.100966  0.101811  0.000386  1.066646  0.0
H  H26  1  0.43913555  0.47333210  0.09501027  1  0.088495  0.000731  0.106057  0.113214  0.000429  1.024955  0.0
H  H27  1  0.06086741  0.47333422  0.90499538  1  0.088615  0.000731  0.106049  0.113109  0.000429  1.024998  0.0
H  H28  1  0.56086418  0.52666948  0.90499382  1  0.088588  0.000732  0.105999  0.113044  0.000429  1.025069  0.0
H  H29  1  0.93913452  0.52666735  0.09500869  1  0.088539  0.000732  0.106044  0.113149  0.000429  1.02496  0.0
H  H30  1  0.43316069  0.26098721  0.08762285  1  0.110169  0.001157  0.115549  0.084173  0.000401  1.032344  0.001
H  H31  1  0.06684305  0.26099266  0.91237999  1  0.110289  0.001156  0.115559  0.08416  0.000401  1.032443  0.001
H  H32  1  0.56683797  0.73901351  0.91238049  1  0.110186  0.001157  0.11556  0.084208  0.000401  1.032388  0.001
H  H33  1  0.93315675  0.73901147  0.08762180  1  0.110178  0.001156  0.115557  0.084153  0.000401  1.032411  0.001
H  H34  1  0.87109936  0.44624928  0.74577129  1  0.105103  5.9e-05  0.106905  0.075607  3.8e-05  1.001378  0.0
H  H35  1  0.62889639  0.44625381  0.25422886  1  0.105089  5.9e-05  0.106877  0.075586  3.8e-05  1.001418  0.0
H  H36  1  0.12889832  0.55374975  0.25422823  1  0.105082  5.9e-05  0.106901  0.075601  3.8e-05  1.00138  0.0
H  H37  1  0.37109916  0.55374691  0.74576838  1  0.105164  5.9e-05  0.106889  0.075568  3.8e-05  1.001414  0.0
H  H38  1  0.74719861  0.44358229  0.58085770  1  0.109007  1.4e-05  0.1046  0.113537  5e-06  1.036957  0.0
H  H39  1  0.75280050  0.44358313  0.41914014  1  0.108994  1.4e-05  0.104594  0.113501  5e-06  1.037006  0.0
H  H40  1  0.25280131  0.55641673  0.41914026  1  0.109056  1.4e-05  0.104597  0.113488  5e-06  1.037009  0.0
H  H41  1  0.24719727  0.55641844  0.58085631  1  0.109349  1.4e-05  0.104608  0.113535  5e-06  1.037015  0.0
H  H42  1  0.83687344  0.80446445  0.55576564  1  0.072906  5.2e-05  0.103808  0.109008  3.5e-05  1.015041  0.0
H  H43  1  0.66312452  0.80446608  0.44423145  1  0.073063  5.2e-05  0.103799  0.109001  3.5e-05  1.015041  0.0
H  H44  1  0.16312429  0.19553542  0.44423234  1  0.072911  5.2e-05  0.103808  0.109038  3.5e-05  1.015045  0.0
H  H45  1  0.33687320  0.19553465  0.55576654  1  0.073122  5.2e-05  0.103808  0.10903  3.5e-05  1.01502  0.0
H  H46  1  0.94888289  0.79272518  0.72544321  1  0.082821  0.000251  0.112441  0.087747  -6.7e-05  1.001868  0.0
H  H47  1  0.55111501  0.79273137  0.27455705  1  0.08271  0.000251  0.112473  0.087782  -6.7e-05  1.001736  0.0
H  H48  1  0.05111820  0.20727214  0.27455244  1  0.082697  0.000251  0.112458  0.08777  -6.7e-05  1.001832  0.0
H  H49  1  0.44888157  0.20727021  0.72544248  1  0.082773  0.000251  0.112459  0.087791  -6.7e-05  1.001781  0.0
C  C50  1  0.48311966  0.97283805  0.84415937  1  1.577266  0.035377  0.216727  0.570604  0.033757  4.211328  0.03
C  C51  1  0.01688301  0.97283960  0.15583821  1  1.576854  0.035381  0.216662  0.570497  0.033759  4.211315  0.03
C  C52  1  0.51687472  0.02716693  0.15584019  1  1.576846  0.035388  0.216582  0.570455  0.033764  4.211425  0.03
C  C53  1  0.98312553  0.02716538  0.84416500  1  1.576881  0.035387  0.216519  0.570473  0.033764  4.211514  0.03
C  C54  1  0.42630171  0.91928069  0.74948105  1  -0.091385  0.001052  -0.029654  -0.069502  -0.000267  4.003617  -0.001
C  C55  1  0.07370341  0.91928028  0.25051390  1  -0.091393  0.001052  -0.02971  -0.069575  -0.000267  4.003747  -0.001
C  C56  1  0.57370695  0.08071748  0.25051834  1  -0.091699  0.001055  -0.02971  -0.069633  -0.000264  4.003846  -0.001
C  C57  1  0.92629866  0.08071534  0.74948557  1  -0.091397  0.001054  -0.02971  -0.06956  -0.000265  4.003678  -0.001
C  C58  1  0.49108078  0.82033490  0.70826325  1  -0.037061  0.008619  -0.086641  -0.077866  0.006346  3.990943  0.005
C  C59  1  0.00892128  0.82033335  0.29173487  1  -0.037  0.008622  -0.086605  -0.077753  0.006349  3.990824  0.005
C  C60  1  0.50892131  0.17966668  0.29173545  1  -0.037023  0.008626  -0.086661  -0.077896  0.006352  3.990842  0.005
C  C61  1  0.99108072  0.17966483  0.70826689  1  -0.036991  0.008627  -0.086594  -0.077793  0.006352  3.9907  0.005
C  C62  1  0.43277543  0.76739449  0.62360856  1  0.076874  -0.002067  -0.108099  -0.209543  -0.002179  4.014097  -0.002
C  C63  1  0.06723108  0.76739533  0.37639302  1  0.0768  -0.002067  -0.108117  -0.209673  -0.002179  4.014272  -0.002
C  C64  1  0.56722986  0.23260113  0.37639316  1  0.076746  -0.002067  -0.108103  -0.209538  -0.002178  4.014225  -0.002
C  C65  1  0.93276987  0.23260115  0.62360723  1  0.076816  -0.002067  -0.108127  -0.209606  -0.002179  4.014178  -0.002
C  C66  1  0.30869273  0.81366624  0.57997265  1  0.35416  0.008079  0.080941  0.256573  0.006679  4.048729  0.006
C  C67  1  0.19130589  0.81366295  0.42003093  1  0.354234  0.008079  0.080843  0.256491  0.006679  4.049015  0.006
C  C68  1  0.69130714  0.18633704  0.42002684  1  0.35423  0.008084  0.080897  0.256524  0.006683  4.048771  0.006
C  C69  1  0.80869943  0.18633352  0.57997002  1  0.354341  0.008083  0.080822  0.256485  0.006682  4.049119  0.006
C  C70  1  0.24291525  0.91290395  0.61936784  1  -0.122066  -0.000733  -0.107976  -0.215771  -0.000905  4.014385  -0.001
C  C71  1  0.25708863  0.91290093  0.38063254  1  -0.121891  -0.000733  -0.107975  -0.215693  -0.000906  4.01434  -0.001
C  C72  1  0.75709126  0.08709593  0.38063004  1  -0.122016  -0.000732  -0.107937  -0.215703  -0.000905  4.014337  -0.001
C  C73  1  0.74291671  0.08709384  0.61936765  1  -0.122224  -0.000733  -0.107967  -0.215768  -0.000905  4.01437  -0.001
C  C74  1  0.30298440  0.96534140  0.70351859  1  -0.013647  0.006865  -0.085513  -0.078274  0.005196  3.989635  0.004
C  C75  1  0.19701717  0.96533769  0.29647984  1  -0.013832  0.006865  -0.085471  -0.078274  0.005196  3.98976  0.004
C  C76  1  0.69701767  0.03466103  0.29648088  1  -0.013437  0.006865  -0.085461  -0.07815  0.005195  3.989997  0.004
C  C77  1  0.80298595  0.03465878  0.70352114  1  -0.013729  0.006865  -0.085478  -0.07821  0.005196  3.989695  0.004
C  C78  1  0.30877184  0.79852819  0.07633246  1  0.423712  0.003994  0.051992  0.109293  0.002832  3.933347  0.003
C  C79  1  0.19122682  0.79852984  0.92367125  1  0.424305  0.003993  0.051909  0.109283  0.002832  3.933286  0.003
C  C80  1  0.69122581  0.20147339  0.92366782  1  0.423698  0.003993  0.052006  0.109374  0.002831  3.933357  0.003
C  C81  1  0.80877083  0.20147174  0.07632904  1  0.42412  0.003993  0.051905  0.109225  0.002832  3.933332  0.003
C  C82  1  0.31203962  0.68026469  0.07922754  1  -0.024231  0.001545  -0.086544  -0.179478  0.000955  3.943086  0.001
C  C83  1  0.18795522  0.68026467  0.92077032  1  -0.024435  0.001546  -0.086581  -0.179542  0.000955  3.94291  0.001
C  C84  1  0.68795479  0.31973774  0.92077125  1  -0.024389  0.001546  -0.086629  -0.179616  0.000956  3.943056  0.001
C  C85  1  0.81204138  0.31973605  0.07922844  1  -0.024204  0.001546  -0.086567  -0.179482  0.000956  3.942968  0.001
C  C86  1  0.25000008  0.61806674  0.00000205  1  -0.03001  0.002208  0.007235  0.094889  0.00161  3.990215  0.001
C  C87  1  0.74999753  0.38193484  0.99999977  1  -0.029873  0.002207  0.007215  0.094853  0.00161  3.990216  0.001
C  C88  1  0.25000029  0.49251077  0.00000182  1  0.013562  0.003383  0.009969  0.100051  0.002546  3.983839  0.002
C  C89  1  0.74999927  0.50749093  0.00000192  1  0.013558  0.003384  0.01  0.100232  0.002547  3.983948  0.002
C  C90  1  0.35433846  0.43027366  0.05295129  1  0.05358  0.000961  -0.083245  -0.177348  0.000564  3.948026  0.0
C  C91  1  0.14567241  0.43027346  0.94705157  1  0.053607  0.00096  -0.083291  -0.177271  0.000563  3.94832  0.0
C  C92  1  0.64566457  0.56972962  0.94705277  1  0.05357  0.00096  -0.083183  -0.177228  0.000563  3.948308  0.0
C  C93  1  0.85433401  0.56972641  0.05294937  1  0.053728  0.00096  -0.083295  -0.177429  0.000563  3.94829  0.0
C  C94  1  0.35177022  0.31207998  0.04947843  1  0.424769  0.004852  0.052893  0.100707  0.003756  3.940434  0.003
C  C95  1  0.14823119  0.31208059  0.95052325  1  0.424576  0.004853  0.052912  0.100751  0.003757  3.940418  0.003
C  C96  1  0.64822738  0.68791989  0.95052339  1  0.424562  0.004854  0.05289  0.100683  0.003758  3.940464  0.003
C  C97  1  0.85176859  0.68792013  0.04947931  1  0.424519  0.004854  0.052903  0.100748  0.003758  3.940344  0.003
C  C98  1  0.86206965  0.52486689  0.70158545  1  0.41976  6.8e-05  0.03681  0.085231  5.4e-05  4.013462  0.0
C  C99  1  0.63792483  0.52487094  0.29841176  1  0.420194  6.8e-05  0.036843  0.085259  5.4e-05  4.013473  0.0
C  C100  1  0.13792812  0.47513299  0.29841100  1  0.420053  6.8e-05  0.036811  0.085257  5.4e-05  4.013419  0.0
C  C101  1  0.36207069  0.47513064  0.70158626  1  0.419766  6.8e-05  0.036832  0.085309  5.4e-05  4.013476  0.0
C  C102  1  0.79327216  0.52304199  0.60810063  1  -0.041131  4.5e-05  -0.089024  -0.180077  3.5e-05  3.937897  0.0
C  C103  1  0.70672564  0.52304492  0.39189579  1  -0.041437  4.5e-05  -0.088966  -0.17996  3.5e-05  3.937909  0.0
C  C104  1  0.20672671  0.47695533  0.39189581  1  -0.041375  4.5e-05  -0.08902  -0.180037  3.5e-05  3.937918  0.0
C  C105  1  0.29326991  0.47695751  0.60810146  1  -0.041471  4.5e-05  -0.089007  -0.18005  3.5e-05  3.937764  0.0
C  C106  1  0.78357330  0.62385965  0.55080561  1  -0.03904  5.6e-05  0.004519  0.09081  4e-05  3.987321  0.0
C  C107  1  0.71642520  0.62385855  0.44919300  1  0.003001  5.6e-05  0.004495  0.090731  4e-05  3.987389  0.0
C  C108  1  0.21642337  0.37614108  0.44919085  1  0.00299  5.6e-05  0.004513  0.090824  4e-05  3.987296  0.0
C  C109  1  0.28357142  0.37614047  0.55080500  1  -0.039018  5.6e-05  0.004486  0.09076  4e-05  3.98722  0.0
C  C110  1  0.84072344  0.72267168  0.59496068  1  -0.086357  8.3e-05  -0.085465  -0.176461  7e-05  3.945678  0.0
C  C111  1  0.65927364  0.72267287  0.40503788  1  -0.0865  8.3e-05  -0.085415  -0.176382  7e-05  3.945653  0.0
C  C112  1  0.15927206  0.27732564  0.40503810  1  -0.086618  8.3e-05  -0.085412  -0.176433  7e-05  3.945666  0.0
C  C113  1  0.34072186  0.27732956  0.59496090  1  -0.086547  8.3e-05  -0.08545  -0.17647  7e-05  3.945735  0.0
C  C114  1  0.90610593  0.71607648  0.68975772  1  0.545343  0.000135  0.043414  0.095728  2.8e-05  3.965205  0.0
C  C115  1  0.59389010  0.71608050  0.31024014  1  0.545429  0.000135  0.043306  0.095631  2.7e-05  3.965154  0.0
C  C116  1  0.09389294  0.28392254  0.31023872  1  0.545632  0.000135  0.043354  0.095654  2.7e-05  3.965246  0.0
C  C117  1  0.40610431  0.28392107  0.68975865  1  0.545311  0.000135  0.04334  0.095629  2.7e-05  3.965219  0.0
N  N118  1  0.24999664  0.85821557  0.99999990  1  -1.27647  0.048971  -0.306262  -0.250834  0.034016  3.444503  0.019
N  N119  1  0.74999903  0.14178504  0.99999923  1  -1.276417  0.04897  -0.306283  -0.250849  0.034017  3.444508  0.019
N  N120  1  0.25000509  0.25296010  0.00000124  1  -1.239892  0.045845  -0.302187  -0.21031  0.033233  3.426194  0.02
N  N121  1  0.74999667  0.74704161  0.00000247  1  -1.239748  0.045849  -0.302197  -0.210268  0.033235  3.426045  0.02
N  N122  1  0.91961344  0.61880083  0.74275126  1  -1.183676  0.000176  -0.318701  -0.263528  4.2e-05  3.316683  0.0
N  N123  1  0.58038174  0.61880884  0.25724897  1  -1.183842  0.000176  -0.318729  -0.263572  4.2e-05  3.316697  0.0
N  N124  1  0.08038540  0.38119650  0.25724595  1  -1.183779  0.000176  -0.318705  -0.263557  4.2e-05  3.316735  0.0
N  N125  1  0.41961157  0.38119614  0.74274984  1  -1.18367  0.000176  -0.318683  -0.263521  4.2e-05  3.316768  0.0
O  O126  1  0.41454528  0.05892371  0.88140776  1  -1.210101  0.056916  -0.318116  -0.571023  0.037957  2.370845  0.019
O  O127  1  0.08545498  0.05892636  0.11858689  1  -1.209723  0.056903  -0.318052  -0.570937  0.037953  2.370745  0.019
O  O128  1  0.58545574  0.94107191  0.11859019  1  -1.209619  0.056902  -0.31809  -0.571032  0.037952  2.370433  0.019
O  O129  1  0.91454587  0.94107097  0.88141642  1  -1.209711  0.056909  -0.317997  -0.570971  0.037952  2.370368  0.019
O  O130  1  0.59720982  0.92847351  0.88073442  1  -1.201676  0.073355  -0.304344  -0.554603  0.053933  2.398055  0.038
O  O131  1  0.90279422  0.92847461  0.11926614  1  -1.201635  0.073351  -0.304349  -0.554549  0.053932  2.397989  0.038
O  O132  1  0.40279763  0.07152467  0.11926880  1  -1.201681  0.073356  -0.30419  -0.554311  0.053929  2.398338  0.038
O  O133  1  0.09720344  0.07152527  0.88073415  1  -1.201752  0.07335  -0.304215  -0.554423  0.053933  2.398445  0.038
O  O134  1  0.24999501  0.75351162  0.50000210  1  -1.118784  0.002383  -0.15616  -0.227701  0.001243  2.595573  0.001
O  O135  1  0.75000475  0.24648485  0.50000122  1  -1.118706  0.002384  -0.156175  -0.227704  0.001243  2.595625  0.001
