# generated using pymatgen
data_CuH12C18NO4
_symmetry_space_group_name_H-M   'P 1'
_cell_length_a   11.72923206
_cell_length_b   13.04946865
_cell_length_c   13.00540000
_cell_angle_alpha   97.80169685
_cell_angle_beta   105.54436602
_cell_angle_gamma   105.31701982
_symmetry_Int_Tables_number   1
_chemical_formula_structural   CuH12C18NO4
_chemical_formula_sum   'Cu4 H48 C72 N4 O16'
_cell_volume   1803.40718676
_cell_formula_units_Z   4
loop_
 _symmetry_equiv_pos_site_id
 _symmetry_equiv_pos_as_xyz
  1  'x, y, z'
loop_
 _atom_site_type_symbol
 _atom_site_label
 _atom_site_symmetry_multiplicity
 _atom_site_fract_x
 _atom_site_fract_y
 _atom_site_fract_z
 _atom_site_occupancy
 _atom_site_hle17_ddec_charge
 _atom_site_hle17_ddec_spin_density
 _atom_site_hle17_ddec_sum_bond_order
 _atom_site_hle17_magmom
 _atom_site_hse06_10hf_ddec_charge
 _atom_site_hse06_10hf_ddec_spin_density
 _atom_site_hse06_10hf_ddec_sum_bond_order
 _atom_site_hse06_10hf_magmom
 _atom_site_hse06_ddec_charge
 _atom_site_hse06_ddec_spin_density
 _atom_site_hse06_ddec_sum_bond_order
 _atom_site_hse06_magmom
 _atom_site_pbe_bader_charge
 _atom_site_pbe_bader_spin_density
 _atom_site_pbe_cm5_charge
 _atom_site_pbe_ddec_charge
 _atom_site_pbe_ddec_spin_density
 _atom_site_pbe_ddec_sum_bond_order
 _atom_site_pbe_magmom
Cu  Cu0  1  0.12932469  0.67339945  0.23669393  1  0.848128  0.683734  1.939861  0.494  0.838302  0.80239  2.351055  0.639  0.964148  0.891899  2.223703  0.741  1.070887  0.543197  0.693336  0.772476  0.695627  2.410949  0.54
Cu  Cu1  1  0.37059647  0.76277696  0.32715260  1  0.848257  -0.683578  1.93811  -0.494  0.838406  -0.802156  2.34921  -0.638  0.936968  -0.891741  2.267619  -0.741  1.067877  -0.542441  0.693114  0.77305  -0.695157  2.408598  -0.539
Cu  Cu2  1  0.87066532  0.32659264  0.76330573  1  0.848153  0.683816  1.94006  0.494  0.838194  0.802435  2.351605  0.639  0.964107  0.891906  2.224017  0.741  1.071311  0.543534  0.693368  0.772341  0.696039  2.411485  0.54
Cu  Cu3  1  0.62939089  0.23721270  0.67284686  1  0.848049  -0.683555  1.938244  -0.494  0.838189  -0.802152  2.349386  -0.638  0.936884  -0.89174  2.267613  -0.741  1.068006  -0.542601  0.693087  0.772881  -0.695401  2.408738  -0.539
H  H4  1  0.10570763  0.33624785  0.18638526  1  0.103684  0.000257  0.956677  0.0  0.112416  0.000215  1.024028  0.0  0.115736  0.000136  1.021166  0.0  0.111642  0.000329  0.106021  0.109991  0.000262  1.026312  0.0
H  H5  1  0.39371033  0.81349288  0.66374977  1  0.103402  -0.000257  0.956387  0.0  0.112117  -0.000216  1.023567  0.0  0.115497  -0.000137  1.020724  0.0  0.116626  -0.000331  0.10606  0.109626  -0.000265  1.025921  0.0
H  H6  1  0.89429566  0.66374425  0.81360916  1  0.103635  0.00026  0.956644  0.0  0.112364  0.000215  1.024011  0.0  0.115684  0.000137  1.021148  0.0  0.111613  0.000329  0.106007  0.109931  0.000263  1.026299  0.0
H  H7  1  0.60628528  0.18650492  0.33624280  1  0.103416  -0.000258  0.956444  0.0  0.112171  -0.000216  1.023567  0.0  0.115555  -0.000137  1.020713  0.0  0.116781  -0.000331  0.106077  0.109671  -0.000265  1.025943  0.0
H  H8  1  0.48424207  0.48708033  0.39672509  1  0.099149  -0.000199  0.956889  0.0  0.108976  -0.000164  1.018605  0.0  0.112276  -0.000104  1.016504  0.0  0.089402  -0.000221  0.101435  0.106705  -0.000201  1.020038  0.0
H  H9  1  0.01586706  0.60335682  0.51160363  1  0.09802  0.000203  0.958507  0.0  0.108579  0.000157  1.019456  0.0  0.111816  0.0001  1.017354  0.0  0.07867  0.000209  0.10209  0.106294  0.000192  1.02091  0.0
H  H10  1  0.51574912  0.51291502  0.60325992  1  0.099203  -0.000202  0.956791  0.0  0.10905  -0.000164  1.018498  0.0  0.112353  -0.000104  1.016387  0.0  0.08944  -0.000221  0.10144  0.106769  -0.0002  1.019936  0.0
H  H11  1  0.98412944  0.39664099  0.48840069  1  0.097984  0.000202  0.958532  0.0  0.10853  0.000157  1.019495  0.0  0.111753  0.0001  1.017411  0.0  0.078733  0.000208  0.102106  0.106241  0.000192  1.020961  0.0
H  H12  1  0.50470001  0.30535167  0.41870215  1  0.110603  0.000182  0.948801  0.0  0.118451  0.000123  1.012835  0.0  0.121256  9.4e-05  1.012244  0.0  0.10062  0.000235  0.104419  0.116252  0.000132  1.013817  0.0
H  H13  1  0.99589694  0.58154214  0.69407386  1  0.110651  -0.00019  0.947781  0.0  0.118737  -0.000123  1.011392  0.0  0.121551  -9.3e-05  1.010807  0.0  0.101456  -0.000241  0.105013  0.116519  -0.000134  1.012389  0.0
H  H14  1  0.49529266  0.69464042  0.58129661  1  0.11073  0.00019  0.948747  0.0  0.118556  0.000123  1.012817  0.0  0.121361  9.4e-05  1.012225  0.0  0.100942  0.000236  0.104448  0.116354  0.000132  1.0138  0.0
H  H15  1  0.00409277  0.41845892  0.30592233  1  0.110604  -0.000179  0.948016  0.0  0.118715  -0.000123  1.01159  0.0  0.12153  -9.3e-05  1.011003  0.0  0.101508  -0.000242  0.105012  0.116497  -0.000134  1.01259  0.0
H  H16  1  0.01074225  0.13557957  0.14513441  1  0.100053  -0.00014  0.93607  0.0  0.113268  -0.000126  0.989308  0.0  0.116122  -7.8e-05  0.98878  0.0  0.105341  -0.000281  0.106035  0.111295  -0.000156  0.989719  0.0
H  H17  1  0.48891303  0.85472636  0.86513281  1  0.100592  0.000143  0.934606  0.0  0.113841  0.000125  0.987771  0.0  0.116722  7.8e-05  0.987202  0.0  0.114433  0.00028  0.106492  0.111843  0.000156  0.988217  0.0
H  H18  1  0.98924040  0.86440927  0.85485764  1  0.100156  -0.000139  0.936011  0.0  0.113374  -0.000126  0.989237  0.0  0.116229  -7.8e-05  0.988708  0.0  0.105318  -0.000282  0.105998  0.111388  -0.000156  0.989656  0.0
H  H19  1  0.51108907  0.14527226  0.13486758  1  0.100621  0.000134  0.934635  0.0  0.113862  0.000126  0.987805  0.0  0.116743  7.8e-05  0.987235  0.0  0.114341  0.00028  0.106492  0.111871  0.000156  0.98825  0.0
H  H20  1  0.02936731  0.95335568  0.17101913  1  0.108823  9.8e-05  0.933902  0.0  0.119782  8.3e-05  0.988605  0.0  0.123493  4.4e-05  0.986299  0.0  0.079353  0.000112  0.107982  0.117206  0.000112  0.990269  0.0
H  H21  1  0.47087205  0.82891856  0.04813116  1  0.109485  -9.9e-05  0.932849  0.0  0.120707  -7.9e-05  0.987193  0.0  0.124297  -4.2e-05  0.985054  0.0  0.075263  -0.000108  0.109399  0.11818  -0.000109  0.988797  0.0
H  H22  1  0.97062652  0.04664457  0.82898103  1  0.108802  9.6e-05  0.933831  0.0  0.119793  8.3e-05  0.988501  0.0  0.123505  4.4e-05  0.986192  0.0  0.078956  0.000111  0.107981  0.117206  0.000112  0.990167  0.0
H  H23  1  0.52912210  0.17107028  0.95186752  1  0.109505  -9.3e-05  0.932833  0.0  0.120731  -7.9e-05  0.987176  0.0  0.124321  -4.2e-05  0.985036  0.0  0.075166  -0.000108  0.109396  0.118209  -0.000109  0.988782  0.0
H  H24  1  0.41088725  0.10375601  0.37504540  1  0.113056  -0.000154  0.943753  0.0  0.120675  -0.000159  1.010987  0.0  0.123929  -9.2e-05  1.008385  0.0  0.127281  -0.000242  0.1082  0.118376  -0.000204  1.012905  0.0
H  H25  1  0.08992692  0.62515193  0.89642967  1  0.113187  0.000142  0.943237  0.0  0.120738  0.000153  1.010489  0.0  0.124055  8.8e-05  1.007739  0.0  0.100647  0.000231  0.108355  0.118407  0.000197  1.012438  0.0
H  H26  1  0.58910984  0.89623609  0.62495597  1  0.113079  -0.000157  0.943782  0.0  0.12073  -0.000159  1.010963  0.0  0.123987  -9.2e-05  1.008366  0.0  0.127263  -0.000243  0.108218  0.118425  -0.000204  1.012887  0.0
H  H27  1  0.91006397  0.37484750  0.10356505  1  0.113057  0.000151  0.943363  0.0  0.120639  0.000153  1.010585  0.0  0.123952  8.8e-05  1.00784  0.0  0.100674  0.000232  0.108331  0.11831  0.000198  1.012535  0.0
H  H28  1  0.93342771  0.60731245  0.00839891  1  0.085872  -1.5e-05  0.939577  0.0  0.095007  -2e-05  1.003  0.0  0.09853  -4.5e-05  0.999272  0.0  0.11885  1.2e-05  0.115616  0.092409  1.4e-05  1.005803  0.0
H  H29  1  0.56567507  0.99075739  0.39267734  1  0.086224  2e-05  0.939314  0.0  0.095551  2.3e-05  1.002434  0.0  0.099171  4.7e-05  0.998487  0.0  0.118572  6e-06  0.115912  0.09291  -8e-06  1.005329  0.0
H  H30  1  0.06657585  0.39269268  0.99161042  1  0.085859  -1.5e-05  0.939502  0.0  0.094981  -2e-05  1.00295  0.0  0.098512  -4.5e-05  0.999208  0.0  0.118878  1.2e-05  0.115599  0.09238  1.4e-05  1.005757  0.0
H  H31  1  0.43432024  0.00924204  0.60732537  1  0.086174  2.2e-05  0.939368  0.0  0.09552  2.3e-05  1.002459  0.0  0.099136  4.7e-05  0.99852  0.0  0.118695  6e-06  0.115916  0.092883  -8e-06  1.005349  0.0
H  H32  1  0.90752493  0.60902787  0.31905446  1  0.073279  -1.9e-05  0.956106  0.0  0.081907  -3.4e-05  1.022664  0.0  0.085244  -5.1e-05  1.019335  0.0  0.120718  -1.4e-05  0.111145  0.079435  -8e-06  1.025196  0.0
H  H33  1  0.59374940  0.68177849  0.39135942  1  0.07418  2.8e-05  0.95407  0.0  0.082571  3.9e-05  1.020695  0.0  0.085974  5.3e-05  1.017139  0.0  0.128815  3.5e-05  0.111652  0.080104  1.8e-05  1.023207  0.0
H  H34  1  0.09248480  0.39098949  0.68094726  1  0.07332  -2e-05  0.956053  0.0  0.08193  -3.4e-05  1.022626  0.0  0.08527  -5.1e-05  1.019289  0.0  0.120513  -1.4e-05  0.111145  0.079456  -8e-06  1.025163  0.0
H  H35  1  0.40625594  0.31822175  0.60864891  1  0.074157  3e-05  0.954016  0.0  0.082506  3.9e-05  1.020704  0.0  0.085925  5.4e-05  1.017129  0.0  0.128912  3.5e-05  0.111632  0.080042  1.8e-05  1.023216  0.0
H  H36  1  0.70573503  0.57670720  0.92814382  1  0.101056  -1.7e-05  0.964812  0.0  0.113099  3e-06  1.0234  0.0  0.115996  -0.0  1.023463  0.0  0.071807  1e-05  0.103117  0.111027  7e-06  1.023504  0.0
H  H37  1  0.79302339  0.07077933  0.42304357  1  0.100838  1.7e-05  0.964571  0.0  0.11286  2e-06  1.023048  0.0  0.1157  3e-06  1.023224  0.0  0.101005  5e-06  0.103274  0.110875  1e-06  1.023042  0.0
H  H38  1  0.29427884  0.42330445  0.07185659  1  0.101026  -2.8e-05  0.964746  0.0  0.11308  3e-06  1.023316  0.0  0.115975  -0.0  1.023382  0.0  0.071641  1e-05  0.103118  0.111007  6e-06  1.023421  0.0
H  H39  1  0.20697369  0.92922010  0.57695188  1  0.100833  2.7e-05  0.964548  0.0  0.112884  1e-06  1.022985  0.0  0.115724  3e-06  1.02316  0.0  0.101048  6e-06  0.103286  0.110888  1e-06  1.022992  0.0
H  H40  1  0.67626076  0.57444579  0.25181776  1  0.100051  -4e-06  0.948066  0.0  0.114127  4e-06  1.002607  0.0  0.117471  0.0  1.001663  0.0  0.073104  1.1e-05  0.105387  0.111766  1e-05  1.003358  0.0
H  H41  1  0.82475833  0.74885970  0.42562648  1  0.100495  9e-06  0.948654  0.0  0.114291  1e-06  1.003376  0.0  0.117657  3e-06  1.002442  0.0  0.07509  4e-06  0.105107  0.111947  -2e-06  1.004107  0.0
H  H42  1  0.32374513  0.42557564  0.74819051  1  0.1001  0.0  0.948107  0.0  0.114145  4e-06  1.002665  0.0  0.117505  0.0  1.001701  0.0  0.072905  1.1e-05  0.105357  0.111784  1e-05  1.003419  0.0
H  H43  1  0.17524789  0.25114544  0.57437350  1  0.100494  8e-06  0.948661  0.0  0.11428  1e-06  1.003384  0.0  0.117646  3e-06  1.002452  0.0  0.075362  3e-06  0.10511  0.111941  -3e-06  1.004114  0.0
H  H44  1  0.51728606  0.62005459  0.99584438  1  0.085471  -2.7e-05  0.925019  0.0  0.104952  -2.5e-05  0.980956  0.0  0.106222  -1.9e-05  0.981228  0.0  0.041077  -4.9e-05  0.097959  0.104076  -2.9e-05  0.980806  0.0
H  H45  1  0.98180445  0.00334607  0.37916989  1  0.08499  2.7e-05  0.923921  0.0  0.104594  2.4e-05  0.980082  0.0  0.10588  1.8e-05  0.980319  0.0  0.047816  4.7e-05  0.09802  0.103708  2.8e-05  0.979942  0.0
H  H46  1  0.48272397  0.37996114  0.00414950  1  0.085485  -2.7e-05  0.924916  0.0  0.105048  -2.5e-05  0.98078  0.0  0.106331  -1.8e-05  0.981038  0.0  0.041221  -4.8e-05  0.097975  0.104164  -2.9e-05  0.980635  0.0
H  H47  1  0.01818732  0.99665825  0.62082033  1  0.085047  2.2e-05  0.924043  0.0  0.104643  2.4e-05  0.980167  0.0  0.105912  1.8e-05  0.980419  0.0  0.047931  4.7e-05  0.098077  0.103762  2.8e-05  0.980018  0.0
H  H48  1  0.49487171  0.56333105  0.10714246  1  0.086922  2e-06  0.923273  0.0  0.104616  -5e-06  0.980953  0.0  0.106445  4e-06  0.979919  0.0  0.048388  -1.6e-05  0.097575  0.103361  -1.1e-05  0.981594  0.0
H  H49  1  0.00527178  0.89294788  0.43698829  1  0.086403  -3e-06  0.922803  0.0  0.104174  5e-06  0.980718  0.0  0.105992  -4e-06  0.97965  0.0  0.047634  1.6e-05  0.09749  0.102933  1.2e-05  0.981345  0.0
H  H50  1  0.50514393  0.43668305  0.89285640  1  0.08679  1e-06  0.923375  0.0  0.104543  -5e-06  0.980984  0.0  0.106374  4e-06  0.979952  0.0  0.047606  -1.6e-05  0.097523  0.103286  -1.1e-05  0.981627  0.0
H  H51  1  0.99473355  0.10705970  0.56300180  1  0.086352  -8e-06  0.922886  0.0  0.104182  5e-06  0.980715  0.0  0.106  -4e-06  0.97964  0.0  0.047543  1.6e-05  0.097449  0.102942  1.1e-05  0.981348  0.0
C  C52  1  0.27837588  0.53067627  0.28166877  1  0.629435  -0.000113  3.881605  0.0  0.593159  -0.00021  4.17439  0.0  0.634914  -0.000179  4.168814  0.0  1.551112  -0.000117  0.208483  0.564188  -0.000164  4.179075  0.0
C  C53  1  0.22134749  0.71838321  0.46886864  1  0.631433  7.9e-05  3.884387  0.0  0.593945  0.000161  4.178078  0.0  0.635789  0.000135  4.172352  0.0  1.545966  8.4e-05  0.209391  0.564862  0.000114  4.182994  0.0
C  C54  1  0.72163595  0.46932234  0.71832860  1  0.629377  -0.000113  3.881907  0.0  0.593091  -0.000209  4.17468  0.0  0.634864  -0.000179  4.169101  0.0  1.550874  -0.000111  0.208524  0.564124  -0.000159  4.17936  0.0
C  C55  1  0.77866554  0.28160645  0.53113856  1  0.631522  7.1e-05  3.884237  0.0  0.594035  0.000162  4.177952  0.0  0.635884  0.000135  4.17223  0.0  1.546761  8.4e-05  0.209502  0.56495  0.000117  4.182876  0.0
C  C56  1  0.29292225  0.42142524  0.28968818  1  -0.0633  -0.000473  3.779891  0.0  -0.042524  -0.000112  4.012297  0.0  -0.052203  -8.8e-05  4.034086  0.0  -0.03531  -0.000123  -0.022218  -0.035309  -0.000135  3.997279  0.0
C  C57  1  0.20682418  0.71038800  0.57817069  1  -0.064309  0.000466  3.785  0.0  -0.042811  8.7e-05  4.0171  0.0  -0.052651  5.5e-05  4.039008  0.0  -0.03461  3.1e-05  -0.022179  -0.035529  6.7e-05  4.002042  0.0
C  C58  1  0.70708369  0.57857175  0.71031369  1  -0.063566  -0.000464  3.779807  0.0  -0.042773  -0.000115  4.012226  0.0  -0.052456  -8e-05  4.03401  0.0  -0.035316  -0.000133  -0.022333  -0.035566  -0.000142  3.99721  0.0
C  C59  1  0.79318058  0.28960573  0.42183660  1  -0.064601  0.000413  3.785285  0.0  -0.043098  8.8e-05  4.017425  0.0  -0.05294  5e-05  4.039322  0.0  -0.034996  2.1e-05  -0.022268  -0.035799  6e-05  4.002346  0.0
C  C60  1  0.19255727  0.32845311  0.23628320  1  -0.105336  -0.000472  3.704561  -0.001  -0.13797  -0.000255  3.951355  -0.001  -0.136232  -0.000156  3.969128  0.0  -0.095599  -0.000492  -0.07721  -0.139243  -0.000285  3.939813  -0.001
C  C61  1  0.30713519  0.76377035  0.67154223  1  -0.104655  0.000468  3.708547  0.001  -0.137635  0.000247  3.95511  0.001  -0.13585  0.000166  3.972854  0.0  -0.089728  0.000481  -0.07716  -0.138974  0.000283  3.943732  0.001
C  C62  1  0.80744216  0.67154795  0.76371919  1  -0.105189  -0.000492  3.704478  -0.001  -0.137786  -0.000252  3.951266  -0.001  -0.136049  -0.000165  3.969031  0.0  -0.095589  -0.000493  -0.077192  -0.139056  -0.000285  3.939716  -0.001
C  C63  1  0.69286425  0.23622827  0.32846291  1  -0.104425  0.000537  3.708516  0.001  -0.137419  0.000244  3.955061  0.001  -0.135631  0.000172  3.9728  0.0  -0.090398  0.000485  -0.07704  -0.138763  0.000286  3.943683  0.001
C  C64  1  0.40695431  0.41275527  0.35511359  1  -0.082967  0.000759  3.75882  0.001  -0.107016  0.000435  4.009097  0.001  -0.107403  0.000304  4.030202  0.001  -0.001331  0.000777  -0.092739  -0.106712  0.000484  3.994776  0.001
C  C65  1  0.09308281  0.64491545  0.58638299  1  -0.080461  -0.000861  3.760878  -0.001  -0.10526  -0.000432  4.011171  -0.001  -0.105453  -0.000305  4.032064  -0.001  -0.006574  -0.000798  -0.092969  -0.105015  -0.00049  3.996913  -0.001
C  C66  1  0.59304426  0.58723601  0.64487881  1  -0.08284  0.000791  3.75831  0.001  -0.106923  0.000433  4.008599  0.001  -0.10731  0.000306  4.029702  0.001  -0.001649  0.000779  -0.092657  -0.106626  0.000486  3.994286  0.001
C  C67  1  0.90691398  0.35508317  0.41362151  1  -0.080398  -0.000785  3.760915  -0.001  -0.105172  -0.000431  4.011209  -0.001  -0.105351  -0.000304  4.032104  -0.001  -0.006258  -0.000799  -0.093013  -0.104923  -0.000491  3.996949  -0.001
C  C68  1  0.20082244  0.22424320  0.24715731  1  0.056987  -0.000163  3.79736  0.0  0.074951  -0.000218  4.023147  0.0  0.073835  -0.000123  4.048333  0.0  0.045355  -0.000386  -0.006918  0.075517  -0.000284  4.006286  0.0
C  C69  1  0.29913984  0.75285364  0.77602120  1  0.057993  0.000186  3.799172  0.0  0.076523  0.000218  4.023644  0.0  0.075421  0.00012  4.048724  0.0  0.052764  0.00039  -0.00662  0.07706  0.000287  4.006877  0.0
C  C70  1  0.79916757  0.77575135  0.75283730  1  0.057053  -0.000138  3.797152  0.0  0.074902  -0.000221  4.023031  0.0  0.0738  -0.000122  4.048189  0.0  0.046021  -0.000386  -0.006893  0.075462  -0.000284  4.006163  0.0
C  C71  1  0.70085547  0.24714335  0.22398272  1  0.057842  0.000113  3.799241  0.0  0.076374  0.000219  4.023801  0.0  0.075278  0.000118  4.048878  0.0  0.053354  0.000391  -0.006703  0.076918  0.000287  4.007034  0.0
C  C72  1  0.41806891  0.31232090  0.36704452  1  -0.107641  -0.000303  3.73097  0.0  -0.129122  0.000267  3.987568  0.0  -0.133224  0.000166  4.010652  0.0  -0.062678  0.000397  -0.086832  -0.126501  0.000322  3.972509  0.0
C  C73  1  0.08224470  0.63300290  0.68713046  1  -0.108883  0.000404  3.735831  0.0  -0.130836  -0.000278  3.992616  0.0  -0.13488  -0.00017  4.015486  0.0  -0.056614  -0.000406  -0.087741  -0.128249  -0.000332  3.977668  0.0
C  C74  1  0.58192612  0.68767039  0.63294548  1  -0.107857  -0.000345  3.730709  0.0  -0.129339  0.00027  3.987319  0.0  -0.133442  0.000165  4.010406  0.0  -0.062678  0.000396  -0.0869  -0.126722  0.000321  3.972257  0.0
C  C75  1  0.91774825  0.36699979  0.31287443  1  -0.108896  0.000289  3.735908  0.0  -0.130829  -0.000281  3.992708  0.0  -0.134875  -0.000172  4.015572  0.0  -0.056794  -0.000407  -0.08777  -0.128242  -0.000333  3.977771  0.0
C  C76  1  0.31592816  0.21578022  0.31392996  1  0.058484  0.00069  3.78547  0.001  0.073067  0.000213  4.017036  0.0  0.072227  0.000112  4.042678  0.0  -0.069029  0.000372  -0.005323  0.073662  0.000277  3.999823  0.0
C  C77  1  0.18433934  0.68610410  0.78414344  1  0.057892  -0.000742  3.790552  -0.001  0.073216  -0.000208  4.020507  0.0  0.072405  -0.000111  4.046028  0.0  -0.063434  -0.000376  -0.005216  0.073781  -0.000278  4.003385  0.0
C  C78  1  0.68406096  0.78421677  0.68607400  1  0.05851  0.00067  3.785692  0.001  0.073204  0.000211  4.017159  0.0  0.072361  0.000112  4.042801  0.0  -0.06881  0.000372  -0.005319  0.073799  0.000277  3.999941  0.0
C  C79  1  0.81565301  0.31389696  0.21585878  1  0.058052  -0.000657  3.79013  -0.001  0.073247  -0.000208  4.020292  0.0  0.072436  -0.000111  4.045808  0.0  -0.063481  -0.000377  -0.005226  0.07381  -0.000279  4.003182  0.0
C  C80  1  0.09778419  0.12813932  0.19560000  1  -0.113152  -0.001547  3.755813  -0.002  -0.134052  -0.000425  4.006087  -0.001  -0.137814  -0.000248  4.028351  0.0  -0.080779  -0.000725  -0.08723  -0.131413  -0.000533  3.990886  -0.001
C  C81  1  0.40220094  0.80436574  0.87259074  1  -0.114088  0.001514  3.756295  0.002  -0.135328  0.000426  4.006534  0.001  -0.139055  0.000247  4.028631  0.0  -0.08343  0.000715  -0.08796  -0.132722  0.00053  3.991488  0.001
C  C82  1  0.90220375  0.87185930  0.80439774  1  -0.113383  -0.001591  3.755713  -0.002  -0.134258  -0.000423  4.006019  -0.001  -0.138025  -0.000249  4.028278  0.0  -0.081402  -0.000727  -0.087239  -0.131621  -0.000535  3.990822  -0.001
C  C83  1  0.59779702  0.19563614  0.12740910  1  -0.114153  0.001651  3.756176  0.002  -0.135368  0.000425  4.006435  0.001  -0.139098  0.000251  4.028529  0.0  -0.083287  0.000715  -0.087943  -0.132763  0.00053  3.991392  0.001
C  C84  1  0.10758864  0.02778725  0.20960067  1  -0.079196  -0.000349  3.759449  -0.001  -0.105019  -0.00057  4.012898  -0.001  -0.105146  -0.000378  4.032821  -0.001  -0.030428  -0.00105  -0.08707  -0.104976  -0.00067  3.999311  -0.001
C  C85  1  0.39267160  0.79045337  0.97326911  1  -0.078839  0.000394  3.760714  0.001  -0.104463  0.000565  4.014641  0.001  -0.104499  0.000377  4.034486  0.001  -0.031824  0.001052  -0.086823  -0.104511  0.000669  4.001205  0.001
C  C86  1  0.89240077  0.97221055  0.79040655  1  -0.079123  -0.000308  3.759618  -0.001  -0.104981  -0.000571  4.01307  -0.001  -0.105105  -0.000378  4.032993  -0.001  -0.029669  -0.00105  -0.087065  -0.104955  -0.00067  3.999474  -0.001
C  C87  1  0.60732607  0.20955013  0.02672703  1  -0.078809  0.000278  3.760438  0.001  -0.104462  0.000566  4.01437  0.001  -0.104495  0.000374  4.03421  0.001  -0.031799  0.001054  -0.086782  -0.104505  0.000671  4.000937  0.001
C  C88  1  0.32404369  0.11144725  0.32490031  1  -0.106131  -0.000562  3.685519  0.0  -0.142766  0.000284  3.940665  0.001  -0.142233  0.000273  3.959576  0.0  -0.107015  0.000504  -0.078712  -0.143483  0.000255  3.928197  0.001
C  C89  1  0.17646292  0.67516376  0.88873405  1  -0.104252  0.000633  3.686787  0.0  -0.140693  -0.000306  3.941522  -0.001  -0.1401  -0.000281  3.960055  0.0  -0.012998  -0.000511  -0.07783  -0.141445  -0.000272  3.929197  -0.001
C  C90  1  0.67594839  0.88854811  0.67510798  1  -0.106148  -0.000508  3.685724  0.0  -0.142841  0.000288  3.940841  0.001  -0.142314  0.000272  3.959758  0.0  -0.107779  0.000507  -0.078774  -0.143576  0.000257  3.928369  0.001
C  C91  1  0.82353180  0.32484137  0.11126852  1  -0.104227  0.000488  3.686702  0.0  -0.14067  -0.000312  3.94146  -0.001  -0.140079  -0.000283  3.959994  0.0  -0.01301  -0.000515  -0.077794  -0.141422  -0.000274  3.929139  -0.001
C  C92  1  0.22202916  0.01917025  0.27403246  1  -0.041126  -0.001143  3.75154  -0.001  -0.020136  -0.000378  3.985963  0.0  -0.028667  -0.000294  4.007384  0.0  0.010408  -0.000547  -0.011952  -0.013567  -0.000374  3.9712  0.0
C  C93  1  0.27845071  0.72609645  0.98141597  1  -0.04166  0.000982  3.756738  0.001  -0.021759  0.000312  3.992226  0.0  -0.030154  0.000256  4.01328  0.0  -0.064856  0.000339  -0.012869  -0.015267  0.000241  3.977707  0.0
C  C94  1  0.77796822  0.98082511  0.72596943  1  -0.041223  -0.001189  3.751738  -0.001  -0.020247  -0.000382  3.986184  0.0  -0.028781  -0.000294  4.007604  0.0  0.010203  -0.000559  -0.012003  -0.013651  -0.000383  3.971383  0.0
C  C95  1  0.72155346  0.27389809  0.01858206  1  -0.041474  0.001079  3.756755  0.001  -0.02157  0.000315  3.992129  0.0  -0.02996  0.000259  4.013178  0.0  -0.064848  0.000332  -0.012843  -0.015078  0.000236  3.977612  0.0
C  C96  1  0.23248333  0.90911921  0.28433240  1  0.635384  0.000324  3.875509  0.001  0.598569  -1e-05  4.172285  0.0  0.640331  -6e-06  4.167174  0.0  1.537434  0.000239  0.208926  0.569753  3.2e-05  4.176596  0.0
C  C97  1  0.26782822  0.71572085  0.09144269  1  0.636262  -0.000289  3.876197  -0.001  0.599701  1e-05  4.171638  0.0  0.641429  1.2e-05  4.166517  0.0  1.523845  -0.000242  0.210278  0.570808  -4.8e-05  4.176191  0.0
C  C98  1  0.76752231  0.09087696  0.71567390  1  0.635548  0.000342  3.875671  0.001  0.598782  -1e-05  4.17233  0.0  0.640548  -5e-06  4.167227  0.0  1.5375  0.000246  0.209  0.569955  3.9e-05  4.176642  0.0
C  C99  1  0.73218302  0.28427858  0.90855695  1  0.635594  -0.000298  3.876684  -0.001  0.599173  1.1e-05  4.171922  0.0  0.640899  1.3e-05  4.166828  0.0  1.523923  -0.000238  0.210063  0.570285  -4.3e-05  4.176471  0.0
C  C100  1  0.87293533  0.60035871  0.05950379  1  0.136175  -0.000618  3.706831  -0.001  0.110706  -0.000352  3.959614  0.0  0.119129  -0.000394  3.978002  0.0  0.461895  -0.000492  0.046718  0.105226  -0.0003  3.948204  0.0
C  C101  1  0.62654385  0.93994857  0.39975158  1  0.136574  0.00053  3.704459  0.001  0.110826  0.00035  3.957534  0.0  0.119499  0.000378  3.973893  0.0  0.456835  0.000495  0.045997  0.105316  0.000311  3.946221  0.0
C  C102  1  0.12706941  0.39964479  0.94050022  1  0.13624  -0.000658  3.706442  -0.001  0.110791  -0.000351  3.959221  0.0  0.119209  -0.000395  3.977619  0.0  0.461826  -0.000494  0.046752  0.105309  -0.000302  3.947814  0.0
C  C103  1  0.37345353  0.06005168  0.60024867  1  0.136673  0.000586  3.704343  0.001  0.110906  0.00035  3.957441  0.0  0.119582  0.000377  3.973805  0.0  0.456701  0.000496  0.045993  0.1054  0.000313  3.946128  0.0
C  C104  1  0.85801715  0.60080122  0.23287579  1  0.129325  -0.00057  3.736232  -0.001  0.102876  -0.000335  3.993258  0.0  0.110676  -0.000379  4.013311  0.0  0.416695  -0.000461  0.042568  0.097832  -0.000288  3.980802  0.0
C  C105  1  0.64274317  0.76756381  0.39946065  1  0.127716  0.000498  3.736741  0.0  0.101447  0.000343  3.993915  0.0  0.10947  0.000373  4.011997  0.0  0.397967  0.000481  0.042112  0.096429  0.000312  3.981452  0.0
C  C106  1  0.14198022  0.39920147  0.76712479  1  0.129324  -0.000574  3.736251  -0.001  0.102903  -0.000333  3.99325  0.0  0.1107  -0.000381  4.013314  0.0  0.416791  -0.000463  0.042528  0.097856  -0.000289  3.980796  0.0
C  C107  1  0.35725952  0.23243643  0.60054472  1  0.127806  0.000538  3.736737  0.001  0.101549  0.000344  3.993915  0.0  0.109566  0.000372  4.011998  0.0  0.397748  0.000481  0.04212  0.09653  0.000312  3.981458  0.0
C  C108  1  0.74588506  0.58279060  0.01550736  1  -0.174103  0.000634  3.714831  0.001  -0.188504  0.000311  3.951402  0.0  -0.196613  0.000281  3.971886  0.0  -0.024567  0.000491  -0.087025  -0.183136  0.000339  3.937347  0.0
C  C109  1  0.75342306  0.98383054  0.41715710  1  -0.174709  -0.000471  3.71418  0.0  -0.188794  -0.000267  3.950992  0.0  -0.19701  -0.000246  3.97179  0.0  -0.089268  -0.000402  -0.086793  -0.183456  -0.000278  3.936886  0.0
C  C110  1  0.25412056  0.41721535  0.98449027  1  -0.174032  0.000695  3.71474  0.001  -0.188471  0.00031  3.951303  0.0  -0.196579  0.000281  3.971789  0.0  -0.024593  0.000492  -0.08702  -0.183113  0.000339  3.937255  0.0
C  C111  1  0.24657402  0.01617133  0.58284022  1  -0.174695  -0.00057  3.71419  -0.001  -0.188808  -0.000267  3.951007  0.0  -0.197022  -0.000244  3.9718  0.0  -0.089222  -0.000403  -0.086765  -0.183458  -0.000279  3.936903  0.0
C  C112  1  0.73000451  0.58195694  0.19496025  1  -0.182863  0.000622  3.738412  0.001  -0.198186  0.00031  3.976266  0.0  -0.20667  0.000276  3.997484  0.0  0.080848  0.000489  -0.088409  -0.192597  0.000334  3.961734  0.0
C  C113  1  0.77065878  0.80541781  0.41819791  1  -0.18333  -0.00048  3.738722  -0.001  -0.198168  -0.00026  3.976406  0.0  -0.206785  -0.000238  3.997911  0.0  0.096032  -0.000393  -0.088055  -0.192595  -0.000267  3.961854  0.0
C  C114  1  0.26999579  0.41805635  0.80503786  1  -0.182885  0.000613  3.738404  0.001  -0.198224  0.000309  3.976242  0.0  -0.206725  0.000278  3.997458  0.0  0.081095  0.000489  -0.088359  -0.192647  0.000334  3.961721  0.0
C  C115  1  0.22934330  0.19458570  0.58180469  1  -0.183261  -0.00053  3.738665  -0.001  -0.198082  -0.000261  3.976326  0.0  -0.206699  -0.000237  3.997833  0.0  0.095758  -0.000394  -0.087975  -0.19251  -0.000268  3.961776  0.0
C  C116  1  0.67146936  0.57447187  0.08411862  1  0.153068  -0.000636  3.73934  -0.001  0.172187  -0.000414  3.971204  0.0  0.178355  -0.000366  3.992568  0.0  -0.090292  -0.000731  0.012892  0.168223  -0.000463  3.956445  0.0
C  C117  1  0.82850261  0.91579262  0.42560218  1  0.152593  0.000505  3.738201  0.001  0.171515  0.000386  3.970601  0.0  0.177638  0.000339  3.992177  0.0  -0.040444  0.000684  0.012289  0.167559  0.000432  3.955849  0.0
C  C118  1  0.32853713  0.42554386  0.91587902  1  0.152884  -0.000652  3.73939  -0.001  0.172081  -0.000413  3.971148  0.0  0.178248  -0.000366  3.992518  0.0  -0.090074  -0.000733  0.012874  0.168127  -0.000464  3.956387  0.0
C  C119  1  0.17149772  0.08420845  0.57439581  1  0.152546  0.000573  3.73835  0.001  0.171446  0.000387  3.970731  0.0  0.177569  0.000338  3.992297  0.0  -0.040312  0.000685  0.012263  0.16749  0.000432  3.955979  0.0
C  C120  1  0.53407484  0.55616870  0.03958959  1  -0.14936  1.8e-05  3.689879  0.0  -0.192632  -3.1e-05  3.940318  0.0  -0.194114  -2.4e-05  3.95042  0.0  0.02953  -2.5e-05  -0.152418  -0.191457  -3.7e-05  3.933142  0.0
C  C121  1  0.96577117  0.96025726  0.44374036  1  -0.147634  -1.2e-05  3.683462  0.0  -0.191316  3.2e-05  3.935108  0.0  -0.192761  2.4e-05  3.945112  0.0  -0.009035  3e-05  -0.152161  -0.19016  4e-05  3.927953  0.0
C  C122  1  0.46593371  0.44384785  0.96040404  1  -0.14915  1.2e-05  3.689776  0.0  -0.192503  -3.2e-05  3.940122  0.0  -0.194005  -2.5e-05  3.950234  0.0  0.010888  -2.6e-05  -0.152268  -0.191327  -3.7e-05  3.932945  0.0
C  C123  1  0.03422768  0.03974706  0.55625080  1  -0.147776  1.3e-05  3.683754  0.0  -0.191389  3.3e-05  3.935258  0.0  -0.192812  2.3e-05  3.945252  0.0  -0.027851  3.1e-05  -0.152208  -0.19024  4.1e-05  3.928101  0.0
N  N124  1  0.92908948  0.61068949  0.16689584  1  -0.319238  0.001826  3.249658  0.003  -0.271843  0.001706  3.536117  0.003  -0.299029  0.001033  3.552585  0.003  -1.247043  0.002702  -0.342914  -0.256711  0.002129  3.526007  0.004
N  N125  1  0.57108041  0.83302984  0.38966336  1  -0.31952  -0.000996  3.247495  -0.002  -0.271937  -0.001062  3.533838  -0.002  -0.294501  -0.00056  3.549929  -0.002  -1.231222  -0.001346  -0.342933  -0.256952  -0.001234  3.523737  -0.003
N  N126  1  0.07091408  0.38931564  0.83310657  1  -0.319358  0.001846  3.249564  0.004  -0.271958  0.001705  3.536038  0.003  -0.299156  0.001035  3.552495  0.003  -1.246946  0.002705  -0.342966  -0.256818  0.002132  3.525914  0.004
N  N127  1  0.42892109  0.16697203  0.61033810  1  -0.319582  -0.001034  3.247616  -0.002  -0.271978  -0.001061  3.533962  -0.002  -0.294573  -0.000558  3.550062  -0.002  -1.231207  -0.001348  -0.342972  -0.257003  -0.001236  3.523873  -0.003
O  O128  1  0.17323785  0.53283256  0.22312803  1  -0.577108  0.069535  2.082017  0.092  -0.556709  0.047578  2.360397  0.069  -0.60309  0.037199  2.350654  0.058  -1.115382  0.077148  -0.313023  -0.528871  0.05014  2.366602  0.07
O  O129  1  0.32648985  0.77641958  0.46703437  1  -0.577818  -0.069134  2.090755  -0.091  -0.556369  -0.04742  2.37055  -0.069  -0.5986  -0.037086  2.363558  -0.057  -1.113326  -0.077448  -0.313801  -0.528661  -0.050311  2.376936  -0.07
O  O130  1  0.82677547  0.46715791  0.77686397  1  -0.577046  0.069547  2.082331  0.092  -0.556639  0.047583  2.360795  0.069  -0.603045  0.037207  2.351022  0.058  -1.115291  0.077192  -0.313066  -0.528793  0.050168  2.366981  0.07
O  O131  1  0.67350723  0.22358474  0.53296559  1  -0.57774  -0.06915  2.090608  -0.092  -0.55631  -0.047426  2.370388  -0.069  -0.598576  -0.037088  2.363399  -0.057  -1.113984  -0.077518  -0.313825  -0.528607  -0.05036  2.376774  -0.07
O  O132  1  0.37280574  0.61352787  0.33628147  1  -0.576955  -0.071201  2.115451  -0.094  -0.550323  -0.04913  2.392486  -0.071  -0.594986  -0.038447  2.385973  -0.059  -1.11839  -0.080141  -0.314275  -0.519874  -0.052058  2.397408  -0.072
O  O133  1  0.12681537  0.66418349  0.38561879  1  -0.57725  0.070988  2.126398  0.093  -0.550021  0.04894  2.404906  0.07  -0.598764  0.038305  2.395354  0.058  -1.116087  0.080054  -0.314851  -0.519534  0.052028  2.409956  0.072
O  O134  1  0.62719900  0.38647808  0.66371902  1  -0.57681  -0.071194  2.115458  -0.094  -0.550161  -0.049128  2.392435  -0.071  -0.594872  -0.038445  2.385953  -0.059  -1.118389  -0.080208  -0.31422  -0.519719  -0.052104  2.397332  -0.072
O  O135  1  0.87319622  0.33578253  0.61439253  1  -0.577222  0.070972  2.126489  0.093  -0.549952  0.048932  2.405031  0.07  -0.59871  0.038299  2.395452  0.058  -1.116243  0.080065  -0.31483  -0.519471  0.05204  2.410088  0.072
O  O136  1  0.13205362  0.83185880  0.26566208  1  -0.569137  0.071797  2.060632  0.095  -0.550196  0.047752  2.326011  0.07  -0.596775  0.037164  2.316248  0.058  -1.113592  0.077747  -0.310995  -0.522258  0.050418  2.331942  0.07
O  O137  1  0.36828403  0.73395150  0.16920206  1  -0.568898  -0.072  2.068361  -0.095  -0.549588  -0.047918  2.334707  -0.07  -0.592217  -0.037272  2.328037  -0.058  -1.104  -0.078522  -0.312334  -0.521733  -0.050956  2.340706  -0.071
O  O138  1  0.86794966  0.16813819  0.73435529  1  -0.569098  0.071787  2.060735  0.095  -0.55016  0.047754  2.326126  0.07  -0.596754  0.037167  2.316351  0.058  -1.113621  0.077781  -0.311023  -0.522218  0.050442  2.332042  0.07
O  O139  1  0.63172278  0.26604549  0.83080233  1  -0.568765  -0.071979  2.068526  -0.095  -0.549483  -0.047911  2.334799  -0.07  -0.592135  -0.037266  2.328127  -0.058  -1.103735  -0.078569  -0.312402  -0.521635  -0.05099  2.340791  -0.071
O  O140  1  0.34297824  0.90218096  0.30911310  1  -0.568888  -0.085841  2.107161  -0.113  -0.546884  -0.055481  2.382995  -0.08  -0.594069  -0.042812  2.378388  -0.065  -1.090925  -0.090706  -0.312524  -0.515144  -0.058882  2.386822  -0.082
O  O141  1  0.15722725  0.69132858  0.09779427  1  -0.569329  0.084939  2.11316  0.112  -0.546602  0.054882  2.389315  0.079  -0.597746  0.0424  2.381347  0.065  -1.090273  0.089954  -0.313777  -0.514918  0.058387  2.393469  0.081
O  O142  1  0.65702004  0.09780707  0.69088416  1  -0.568999  -0.085875  2.107291  -0.113  -0.547003  -0.055491  2.383075  -0.08  -0.594224  -0.04282  2.378464  -0.065  -1.090781  -0.090802  -0.312535  -0.515268  -0.058946  2.386901  -0.082
O  O143  1  0.84277808  0.30867900  0.90219429  1  -0.568927  0.084943  2.113447  0.112  -0.546237  0.054879  2.389579  0.079  -0.597394  0.0424  2.381599  0.065  -1.090717  0.089976  -0.313575  -0.514564  0.058406  2.393737  0.081
