# generated using pymatgen
data_ZnH26C36(NO2)4
_symmetry_space_group_name_H-M   'P 1'
_cell_length_a   9.40582964
_cell_length_b   13.73468669
_cell_length_c   13.96400000
_cell_angle_alpha   90.00000000
_cell_angle_beta   90.00000000
_cell_angle_gamma   110.02364580
_symmetry_Int_Tables_number   1
_chemical_formula_structural   ZnH26C36(NO2)4
_chemical_formula_sum   'Zn2 H52 C72 N8 O16'
_cell_volume   1694.90844935
_cell_formula_units_Z   2
loop_
 _symmetry_equiv_pos_site_id
 _symmetry_equiv_pos_as_xyz
  1  'x, y, z'
loop_
 _atom_site_type_symbol
 _atom_site_label
 _atom_site_symmetry_multiplicity
 _atom_site_fract_x
 _atom_site_fract_y
 _atom_site_fract_z
 _atom_site_occupancy
 _atom_site_hle17_bader_spin_density
 _atom_site_hle17_ddec_charge
 _atom_site_hle17_ddec_spin_density
 _atom_site_hle17_ddec_sum_bond_order
 _atom_site_hle17_magmom
 _atom_site_hse06_10hf_bader_spin_density
 _atom_site_hse06_10hf_ddec_charge
 _atom_site_hse06_10hf_ddec_spin_density
 _atom_site_hse06_10hf_ddec_sum_bond_order
 _atom_site_hse06_10hf_magmom
 _atom_site_hse06_bader_spin_density
 _atom_site_hse06_ddec_charge
 _atom_site_hse06_ddec_spin_density
 _atom_site_hse06_ddec_sum_bond_order
 _atom_site_hse06_magmom
 _atom_site_pbe_bader_charge
 _atom_site_pbe_bader_spin_density
 _atom_site_pbe_cm5_charge
 _atom_site_pbe_ddec_charge
 _atom_site_pbe_ddec_spin_density
 _atom_site_pbe_ddec_sum_bond_order
 _atom_site_pbe_magmom
Zn  Zn0  1  0.51949882  0.03922447  0.25002220  1  0  1.001722  0  1.870897  0  0  0.810045  0  2.345999  0  0  0.856417  0  2.292944  0  1.261094  0  0.692731  0.777966  0  2.382387  0
Zn  Zn1  1  0.48050059  0.96077522  0.75002148  1  0  1.00172  0  1.870891  0  0  0.810027  0  2.346012  0  0  0.856401  0  2.292952  0  1.261086  0  0.692728  0.777946  0  2.3824  0
H  H2  1  0.93085399  0.19371466  0.16271627  1  0  0.420918  0  0.866322  0  0  0.390939  0  0.939951  0  0  0.403596  0  0.921591  0  0.649249  0  0.309976  0.381976  0  0.952919  0
H  H3  1  0.06914504  0.80628426  0.66271627  1  0  0.420929  0  0.866302  0  0  0.390943  0  0.939945  0  0  0.403601  0  0.921585  0  0.649269  0  0.309985  0.38198  0  0.952914  0
H  H4  1  0.73724835  0.80633230  0.83729376  1  0  0.421433  0  0.865769  0  0  0.390692  0  0.940416  0  0  0.403357  0  0.922047  0  0.681233  0  0.309854  0.381775  0  0.953297  0
H  H5  1  0.26275319  0.19366739  0.33729376  1  0  0.421473  0  0.865751  0  0  0.390737  0  0.940357  0  0  0.403401  0  0.921988  0  0.681224  0  0.309882  0.38182  0  0.95324  0
H  H6  1  0.65066730  0.78054661  0.15149241  1  0  0.091404  0  0.95431  0  0  0.102785  0  1.013687  0  0  0.106175  0  1.011009  0  0.094153  0  0.101402  0.100442  0  1.015459  0
H  H7  1  0.34933250  0.21945386  0.65149241  1  0  0.091374  0  0.954372  0  0  0.102744  0  1.013753  0  0  0.106133  0  1.011077  0  0.09416  0  0.101389  0.100402  0  1.015524  0
H  H8  1  0.87023595  0.21927717  0.84850544  1  0  0.091541  0  0.954447  0  0  0.103026  0  1.013801  0  0  0.106298  0  1.011251  0  0.05541  0  0.101396  0.100743  0  1.015494  0
H  H9  1  0.12976704  0.78072329  0.34850831  1  0  0.091559  0  0.954496  0  0  0.103042  0  1.013847  0  0  0.106313  0  1.011297  0  0.055399  0  0.101418  0.100759  0  1.01554  0
H  H10  1  0.78768101  0.67306271  0.07689272  1  0  0.090172  0  0.957713  0  0  0.102388  0  1.016151  0  0  0.104856  0  1.015987  0  0.0273  0  0.101288  0.100621  0  1.016447  0
H  H11  1  0.21231772  0.32693776  0.57689344  1  0  0.09016  0  0.95773  0  0  0.102368  0  1.016178  0  0  0.104835  0  1.016014  0  0.027318  0  0.101271  0.100602  0  1.016473  0
H  H12  1  0.11463715  0.32680447  0.92322759  1  0  0.09066  0  0.956985  0  0  0.102403  0  1.015951  0  0  0.104769  0  1.015919  0  0.072733  0  0.101297  0.100687  0  1.01614  0
H  H13  1  0.88536439  0.67319522  0.42322973  1  0  0.090648  0  0.956994  0  0  0.102401  0  1.015946  0  0  0.104769  0  1.015913  0  0.072724  0  0.101285  0.100685  0  1.016133  0
H  H14  1  0.19350104  0.94127884  0.06517044  1  0  0.091321  0  0.970085  0  0  0.098397  0  1.038378  0  0  0.101087  0  1.038286  0  0.069092  0  0.098918  0.096621  0  1.038424  0
H  H15  1  0.80649905  0.05872008  0.56516829  1  0  0.091387  0  0.970128  0  0  0.098461  0  1.038405  0  0  0.101152  0  1.038313  0  0.069058  0  0.098938  0.096685  0  1.038452  0
H  H16  1  0.25249267  0.05867126  0.93482455  1  0  0.091415  0  0.969473  0  0  0.098969  0  1.037195  0  0  0.101696  0  1.036996  0  0.055806  0  0.099156  0.097188  0  1.037255  0
H  H17  1  0.74750741  0.94132766  0.43482383  1  0  0.091418  0  0.969473  0  0  0.098977  0  1.037195  0  0  0.101704  0  1.036998  0  0.055778  0  0.099177  0.097197  0  1.037254  0
H  H18  1  0.05537683  0.04734880  0.13902822  1  0  0.098377  0  0.946673  0  0  0.107353  0  1.009445  0  0  0.110771  0  1.007163  0  0.066602  0  0.103599  0.104854  0  1.011148  0
H  H19  1  0.94462325  0.95265011  0.63902678  1  0  0.098402  0  0.946576  0  0  0.107385  0  1.009344  0  0  0.110804  0  1.007059  0  0.066716  0  0.103607  0.104884  0  1.011046  0
H  H20  1  0.00828827  0.95255712  0.86098038  1  0  0.098171  0  0.947348  0  0  0.1074  0  1.009815  0  0  0.11082  0  1.007542  0  0.059144  0  0.103734  0.104874  0  1.011565  0
H  H21  1  0.99171220  0.04744257  0.36097966  1  0  0.098184  0  0.947336  0  0  0.107413  0  1.0098  0  0  0.110835  0  1.007526  0  0.05916  0  0.103744  0.104887  0  1.01155  0
H  H22  1  0.10766354  0.53166413  0.27127757  1  0  0.095717  0  0.951167  0  0  0.105378  0  1.012238  0  0  0.108502  0  1.010458  0  0.071653  0  0.103671  0.103159  0  1.013475  0
H  H23  1  0.89233191  0.46833401  0.77127829  1  0  0.095688  0  0.951215  0  0  0.105355  0  1.012287  0  0  0.108481  0  1.010504  0  0.071631  0  0.103658  0.103136  0  1.013523  0
H  H24  1  0.57589887  0.46844560  0.72866084  1  0  0.095068  0  0.951487  0  0  0.1058  0  1.011569  0  0  0.108993  0  1.009715  0  0.066975  0  0.103935  0.103527  0  1.012828  0
H  H25  1  0.42409803  0.53155332  0.22866156  1  0  0.09502  0  0.95147  0  0  0.10578  0  1.01153  0  0  0.108975  0  1.009674  0  0.066982  0  0.103943  0.103506  0  1.012791  0
H  H26  1  0.13432434  0.70183419  0.19485534  1  0  0.097931  0  0.954123  0  0  0.108083  0  1.015982  0  0  0.111151  0  1.014754  0  0.040307  0  0.102813  0.105841  0  1.017033  0
H  H27  1  0.86567005  0.29816395  0.69485463  1  0  0.097921  0  0.954137  0  0  0.108065  0  1.016004  0  0  0.111133  0  1.014776  0  0.040264  0  0.102801  0.105823  0  1.017056  0
H  H28  1  0.43230003  0.29825229  0.80504798  1  0  0.097656  0  0.954295  0  0  0.107546  0  1.016448  0  0  0.110591  0  1.015271  0  0.04437  0  0.102629  0.105293  0  1.017512  0
H  H29  1  0.56769648  0.70174585  0.30504798  1  0  0.097655  0  0.954382  0  0  0.107571  0  1.016488  0  0  0.110614  0  1.015313  0  0.044387  0  0.102633  0.105317  0  1.017553  0
H  H30  1  0.97437582  0.54598478  0.92805428  1  0  0.103629  0  0.95797  0  0  0.111736  0  1.023143  0  0  0.115615  0  1.020521  0  0.076534  0  0.102847  0.108949  0  1.02515  0
H  H31  1  0.02562504  0.45401569  0.42805500  1  0  0.103649  0  0.957995  0  0  0.111759  0  1.02316  0  0  0.115638  0  1.020539  0  0.076558  0  0.102847  0.108971  0  1.025169  0
H  H32  1  0.42868609  0.45400794  0.07196649  1  0  0.104163  0  0.957879  0  0  0.111496  0  1.023565  0  0  0.115356  0  1.020962  0  0.111632  0  0.102767  0.108737  0  1.025524  0
H  H33  1  0.57131120  0.54599175  0.57196649  1  0  0.104153  0  0.957942  0  0  0.111492  0  1.023623  0  0  0.115352  0  1.02102  0  0.111636  0  0.102767  0.108733  0  1.025583  0
H  H34  1  0.94057367  0.37524902  0.00655614  1  0  0.098538  0  0.958573  0  0  0.108413  0  1.019646  0  0  0.111433  0  1.017941  0  0.090627  0  0.1056  0.106274  0  1.020829  0
H  H35  1  0.05942932  0.62475144  0.50655901  1  0  0.098532  0  0.958592  0  0  0.108405  0  1.019658  0  0  0.111399  0  1.017981  0  0.090682  0  0.105591  0.106247  0  1.020862  0
H  H36  1  0.56584002  0.62475842  0.99353552  1  0  0.099151  0  0.958806  0  0  0.108579  0  1.020302  0  0  0.111546  0  1.018669  0  0.089036  0  0.10559  0.10644  0  1.021535  0
H  H37  1  0.43415581  0.37524050  0.49353624  1  0  0.099149  0  0.958813  0  0  0.108578  0  1.020301  0  0  0.111545  0  1.018667  0  0.088997  0  0.105576  0.106439  0  1.021533  0
H  H38  1  0.00280238  0.71357743  0.94042180  1  0  0.098357  0  0.914022  0  0  0.110004  0  0.973623  0  0  0.111648  0  0.972019  0  0.131663  0  0.131167  0.108778  0  0.974756  0
H  H39  1  0.99719674  0.28642381  0.44042180  1  0  0.098359  0  0.914029  0  0  0.110009  0  0.973629  0  0  0.111652  0  0.972025  0  0.131675  0  0.131167  0.108783  0  0.974763  0
H  H40  1  0.28923168  0.28646023  0.05947794  1  0  0.098328  0  0.914067  0  0  0.109994  0  0.973954  0  0  0.111564  0  0.972342  0  0.142881  0  0.131145  0.108704  0  0.975187  0
H  H41  1  0.71076801  0.71353791  0.55947794  1  0  0.098337  0  0.914065  0  0  0.109992  0  0.973963  0  0  0.111564  0  0.972349  0  0.142863  0  0.131136  0.108702  0  0.975196  0
H  H42  1  0.16191800  0.82372398  0.83145947  1  0  0.111949  0  0.983194  0  0  0.117005  0  1.051589  0  0  0.120831  0  1.046456  0  0.224069  0  0.135542  0.114056  0  1.055476  0
H  H43  1  0.83808112  0.17627726  0.33145947  1  0  0.11195  0  0.983175  0  0  0.117016  0  1.051574  0  0  0.12084  0  1.046442  0  0.224055  0  0.135562  0.114066  0  1.055461  0
H  H44  1  0.33814187  0.17638497  0.16849255  1  0  0.111605  0  0.98276  0  0  0.116595  0  1.051355  0  0  0.120401  0  1.046237  0  0.202782  0  0.135395  0.113739  0  1.055109  0
H  H45  1  0.66185967  0.82361472  0.66849112  1  0  0.11163  0  0.982753  0  0  0.116624  0  1.051325  0  0  0.12043  0  1.046208  0  0.202776  0  0.135407  0.113768  0  1.055078  0
H  H46  1  0.36917310  0.79645043  0.09487897  1  0  0.123422  0  0.948989  0  0  0.134646  0  1.007148  0  0  0.137657  0  1.005366  0  0.149973  0  0.126268  0.132293  0  1.008787  0
H  H47  1  0.63082631  0.20354926  0.59487969  1  0  0.123436  0  0.948969  0  0  0.134659  0  1.007129  0  0  0.137671  0  1.005344  0  0.149968  0  0.126268  0.132305  0  1.008768  0
H  H48  1  0.57280080  0.20356243  0.90515540  1  0  0.123393  0  0.94897  0  0  0.134329  0  1.007382  0  0  0.137407  0  1.005498  0  0.143414  0  0.126315  0.131945  0  1.009066  0
H  H49  1  0.42720035  0.79643649  0.40515540  1  0  0.123389  0  0.948948  0  0  0.134325  0  1.007357  0  0  0.137402  0  1.005474  0  0.143408  0  0.12633  0.131941  0  1.009041  0
H  H50  1  0.58891731  0.90601269  0.96580779  1  0  0.107627  0  0.951595  0  0  0.117779  0  1.009582  0  0  0.119808  0  1.009401  0  0.105439  0  0.11996  0.11644  0  1.00949  0
H  H51  1  0.41108172  0.09398623  0.46580851  1  0  0.107629  0  0.951573  0  0  0.117787  0  1.009552  0  0  0.119813  0  1.009381  0  0.105424  0  0.11995  0.116449  0  1.00946  0
H  H52  1  0.68285415  0.09396608  0.03428745  1  0  0.10817  0  0.951434  0  0  0.1187  0  1.008982  0  0  0.120728  0  1.008835  0  0.119507  0  0.120284  0.117344  0  1.008912  0
H  H53  1  0.31714845  0.90603361  0.53428674  1  0  0.108162  0  0.951486  0  0  0.118718  0  1.009008  0  0  0.120745  0  1.00886  0  0.119548  0  0.120286  0.117361  0  1.008938  0
C  C54  1  0.76086852  0.98541402  0.19019121  1  0  0.647384  0  3.918621  0  0  0.59631  0  4.211484  0  0  0.630502  0  4.204461  0  1.558882  0  0.20709  0.573323  0  4.215255  0
C  C55  1  0.23913012  0.01458412  0.69018906  1  0  0.647217  0  3.918829  0  0  0.59617  0  4.21165  0  0  0.630361  0  4.20463  0  1.55913  0  0.207023  0.573185  0  4.215418  0
C  C56  1  0.77568927  0.01452755  0.80976797  1  0  0.645018  0  3.920305  0  0  0.593596  0  4.21367  0  0  0.627783  0  4.2067  0  1.542254  0  0.206153  0.570676  0  4.217371  0
C  C57  1  0.22431188  0.98547136  0.30976797  1  0  0.644987  0  3.920312  0  0  0.59359  0  4.213656  0  0  0.627776  0  4.206689  0  1.542255  0  0.20621  0.57067  0  4.217356  0
C  C58  1  0.84421153  0.92081302  0.14838871  1  0  -0.085757  0  3.790823  0  0  -0.061911  0  4.021923  0  0  -0.071554  0  4.046952  0  0.023658  0  -0.02474  -0.055721  0  4.004864  0
C  C59  1  0.15578749  0.07918590  0.64838800  1  0  -0.085789  0  3.790772  0  0  -0.061963  0  4.021881  0  0  -0.071604  0  4.046909  0  0.075924  0  -0.024779  -0.055773  0  4.004822  0
C  C60  1  0.92362404  0.07906889  0.85157691  1  0  -0.083052  0  3.788302  0  0  -0.059158  0  4.019623  0  0  -0.068796  0  4.044633  0  0.013847  0  -0.024011  -0.053052  0  4.002625  0
C  C61  1  0.07637750  0.92093081  0.35157834  1  0  -0.082911  0  3.788126  0  0  -0.059059  0  4.019492  0  0  -0.068697  0  4.044502  0  0.013849  0  -0.023985  -0.052952  0  4.002492  0
C  C62  1  0.76977664  0.81460929  0.13235319  1  0  -0.058055  0  3.751471  0  0  -0.08111  0  3.998212  0  0  -0.080003  0  4.018336  0  -0.122703  0  -0.083348  -0.081373  0  3.983867  0
C  C63  1  0.23022277  0.18539040  0.63235319  1  0  -0.058003  0  3.751496  0  0  -0.081038  0  3.998218  0  0  -0.07993  0  4.018342  0  -0.122687  0  -0.083333  -0.081302  0  3.983875  0
C  C64  1  0.95531385  0.18525711  0.86763105  1  0  -0.05844  0  3.749704  0  0  -0.081677  0  3.996713  0  0  -0.080469  0  4.016794  0  -0.033718  0  -0.083397  -0.081946  0  3.982357  0
C  C65  1  0.04468914  0.81474336  0.36763320  1  0  -0.058486  0  3.749842  0  0  -0.081708  0  3.996852  0  0  -0.080499  0  4.016933  0  -0.033751  0  -0.083403  -0.081977  0  3.982494  0
C  C66  1  0.84634593  0.75521735  0.09085577  1  0  -0.108767  0  3.75306  0  0  -0.129112  0  4.004041  0  0  -0.133114  0  4.025264  0  -0.021825  0  -0.090424  -0.126234  0  3.989235  0
C  C67  1  0.15365309  0.24478157  0.59085577  1  0  -0.108765  0  3.753112  0  0  -0.1291  0  4.004087  0  0  -0.133102  0  4.02531  0  -0.021827  0  -0.090407  -0.126224  0  3.989283  0
C  C68  1  0.09124739  0.24468005  0.90912632  1  0  -0.11069  0  3.750899  0  0  -0.12996  0  4.00262  0  0  -0.133886  0  4.023807  0  -0.05329  0  -0.090997  -0.127147  0  3.987736  0
C  C69  1  0.90875628  0.75531964  0.40912776  1  0  -0.110785  0  3.750889  0  0  -0.130066  0  4.002608  0  0  -0.133994  0  4.023796  0  -0.052674  0  -0.091038  -0.127253  0  3.987722  0
C  C70  1  0.99857884  0.80080165  0.06409911  1  0  0.058541  0  3.721368  0  0  0.072107  0  3.963101  0  0  0.07336  0  3.985867  0  -0.003333  0  -0.004972  0.071537  0  3.947268  0
C  C71  1  0.00142096  0.19919882  0.56409911  1  0  0.058499  0  3.72133  0  0  0.072053  0  3.963081  0  0  0.073306  0  3.985846  0  -0.003335  0  -0.004984  0.071482  0  3.947249  0
C  C72  1  0.19797174  0.19915697  0.93583500  1  0  0.061219  0  3.716459  0  0  0.073265  0  3.960678  0  0  0.074439  0  3.983363  0  -0.025846  0  -0.004136  0.072716  0  3.944919  0
C  C73  1  0.80202873  0.80084272  0.43583572  1  0  0.061353  0  3.716354  0  0  0.073402  0  3.960567  0  0  0.074578  0  3.983253  0  -0.026448  0  -0.004096  0.072853  0  3.944809  0
C  C74  1  0.07426317  0.90556633  0.08337511  1  0  -0.11791  0  3.746666  0  0  -0.141397  0  4.005952  0  0  -0.145727  0  4.027787  0  -0.039496  0  -0.0944  -0.138618  0  3.99094  0
C  C75  1  0.92573624  0.09443336  0.58337439  1  0  -0.11795  0  3.746677  0  0  -0.141429  0  4.005955  0  0  -0.14576  0  4.02779  0  -0.039476  0  -0.094403  -0.138649  0  3.990943  0
C  C76  1  0.16895813  0.09437679  0.91659840  1  0  -0.118773  0  3.745947  0  0  -0.141894  0  4.005475  0  0  -0.146215  0  4.027332  0  -0.01151  0  -0.094758  -0.139091  0  3.990504  0
C  C77  1  0.83104302  0.90562213  0.41659983  1  0  -0.118793  0  3.74596  0  0  -0.141933  0  4.005503  0  0  -0.146255  0  4.02736  0  -0.011264  0  -0.094793  -0.139131  0  3.990535  0
C  C78  1  0.99722669  0.96538681  0.12470925  1  0  -0.047065  0  3.736998  0  0  -0.071406  0  3.987157  0  0  -0.070629  0  4.008084  0  0.024552  0  -0.080653  -0.071641  0  3.972859  0
C  C79  1  0.00277340  0.03461211  0.62470639  1  0  -0.047049  0  3.736827  0  0  -0.07139  0  3.98699  0  0  -0.070614  0  4.007917  0  -0.028004  0  -0.08064  -0.071624  0  3.97269  0
C  C80  1  0.03209390  0.03452997  0.87524850  1  0  -0.048309  0  3.738771  0  0  -0.072941  0  3.989183  0  0  -0.072188  0  4.010159  0  -0.025732  0  -0.081155  -0.07321  0  3.974879  0
C  C81  1  0.96790512  0.96546895  0.37524778  1  0  -0.04836  0  3.738645  0  0  -0.072974  0  3.989072  0  0  -0.07222  0  4.010045  0  -0.025937  0  -0.08117  -0.073243  0  3.974769  0
C  C82  1  0.99966368  0.34233091  0.19157691  1  0  0.657221  0  3.826762  0  0  0.612022  0  4.120388  0  0  0.645653  0  4.111346  0  1.548554  0  0.23091  0.589169  0  4.125985  0
C  C83  1  0.00033535  0.65766801  0.69157834  1  0  0.65714  0  3.826976  0  0  0.611958  0  4.120568  0  0  0.64559  0  4.111526  0  1.548837  0  0.23088  0.589104  0  4.126164  0
C  C84  1  0.65755547  0.65771916  0.80844171  1  0  0.656548  0  3.825004  0  0  0.610598  0  4.119712  0  0  0.64419  0  4.110712  0  1.522752  0  0.230213  0.587885  0  4.12511  0
C  C85  1  0.34244355  0.34227976  0.30844171  1  0  0.656667  0  3.824811  0  0  0.610631  0  4.119649  0  0  0.644221  0  4.110655  0  1.52255  0  0.230243  0.58792  0  4.125047  0
C  C86  1  0.02478643  0.44359060  0.14304068  1  0  -0.075414  0  3.771367  0  0  -0.053121  0  4.000305  0  0  -0.062168  0  4.024981  0  -0.041093  0  -0.017665  -0.047246  0  3.983697  0
C  C87  1  0.97521192  0.55640910  0.64304282  1  0  -0.075501  0  3.771409  0  0  -0.053217  0  4.000353  0  0  -0.062266  0  4.025028  0  -0.041611  0  -0.01767  -0.047341  0  3.98374  0
C  C88  1  0.58144967  0.55644087  0.85698654  1  0  -0.073451  0  3.769106  0  0  -0.050851  0  3.997855  0  0  -0.059879  0  4.022546  0  -0.049296  0  -0.016855  -0.045066  0  3.981249  0
C  C89  1  0.41854761  0.44355882  0.35698725  1  0  -0.073501  0  3.76904  0  0  -0.050886  0  3.997818  0  0  -0.059911  0  4.022508  0  -0.049244  0  -0.016897  -0.045102  0  3.981216  0
C  C90  1  0.07982879  0.53581077  0.19594314  1  0  -0.060932  0  3.748493  0  0  -0.082654  0  3.992496  0  0  -0.082575  0  4.014068  0  -0.065978  0  -0.080154  -0.082425  0  3.977593  0
C  C91  1  0.92016743  0.46418893  0.69594386  1  0  -0.060868  0  3.748502  0  0  -0.0826  0  3.9925  0  0  -0.082521  0  4.014075  0  -0.065993  0  -0.080161  -0.08237  0  3.977597  0
C  C92  1  0.54407222  0.46425325  0.80402177  1  0  -0.061304  0  3.748992  0  0  -0.084016  0  3.992823  0  0  -0.083998  0  4.014427  0  -0.015219  0  -0.080575  -0.083662  0  3.977877  0
C  C93  1  0.45592468  0.53574567  0.30402249  1  0  -0.061099  0  3.748793  0  0  -0.083823  0  3.992605  0  0  -0.083807  0  4.014209  0  -0.015267  0  -0.080515  -0.083468  0  3.977659  0
C  C94  1  0.09588580  0.63044871  0.15289745  1  0  -0.120957  0  3.74711  0  0  -0.140591  0  3.997565  0  0  -0.144736  0  4.01918  0  0.00106  0  -0.090155  -0.137758  0  3.982762  0
C  C95  1  0.90411148  0.36955099  0.65289745  1  0  -0.120933  0  3.747101  0  0  -0.140569  0  3.997547  0  0  -0.144715  0  4.019161  0  0.001104  0  -0.090115  -0.137737  0  3.982743  0
C  C96  1  0.46545024  0.36961841  0.84705170  1  0  -0.120207  0  3.746096  0  0  -0.139155  0  3.997058  0  0  -0.143306  0  4.018719  0  0.046225  0  -0.090176  -0.136352  0  3.982212  0
C  C97  1  0.53454811  0.63038129  0.34705170  1  0  -0.120377  0  3.746217  0  0  -0.13935  0  3.99719  0  0  -0.143501  0  4.018851  0  0.046151  0  -0.090216  -0.136546  0  3.982342  0
C  C98  1  0.05835292  0.63399167  0.05608278  1  0  0.065392  0  3.727015  0  0  0.076504  0  3.971248  0  0  0.077606  0  3.994601  0  0.023782  0  -0.003706  0.075878  0  3.955381  0
C  C99  1  0.94164504  0.36600725  0.55608278  1  0  0.065363  0  3.72712  0  0  0.076507  0  3.971306  0  0  0.07761  0  3.994657  0  0.023754  0  -0.003717  0.075884  0  3.955432  0
C  C100  1  0.42446699  0.36605219  0.94387640  1  0  0.065073  0  3.725082  0  0  0.075199  0  3.971223  0  0  0.076247  0  3.994436  0  -0.017859  0  -0.003799  0.074575  0  3.955397  0
C  C101  1  0.57553203  0.63394673  0.44387640  1  0  0.065133  0  3.725159  0  0  0.07525  0  3.971306  0  0  0.076298  0  3.994517  0  -0.017727  0  -0.003828  0.074626  0  3.955479  0
C  C102  1  0.00429781  0.54208535  0.00317889  1  0  -0.11434  0  3.735314  0  0  -0.134604  0  3.984382  0  0  -0.138661  0  4.004918  0  -0.07738  0  -0.088377  -0.132239  0  3.971347  0
C  C103  1  0.99570121  0.45791357  0.50318032  1  0  -0.114385  0  3.735423  0  0  -0.134666  0  3.984497  0  0  -0.138722  0  4.005024  0  -0.077753  0  -0.088386  -0.1323  0  3.971456  0
C  C104  1  0.46251380  0.45792209  0.99685119  1  0  -0.114181  0  3.733198  0  0  -0.133262  0  3.98249  0  0  -0.137298  0  4.002992  0  -0.112101  0  -0.087961  -0.130889  0  3.969509  0
C  C105  1  0.53748454  0.54207760  0.49685262  1  0  -0.11411  0  3.733303  0  0  -0.133202  0  3.982571  0  0  -0.137237  0  4.003072  0  -0.112153  0  -0.087898  -0.130829  0  3.969589  0
C  C106  1  0.98688358  0.44738231  0.04636780  1  0  -0.05741  0  3.741167  0  0  -0.080968  0  3.985317  0  0  -0.080171  0  4.005966  0  0.024732  0  -0.08118  -0.081461  0  3.971957  0
C  C107  1  0.01311689  0.55261738  0.54636995  1  0  -0.057311  0  3.741048  0  0  -0.080862  0  3.985193  0  0  -0.080042  0  4.005853  0  0.025201  0  -0.081144  -0.081338  0  3.971839  0
C  C108  1  0.53987002  0.55263443  0.95368376  1  0  -0.059733  0  3.741185  0  0  -0.082805  0  3.98499  0  0  -0.081991  0  4.005653  0  -0.023751  0  -0.081837  -0.0834  0  3.971745  0
C  C109  1  0.46012833  0.44736527  0.45368519  1  0  -0.059846  0  3.741207  0  0  -0.082904  0  3.984994  0  0  -0.082091  0  4.005657  0  -0.023735  0  -0.081883  -0.083497  0  3.971749  0
C  C110  1  0.06849655  0.73459190  0.00714981  1  0  0.040316  0  3.637103  0  0  0.007904  0  3.865581  0  0  0.011735  0  3.878395  0  0.284881  0  0.034768  0.005365  0  3.856699  0
C  C111  1  0.93150324  0.26540857  0.50714981  1  0  0.040337  0  3.637123  0  0  0.007921  0  3.865588  0  0  0.011752  0  3.878402  0  0.28486  0  0.034762  0.005385  0  3.856696  0
C  C112  1  0.33402952  0.26543492  0.99280579  1  0  0.039848  0  3.635914  0  0  0.007218  0  3.866983  0  0  0.011379  0  3.879288  0  0.288495  0  0.034422  0.004512  0  3.858449  0
C  C113  1  0.66597057  0.73456400  0.49280579  1  0  0.039805  0  3.636009  0  0  0.007183  0  3.86705  0  0  0.011343  0  3.87936  0  0.288536  0  0.034452  0.004479  0  3.858516  0
C  C114  1  0.24947003  0.83308200  0.88451017  1  0  0.17635  0  3.638147  0  0  0.112734  0  3.901043  0  0  0.127425  0  3.911853  0  0.972883  0  0.144626  0.102997  0  3.893759  0
C  C115  1  0.75052909  0.16691924  0.38451017  1  0  0.176378  0  3.638159  0  0  0.112735  0  3.901084  0  0  0.127429  0  3.911892  0  0.972911  0  0.14461  0.102999  0  3.893799  0
C  C116  1  0.41637507  0.16697969  0.11550057  1  0  0.177039  0  3.636686  0  0  0.113496  0  3.899331  0  0  0.128188  0  3.910199  0  0.986035  0  0.145505  0.103703  0  3.891977  0
C  C117  1  0.58362685  0.83302078  0.61549986  1  0  0.176983  0  3.63674  0  0  0.113442  0  3.899363  0  0  0.128134  0  3.91023  0  0.985999  0  0.14549  0.10365  0  3.892007  0
C  C118  1  0.35973734  0.81805617  0.02120596  1  0  -0.067372  0  3.662909  0  0  -0.108839  0  3.923503  0  0  -0.108152  0  3.942517  0  0.278782  0  0.001646  -0.109103  0  3.910593  0
C  C119  1  0.64026207  0.18194352  0.52120596  1  0  -0.06735  0  3.662888  0  0  -0.10881  0  3.923463  0  0  -0.108122  0  3.942478  0  0.278899  0  0.001661  -0.109073  0  3.910554  0
C  C120  1  0.54173135  0.18199389  0.97883414  1  0  -0.066568  0  3.662662  0  0  -0.107537  0  3.923136  0  0  -0.106908  0  3.942121  0  0.287754  0  0.001745  -0.107773  0  3.91024  0
C  C121  1  0.45827018  0.81800580  0.47883343  1  0  -0.066448  0  3.662581  0  0  -0.10742  0  3.923044  0  0  -0.106793  0  3.94203  0  0.287753  0  0.001766  -0.107657  0  3.910148  0
C  C122  1  0.46742418  0.87383153  0.95692137  1  0  0.017529  0  3.739437  0  0  -0.018896  0  4.009533  0  0  -0.016374  0  4.029917  0  0.427013  0  0.000415  -0.020853  0  3.995548  0
C  C123  1  0.53257456  0.12616894  0.45692065  1  0  0.017536  0  3.739467  0  0  -0.018893  0  4.009561  0  0  -0.016372  0  4.029942  0  0.427001  0  0.000428  -0.020851  0  3.995577  0
C  C124  1  0.59356876  0.12618831  0.04313019  1  0  0.015794  0  3.741148  0  0  -0.021317  0  4.011372  0  0  -0.018812  0  4.031777  0  0.420841  0  7.8e-05  -0.023243  0  3.997349  0
C  C125  1  0.40643277  0.87381138  0.54313019  1  0  0.015658  0  3.74125  0  0  -0.02149  0  4.011502  0  0  -0.018985  0  4.031906  0  0.420893  0  1.7e-05  -0.023416  0  3.997479  0
N  N126  1  0.39706675  0.88297489  0.87187912  1  0  -0.388287  0  3.30313  0  0  -0.304586  0  3.602349  0  0  -0.325075  0  3.613829  0  -1.269324  0  -0.357886  -0.290899  0  3.594729  0
N  N127  1  0.60293266  0.11702480  0.37187912  1  0  -0.388329  0  3.303149  0  0  -0.304629  0  3.60239  0  0  -0.325118  0  3.613869  0  -1.269343  0  -0.357908  -0.290942  0  3.59477  0
N  N128  1  0.51402265  0.11705192  0.12816027  1  0  -0.388866  0  3.302732  0  0  -0.304538  0  3.601384  0  0  -0.325022  0  3.612882  0  -1.262089  0  -0.358198  -0.290851  0  3.59378  0
N  N129  1  0.48598073  0.88294932  0.62815955  1  0  -0.388766  0  3.302731  0  0  -0.304442  0  3.601381  0  0  -0.324926  0  3.61288  0  -1.262109  0  -0.358155  -0.290755  0  3.593776  0
N  N130  1  0.22248673  0.79233867  0.97356488  1  0  -0.07562  0  3.551747  0  0  0.015847  0  3.767315  0  0  0.000972  0  3.792966  0  -1.22056  0  -0.233967  0.025763  0  3.749603  0
N  N131  1  0.77751307  0.20766180  0.47356416  1  0  -0.075651  0  3.551766  0  0  0.015824  0  3.767339  0  0  0.000947  0  3.792991  0  -1.220654  0  -0.233962  0.025738  0  3.749628  0
N  N132  1  0.43025068  0.20775091  0.02646591  1  0  -0.075299  0  3.552287  0  0  0.016103  0  3.768166  0  0  0.001156  0  3.793796  0  -1.222306  0  -0.234742  0.026059  0  3.750508  0
N  N133  1  0.56974979  0.79224878  0.52646591  1  0  -0.075358  0  3.552381  0  0  0.016075  0  3.768211  0  0  0.001129  0  3.79384  0  -1.222376  0  -0.234774  0.026029  0  3.750555  0
O  O134  1  0.82622506  0.08188032  0.20202879  1  0  -0.653005  0  2.021321  0  0  -0.597146  0  2.25649  0  0  -0.621856  0  2.244292  0  -1.219333  0  -0.316906  -0.579857  0  2.264312  0
O  O135  1  0.17377580  0.91812015  0.70202592  1  0  -0.652929  0  2.021451  0  0  -0.597069  0  2.2566  0  0  -0.62178  0  2.244404  0  -1.219452  0  -0.316869  -0.579778  0  2.264413  0
O  O136  1  0.74447780  0.91805970  0.79792037  1  0  -0.652249  0  2.021789  0  0  -0.59575  0  2.256778  0  0  -0.620474  0  2.244606  0  -1.215073  0  -0.316466  -0.578566  0  2.264523  0
O  O137  1  0.25552413  0.08194076  0.29791965  1  0  -0.652269  0  2.021774  0  0  -0.595769  0  2.25673  0  0  -0.620493  0  2.24456  0  -1.215067  0  -0.316494  -0.578585  0  2.264475  0
O  O138  1  0.62104353  0.93837674  0.21259596  1  0  -0.6344  0  2.011428  0  0  -0.562962  0  2.275936  0  0  -0.590664  0  2.261653  0  -1.173077  0  -0.330679  -0.543833  0  2.285239  0
O  O139  1  0.37895656  0.06162218  0.71259596  1  0  -0.63432  0  2.011419  0  0  -0.562894  0  2.275927  0  0  -0.590599  0  2.261644  0  -1.173045  0  -0.330637  -0.543765  0  2.285227  0
O  O140  1  0.68290313  0.06158809  0.78744629  1  0  -0.633189  0  2.012331  0  0  -0.561509  0  2.27681  0  0  -0.589125  0  2.262379  0  -1.17026  0  -0.329894  -0.542422  0  2.286191  0
O  O141  1  0.31709628  0.93841161  0.28744414  1  0  -0.633182  0  2.012371  0  0  -0.561518  0  2.276837  0  0  -0.589128  0  2.262407  0  -1.170239  0  -0.32993  -0.542429  0  2.286221  0
O  O142  1  0.00474446  0.33347659  0.27931323  1  0  -0.568996  0  1.940664  0  0  -0.53382  0  2.161481  0  0  -0.554668  0  2.152765  0  -1.169969  0  -0.296062  -0.519447  0  2.167146  0
O  O143  1  0.99525601  0.66652310  0.77931395  1  0  -0.568997  0  1.940696  0  0  -0.533803  0  2.161474  0  0  -0.554651  0  2.152758  0  -1.1699  0  -0.296087  -0.51943  0  2.167138  0
O  O144  1  0.67132802  0.66655255  0.72069178  1  0  -0.568826  0  1.940521  0  0  -0.533346  0  2.161695  0  0  -0.554179  0  2.152953  0  -1.166383  0  -0.295648  -0.518903  0  2.167281  0
O  O145  1  0.32867284  0.33344792  0.22069178  1  0  -0.56885  0  1.940492  0  0  -0.533349  0  2.161725  0  0  -0.554182  0  2.152986  0  -1.166382  0  -0.295638  -0.518908  0  2.167311  0
O  O146  1  0.96852257  0.26349217  0.12980808  1  0  -0.558657  0  2.096834  0  0  -0.510398  0  2.310398  0  0  -0.532675  0  2.293173  0  -1.172559  0  -0.333531  -0.494646  0  2.321651  0
O  O147  1  0.03147607  0.73650597  0.62980951  1  0  -0.558592  0  2.096931  0  0  -0.510351  0  2.310506  0  0  -0.532627  0  2.293275  0  -1.172511  0  -0.333494  -0.4946  0  2.321762  0
O  O148  1  0.70517166  0.73655401  0.87021555  1  0  -0.559043  0  2.095473  0  0  -0.510151  0  2.310264  0  0  -0.532365  0  2.292955  0  -1.178601  0  -0.333447  -0.494505  0  2.321514  0
O  O149  1  0.29482698  0.26344413  0.37021555  1  0  -0.5591  0  2.095361  0  0  -0.510191  0  2.3102  0  0  -0.532401  0  2.292893  0  -1.178385  0  -0.333476  -0.494543  0  2.321443  0
