# generated using pymatgen
data_AgH8C10(NO)3
_symmetry_space_group_name_H-M   'P 1'
_cell_length_a   6.90111891
_cell_length_b   8.66511191
_cell_length_c   17.68328531
_cell_angle_alpha   100.35895765
_cell_angle_beta   90.00021062
_cell_angle_gamma   90.00010955
_symmetry_Int_Tables_number   1
_chemical_formula_structural   AgH8C10(NO)3
_chemical_formula_sum   'Ag4 H32 C40 N12 O12'
_cell_volume   1040.20645698
_cell_formula_units_Z   4
loop_
 _symmetry_equiv_pos_site_id
 _symmetry_equiv_pos_as_xyz
  1  'x, y, z'
loop_
 _atom_site_type_symbol
 _atom_site_label
 _atom_site_symmetry_multiplicity
 _atom_site_fract_x
 _atom_site_fract_y
 _atom_site_fract_z
 _atom_site_occupancy
 _atom_site_hle17_bader_spin_density
 _atom_site_hle17_ddec_charge
 _atom_site_hle17_ddec_spin_density
 _atom_site_hle17_ddec_sum_bond_order
 _atom_site_hle17_magmom
 _atom_site_hse06_10hf_bader_spin_density
 _atom_site_hse06_10hf_ddec_charge
 _atom_site_hse06_10hf_ddec_spin_density
 _atom_site_hse06_10hf_ddec_sum_bond_order
 _atom_site_hse06_10hf_magmom
 _atom_site_hse06_bader_spin_density
 _atom_site_hse06_ddec_charge
 _atom_site_hse06_ddec_spin_density
 _atom_site_hse06_ddec_sum_bond_order
 _atom_site_hse06_magmom
 _atom_site_pbe_bader_spin_density
 _atom_site_pbe_cm5_charge
 _atom_site_pbe_ddec_charge
 _atom_site_pbe_ddec_spin_density
 _atom_site_pbe_ddec_sum_bond_order
 _atom_site_pbe_magmom
Ag  Ag0  1  0.03216288  0.87304200  0.69176915  1  0  0.545236  0  1.375853  0  0  0.402597  0  1.817878  0  0  0.434381  0  1.767712  0  0  0.450191  0.381312  0  1.852348  0
Ag  Ag1  1  0.53216901  0.62695775  0.80823104  1  0  0.545247  0  1.375818  0  0  0.402644  0  1.817813  0  0  0.434423  0  1.767652  0  0  0.450179  0.381358  0  1.852275  0
Ag  Ag2  1  0.96783597  0.12695693  0.30822984  1  0  0.545243  0  1.37581  0  0  0.402616  0  1.817829  0  0  0.4344  0  1.767664  0  0  0.450194  0.381332  0  1.852289  0
Ag  Ag3  1  0.46783274  0.37304587  0.19177062  1  0  0.545225  0  1.375833  0  0  0.402606  0  1.817848  0  0  0.434388  0  1.767688  0  0  0.450186  0.381322  0  1.852318  0
H  H4  1  0.25173032  0.33937690  0.55332843  1  0  0.118346  0  0.955897  0  0  0.129265  0  1.01449  0  0  0.132415  0  1.013195  0  0  0.11145  0.126975  0  1.015551  0
H  H5  1  0.75173495  0.16061967  0.94667092  1  0  0.118348  0  0.955955  0  0  0.129255  0  1.014545  0  0  0.132419  0  1.013231  0  0  0.11146  0.12695  0  1.015624  0
H  H6  1  0.74826273  0.66062085  0.44666932  1  0  0.118338  0  0.955893  0  0  0.129253  0  1.014485  0  0  0.132411  0  1.013179  0  0  0.11146  0.126947  0  1.015563  0
H  H7  1  0.24826825  0.83938043  0.05332817  1  0  0.118395  0  0.95598  0  0  0.129293  0  1.014571  0  0  0.132456  0  1.013258  0  0  0.111474  0.126986  0  1.015651  0
H  H8  1  0.13961736  0.56262371  0.65285877  1  0  0.089679  0  0.960981  0  0  0.096986  0  1.034536  0  0  0.100786  0  1.029477  0  0  0.102085  0.094019  0  1.038501  0
H  H9  1  0.63962315  0.93737274  0.84713902  1  0  0.089685  0  0.961  0  0  0.097019  0  1.034517  0  0  0.100835  0  1.029446  0  0  0.102104  0.09405  0  1.038486  0
H  H10  1  0.86038004  0.43737170  0.34713990  1  0  0.089655  0  0.960997  0  0  0.096978  0  1.034536  0  0  0.100788  0  1.029464  0  0  0.102092  0.094012  0  1.038497  0
H  H11  1  0.36037859  0.06263088  0.15285811  1  0  0.089679  0  0.961  0  0  0.097009  0  1.034521  0  0  0.100844  0  1.029421  0  0  0.1021  0.094038  0  1.038489  0
H  H12  1  0.97197708  0.50668154  0.77046535  1  0  0.110635  0  0.949532  0  0  0.115455  0  1.019206  0  0  0.119426  0  1.016813  0  0  0.105945  0.112547  0  1.021138  0
H  H13  1  0.47197739  0.99331679  0.72953364  1  0  0.110632  0  0.949616  0  0  0.115458  0  1.019275  0  0  0.119429  0  1.016883  0  0  0.105954  0.11255  0  1.021213  0
H  H14  1  0.02802467  0.49331270  0.22953435  1  0  0.11062  0  0.94955  0  0  0.115444  0  1.019223  0  0  0.119415  0  1.01683  0  0  0.105958  0.112539  0  1.021156  0
H  H15  1  0.52802001  0.00669152  0.27046560  1  0  0.110623  0  0.949511  0  0  0.11545  0  1.019185  0  0  0.11942  0  1.016794  0  0  0.105961  0.11254  0  1.021126  0
H  H16  1  0.93198764  0.22399051  0.78491738  1  0  0.069976  0  0.968089  0  0  0.079379  0  1.033044  0  0  0.08057  0  1.033687  0  0  0.10913  0.078441  0  1.032769  0
H  H17  1  0.43198439  0.27600996  0.71508370  1  0  0.069981  0  0.968073  0  0  0.079357  0  1.033037  0  0  0.080549  0  1.03368  0  0  0.109111  0.07842  0  1.032764  0
H  H18  1  0.06801556  0.77600489  0.21508243  1  0  0.070003  0  0.968043  0  0  0.079382  0  1.032997  0  0  0.080574  0  1.033639  0  0  0.109119  0.078447  0  1.032719  0
H  H19  1  0.56801156  0.72399952  0.28491791  1  0  0.069967  0  0.968105  0  0  0.0794  0  1.033018  0  0  0.080591  0  1.033661  0  0  0.109124  0.07846  0  1.032749  0
H  H20  1  0.23715088  0.14852732  0.46387999  1  0  0.109  0  0.992552  0  0  0.115807  0  1.061539  0  0  0.119354  0  1.059402  0  0  0.103486  0.1132  0  1.063264  0
H  H21  1  0.73714917  0.35146678  0.03612106  1  0  0.109109  0  0.992584  0  0  0.115907  0  1.061562  0  0  0.119451  0  1.059433  0  0  0.103546  0.113304  0  1.06328  0
H  H22  1  0.76284508  0.85147278  0.53611910  1  0  0.109  0  0.992517  0  0  0.115818  0  1.061497  0  0  0.119364  0  1.05936  0  0  0.103499  0.113214  0  1.06322  0
H  H23  1  0.26284533  0.64853097  0.96387952  1  0  0.109073  0  0.992544  0  0  0.115891  0  1.061512  0  0  0.119435  0  1.059379  0  0  0.103545  0.11329  0  1.06323  0
H  H24  1  0.34241545  0.91190145  0.37286191  1  0  0.084263  0  0.960178  0  0  0.095499  0  1.024941  0  0  0.097665  0  1.023579  0  0  0.101724  0.093846  0  1.026114  0
H  H25  1  0.84241398  0.58809063  0.12714113  1  0  0.084336  0  0.960101  0  0  0.095536  0  1.024911  0  0  0.097691  0  1.023561  0  0  0.101753  0.093882  0  1.026091  0
H  H26  1  0.65758485  0.08809865  0.62713662  1  0  0.084221  0  0.96017  0  0  0.095456  0  1.02494  0  0  0.097621  0  1.023578  0  0  0.101709  0.093807  0  1.026114  0
H  H27  1  0.15758487  0.41190477  0.87286206  1  0  0.084318  0  0.960216  0  0  0.095553  0  1.024966  0  0  0.097719  0  1.023603  0  0  0.101759  0.093902  0  1.026138  0
H  H28  1  0.37235399  0.65392748  0.42016400  1  0  0.107611  0  0.992147  0  0  0.11207  0  1.061132  0  0  0.11561  0  1.059756  0  0  0.102686  0.109493  0  1.062244  0
H  H29  1  0.87235269  0.84606702  0.07984099  1  0  0.107627  0  0.992089  0  0  0.112043  0  1.061132  0  0  0.115584  0  1.059754  0  0  0.102661  0.10945  0  1.06226  0
H  H30  1  0.62765066  0.34607262  0.57983339  1  0  0.107655  0  0.9921  0  0  0.112105  0  1.061097  0  0  0.115647  0  1.059718  0  0  0.102682  0.109506  0  1.062234  0
H  H31  1  0.12764906  0.15393073  0.92016467  1  0  0.10761  0  0.992199  0  0  0.112063  0  1.0612  0  0  0.115607  0  1.059818  0  0  0.102679  0.109468  0  1.062327  0
H  H32  1  0.29005928  0.64884179  0.55658784  1  0  0.078468  0  0.946133  0  0  0.088125  0  1.009763  0  0  0.090534  0  1.007291  0  0  0.114123  0.086311  0  1.011693  0
H  H33  1  0.79005419  0.85115849  0.94341785  1  0  0.078386  0  0.946171  0  0  0.088075  0  1.009766  0  0  0.090486  0  1.007289  0  0  0.114102  0.086261  0  1.011695  0
H  H34  1  0.70994971  0.35115713  0.44341001  1  0  0.07845  0  0.946111  0  0  0.088114  0  1.00974  0  0  0.090523  0  1.007267  0  0  0.11411  0.086301  0  1.011667  0
H  H35  1  0.20994611  0.14884630  0.05658787  1  0  0.078478  0  0.9461  0  0  0.088138  0  1.009725  0  0  0.090547  0  1.007253  0  0  0.114132  0.086324  0  1.011655  0
C  C36  1  0.14727923  0.16302685  0.61647317  1  0  0.166819  0  3.765325  0  0  0.165256  0  4.001239  0  0  0.171502  0  4.022334  0  0  0.116709  0.161103  0  3.986929  0
C  C37  1  0.64728079  0.33697068  0.88352781  1  0  0.166981  0  3.76521  0  0  0.165348  0  4.001248  0  0  0.171594  0  4.022342  0  0  0.116734  0.161212  0  3.986937  0
C  C38  1  0.85271817  0.83696856  0.38352551  1  0  0.166837  0  3.765406  0  0  0.16528  0  4.001345  0  0  0.171526  0  4.02244  0  0  0.116698  0.161126  0  3.987025  0
C  C39  1  0.35271806  0.66303177  0.11647262  1  0  0.166971  0  3.765198  0  0  0.165371  0  4.001193  0  0  0.171617  0  4.022287  0  0  0.116712  0.161223  0  3.986879  0
C  C40  1  0.17827723  0.31701514  0.60474471  1  0  -0.136689  0  3.666534  0  0  -0.151262  0  3.905084  0  0  -0.158042  0  3.926098  0  0  -0.075334  -0.1468  0  3.891001  0
C  C41  1  0.67828143  0.18298246  0.89525519  1  0  -0.136737  0  3.66665  0  0  -0.151286  0  3.905228  0  0  -0.158077  0  3.926238  0  0  -0.075361  -0.146813  0  3.891146  0
C  C42  1  0.82172017  0.68298262  0.39525361  1  0  -0.136672  0  3.666693  0  0  -0.15123  0  3.905232  0  0  -0.158016  0  3.926243  0  0  -0.075326  -0.146759  0  3.891157  0
C  C43  1  0.32172032  0.81701881  0.10474401  1  0  -0.136768  0  3.666655  0  0  -0.151314  0  3.90522  0  0  -0.158106  0  3.926239  0  0  -0.07534  -0.146838  0  3.891134  0
C  C44  1  0.11587182  0.44189718  0.66030535  1  0  0.01607  0  3.704981  0  0  -0.003385  0  3.955272  0  0  6e-06  0  3.973434  0  0  -0.065299  -0.005483  0  3.943175  0
C  C45  1  0.61587954  0.05810146  0.83969399  1  0  0.016152  0  3.705011  0  0  -0.003307  0  3.955259  0  0  6.9e-05  0  3.973425  0  0  -0.065247  -0.005404  0  3.943159  0
C  C46  1  0.88412558  0.55810058  0.33969354  1  0  0.01606  0  3.705088  0  0  -0.003411  0  3.955377  0  0  -2.5e-05  0  3.973534  0  0  -0.065299  -0.005506  0  3.943272  0
C  C47  1  0.38412511  0.94190216  0.16030485  1  0  0.016041  0  3.704936  0  0  -0.003429  0  3.955217  0  0  -6.2e-05  0  3.973365  0  0  -0.06531  -0.00552  0  3.943113  0
C  C48  1  0.02433622  0.41143661  0.72637048  1  0  -0.124043  0  3.717724  0  0  -0.13807  0  3.974506  0  0  -0.144765  0  3.995277  0  0  -0.087257  -0.133851  0  3.960758  0
C  C49  1  0.52433758  0.08856065  0.77362916  1  0  -0.124145  0  3.717837  0  0  -0.138185  0  3.974612  0  0  -0.144881  0  3.995387  0  0  -0.087328  -0.133964  0  3.960869  0
C  C50  1  0.97566408  0.58855996  0.27362943  1  0  -0.124003  0  3.717788  0  0  -0.138031  0  3.974544  0  0  -0.144726  0  3.995317  0  0  -0.087275  -0.133815  0  3.960802  0
C  C51  1  0.47565982  0.91144296  0.22636967  1  0  -0.123935  0  3.717677  0  0  -0.137965  0  3.974427  0  0  -0.14466  0  3.99521  0  0  -0.087261  -0.133745  0  3.960681  0
C  C52  1  0.00062687  0.25540465  0.73423996  1  0  0.121114  0  3.734779  0  0  0.092512  0  3.986426  0  0  0.098773  0  4.00613  0  0  0.04292  0.088463  0  3.972978  0
C  C53  1  0.50062709  0.24459374  0.76575975  1  0  0.121228  0  3.734637  0  0  0.092679  0  3.986273  0  0  0.098941  0  4.005975  0  0  0.043025  0.088629  0  3.972831  0
C  C54  1  0.99937488  0.74459193  0.26575995  1  0  0.121102  0  3.734739  0  0  0.092544  0  3.98638  0  0  0.098805  0  4.006081  0  0  0.042959  0.088488  0  3.972937  0
C  C55  1  0.49937176  0.75541105  0.23423918  1  0  0.121119  0  3.734832  0  0  0.092511  0  3.986461  0  0  0.098771  0  4.006164  0  0  0.042935  0.088462  0  3.973015  0
C  C56  1  0.20983532  0.02437653  0.55953562  1  0  0.166156  0  3.769112  0  0  0.165396  0  4.004869  0  0  0.171097  0  4.026724  0  0  0.111807  0.161453  0  3.990239  0
C  C57  1  0.70983485  0.47562113  0.94046603  1  0  0.166196  0  3.769075  0  0  0.165471  0  4.004854  0  0  0.171176  0  4.026702  0  0  0.111816  0.16148  0  3.990291  0
C  C58  1  0.79016063  0.97562005  0.44046316  1  0  0.166223  0  3.769044  0  0  0.165417  0  4.004872  0  0  0.171118  0  4.026726  0  0  0.111812  0.161489  0  3.990225  0
C  C59  1  0.29016255  0.52438131  0.05953553  1  0  0.166244  0  3.768994  0  0  0.165437  0  4.004878  0  0  0.171139  0  4.026731  0  0  0.111807  0.16148  0  3.990273  0
C  C60  1  0.25282655  0.03701010  0.48349024  1  0  -0.144936  0  3.707808  0  0  -0.163941  0  3.955997  0  0  -0.170976  0  3.977498  0  0  -0.084652  -0.159257  0  3.941748  0
C  C61  1  0.75282638  0.46298520  0.01651151  1  0  -0.145218  0  3.707965  0  0  -0.16422  0  3.95619  0  0  -0.171257  0  3.977689  0  0  -0.084772  -0.159521  0  3.941954  0
C  C62  1  0.74716940  0.96298883  0.51650818  1  0  -0.144966  0  3.707918  0  0  -0.163972  0  3.956134  0  0  -0.171008  0  3.977637  0  0  -0.084668  -0.159301  0  3.941894  0
C  C63  1  0.24717102  0.53701489  0.98348928  1  0  -0.145129  0  3.707757  0  0  -0.164141  0  3.956013  0  0  -0.171176  0  3.977514  0  0  -0.084748  -0.159459  0  3.941773  0
C  C64  1  0.31119180  0.90393378  0.43238786  1  0  -0.002849  0  3.732893  0  0  -0.023088  0  3.984584  0  0  -0.019724  0  4.003666  0  0  -0.074578  -0.025225  0  3.971755  0
C  C65  1  0.81119268  0.59605942  0.06761524  1  0  -0.002798  0  3.732663  0  0  -0.022996  0  3.984356  0  0  -0.019624  0  4.003443  0  0  -0.074548  -0.025134  0  3.971526  0
C  C66  1  0.68880705  0.09606515  0.56761000  1  0  -0.002772  0  3.732941  0  0  -0.022993  0  3.984614  0  0  -0.019629  0  4.003699  0  0  -0.074531  -0.025133  0  3.971787  0
C  C67  1  0.18880617  0.40393716  0.93238750  1  0  -0.002814  0  3.732792  0  0  -0.023026  0  3.984488  0  0  -0.019663  0  4.003571  0  0  -0.074547  -0.025162  0  3.971657  0
C  C68  1  0.32639073  0.76129848  0.45789257  1  0  -0.113858  0  3.71091  0  0  -0.125737  0  3.961012  0  0  -0.132727  0  3.983165  0  0  -0.086253  -0.121201  0  3.946274  0
C  C69  1  0.82638882  0.73869709  0.04211132  1  0  -0.11389  0  3.710676  0  0  -0.125737  0  3.960782  0  0  -0.132725  0  3.982922  0  0  -0.086259  -0.121187  0  3.946061  0
C  C70  1  0.67361101  0.23870045  0.54210529  1  0  -0.113979  0  3.710972  0  0  -0.125863  0  3.96107  0  0  -0.132853  0  3.983216  0  0  -0.086297  -0.121305  0  3.946346  0
C  C71  1  0.17361003  0.26130066  0.95789265  1  0  -0.11389  0  3.710858  0  0  -0.125792  0  3.960971  0  0  -0.13278  0  3.983115  0  0  -0.086306  -0.121236  0  3.946241  0
C  C72  1  0.27952043  0.75786999  0.53419448  1  0  0.136028  0  3.70265  0  0  0.106984  0  3.953338  0  0  0.113274  0  3.971616  0  0  0.045844  0.102748  0  3.941106  0
C  C73  1  0.77951819  0.74212793  0.96581042  1  0  0.136124  0  3.702727  0  0  0.107079  0  3.953409  0  0  0.113371  0  3.97169  0  0  0.045892  0.102839  0  3.941168  0
C  C74  1  0.72048276  0.24212894  0.46580394  1  0  0.136101  0  3.702604  0  0  0.107052  0  3.953302  0  0  0.113344  0  3.971581  0  0  0.045897  0.102813  0  3.941062  0
C  C75  1  0.22048211  0.25787451  0.03419396  1  0  0.136039  0  3.702659  0  0  0.107012  0  3.953349  0  0  0.113303  0  3.971629  0  0  0.045866  0.102771  0  3.941113  0
N  N76  1  0.69186846  0.64305816  0.64916615  1  0  0.680829  0  4.128934  0  0  0.713507  0  4.409216  0  0  0.74202  0  4.41847  0  0  0.091953  0.69425  0  4.402318  0
N  N77  1  0.19187394  0.85695014  0.85083277  1  0  0.68101  0  4.128752  0  0  0.713634  0  4.409128  0  0  0.742149  0  4.418375  0  0  0.091983  0.694378  0  4.402227  0
N  N78  1  0.30813183  0.35694546  0.35083269  1  0  0.680896  0  4.128825  0  0  0.713556  0  4.409143  0  0  0.742066  0  4.418392  0  0  0.091957  0.694295  0  4.402247  0
N  N79  1  0.80812925  0.14305231  0.14916766  1  0  0.68096  0  4.128694  0  0  0.71362  0  4.409011  0  0  0.742131  0  4.418262  0  0  0.091993  0.69435  0  4.402124  0
N  N80  1  0.05963140  0.13467330  0.68089373  1  0  -0.344958  0  3.295929  0  0  -0.277561  0  3.5759  0  0  -0.294839  0  3.590574  0  0  -0.334534  -0.265777  0  3.565668  0
N  N81  1  0.55963241  0.36532521  0.81910721  1  0  -0.345142  0  3.295863  0  0  -0.277761  0  3.575894  0  0  -0.29504  0  3.590566  0  0  -0.334633  -0.265979  0  3.565662  0
N  N82  1  0.94036600  0.86532210  0.31910495  1  0  -0.345034  0  3.29592  0  0  -0.277656  0  3.575895  0  0  -0.294934  0  3.590568  0  0  -0.334573  -0.265869  0  3.565662  0
N  N83  1  0.44036644  0.63468075  0.18089409  1  0  -0.345142  0  3.295902  0  0  -0.277738  0  3.575898  0  0  -0.295017  0  3.59057  0  0  -0.334566  -0.265952  0  3.565664  0
N  N84  1  0.22167948  0.88535793  0.58399924  1  0  -0.34477  0  3.248648  0  0  -0.278446  0  3.527822  0  0  -0.295383  0  3.542231  0  0  -0.33242  -0.266978  0  3.518029  0
N  N85  1  0.72167645  0.61464104  0.91600398  1  0  -0.344806  0  3.248796  0  0  -0.278528  0  3.528024  0  0  -0.295465  0  3.542431  0  0  -0.332433  -0.267041  0  3.51824  0
N  N86  1  0.77832227  0.11463865  0.41599897  1  0  -0.344803  0  3.248582  0  0  -0.278462  0  3.527769  0  0  -0.295398  0  3.542176  0  0  -0.332438  -0.26699  0  3.517964  0
N  N87  1  0.27832384  0.38536257  0.08399938  1  0  -0.3448  0  3.24874  0  0  -0.278471  0  3.527945  0  0  -0.295407  0  3.542354  0  0  -0.332426  -0.26699  0  3.518152  0
O  O88  1  0.76162277  0.73016999  0.71060822  1  0  -0.493877  0  1.902117  0  0  -0.453788  0  2.17701  0  0  -0.476616  0  2.164219  0  0  -0.213942  -0.437814  0  2.185404  0
O  O89  1  0.26162311  0.76982789  0.78939270  1  0  -0.49389  0  1.902092  0  0  -0.453798  0  2.176979  0  0  -0.476623  0  2.164187  0  0  -0.213947  -0.437831  0  2.185386  0
O  O90  1  0.23838043  0.26982776  0.28939236  1  0  -0.493874  0  1.90213  0  0  -0.45378  0  2.177011  0  0  -0.476605  0  2.164221  0  0  -0.213925  -0.437804  0  2.185405  0
O  O91  1  0.73837864  0.23017221  0.21060639  1  0  -0.493834  0  1.902116  0  0  -0.453776  0  2.177052  0  0  -0.476602  0  2.164261  0  0  -0.21393  -0.4378  0  2.185455  0
O  O92  1  0.54149279  0.56375997  0.65635294  1  0  -0.451677  0  1.796795  0  0  -0.430086  0  2.023101  0  0  -0.447191  0  2.016536  0  0  -0.180121  -0.417985  0  2.027255  0
O  O93  1  0.04148970  0.93623745  0.84364480  1  0  -0.451787  0  1.796731  0  0  -0.43017  0  2.02305  0  0  -0.44729  0  2.016501  0  0  -0.180144  -0.418071  0  2.027205  0
O  O94  1  0.45851331  0.43623662  0.34364584  1  0  -0.451769  0  1.796789  0  0  -0.430168  0  2.023106  0  0  -0.447284  0  2.016558  0  0  -0.180166  -0.418069  0  2.027267  0
O  O95  1  0.95851205  0.06376382  0.15635496  1  0  -0.451774  0  1.796783  0  0  -0.430164  0  2.023105  0  0  -0.44728  0  2.016553  0  0  -0.180143  -0.418057  0  2.027262  0
O  O96  1  0.77419104  0.63855099  0.58566248  1  0  -0.442557  0  1.76102  0  0  -0.433484  0  1.973097  0  0  -0.447157  0  1.967436  0  0  -0.175664  -0.423791  0  1.976712  0
O  O97  1  0.27420438  0.86147156  0.91433611  1  0  -0.442652  0  1.761067  0  0  -0.433514  0  1.973088  0  0  -0.447193  0  1.967446  0  0  -0.175662  -0.423831  0  1.976717  0
O  O98  1  0.22580926  0.36146084  0.41433708  1  0  -0.44254  0  1.760951  0  0  -0.433438  0  1.972992  0  0  -0.447115  0  1.967345  0  0  -0.175637  -0.423755  0  1.976626  0
O  O99  1  0.72580461  0.13853441  0.08566293  1  0  -0.442639  0  1.760838  0  0  -0.433539  0  1.972901  0  0  -0.447211  0  1.967249  0  0  -0.175693  -0.423849  0  1.976533  0
