# generated using pymatgen
data_CdH13C15N3O4
_symmetry_space_group_name_H-M   'P 1'
_cell_length_a   9.59965310
_cell_length_b   9.59971812
_cell_length_c   17.62366609
_cell_angle_alpha   94.59816468
_cell_angle_beta   94.59854914
_cell_angle_gamma   102.92783750
_symmetry_Int_Tables_number   1
_chemical_formula_structural   CdH13C15N3O4
_chemical_formula_sum   'Cd4 H52 C60 N12 O16'
_cell_volume   1569.76348590
_cell_formula_units_Z   4
loop_
 _symmetry_equiv_pos_site_id
 _symmetry_equiv_pos_as_xyz
  1  'x, y, z'
loop_
 _atom_site_type_symbol
 _atom_site_label
 _atom_site_symmetry_multiplicity
 _atom_site_fract_x
 _atom_site_fract_y
 _atom_site_fract_z
 _atom_site_occupancy
 _atom_site_hle17_bader_spin_density
 _atom_site_hle17_ddec_charge
 _atom_site_hle17_ddec_spin_density
 _atom_site_hle17_ddec_sum_bond_order
 _atom_site_hle17_magmom
 _atom_site_hse06_10hf_bader_spin_density
 _atom_site_hse06_10hf_ddec_charge
 _atom_site_hse06_10hf_ddec_spin_density
 _atom_site_hse06_10hf_ddec_sum_bond_order
 _atom_site_hse06_10hf_magmom
 _atom_site_hse06_bader_spin_density
 _atom_site_hse06_ddec_charge
 _atom_site_hse06_ddec_spin_density
 _atom_site_hse06_ddec_sum_bond_order
 _atom_site_hse06_magmom
 _atom_site_pbe_bader_spin_density
 _atom_site_pbe_cm5_charge
 _atom_site_pbe_ddec_charge
 _atom_site_pbe_ddec_spin_density
 _atom_site_pbe_ddec_sum_bond_order
 _atom_site_pbe_magmom
Cd  Cd0  1  0.84636018  0.15364222  0.25000043  1  0  1.091142  0  1.711491  0  0  0.888448  0  2.158525  0  0  0.945237  0  2.109062  0  0  0.775596  0.84858  0  2.190602  0
Cd  Cd1  1  0.15364547  0.84635854  0.74999808  1  0  1.091172  0  1.711489  0  0  0.888492  0  2.158526  0  0  0.945279  0  2.109062  0  0  0.775618  0.84862  0  2.190616  0
Cd  Cd2  1  0.52140607  0.47859186  0.74999909  1  0  1.089775  0  1.795352  0  0  0.891326  0  2.249137  0  0  0.939466  0  2.204196  0  0  0.79032  0.857346  0  2.279779  0
Cd  Cd3  1  0.47859438  0.52140890  0.25000038  1  0  1.089776  0  1.79537  0  0  0.891315  0  2.249162  0  0  0.939457  0  2.204221  0  0  0.790315  0.85734  0  2.279797  0
H  H4  1  0.63440544  0.38870612  0.44854248  1  0  0.093763  0  0.99637  0  0  0.104856  0  1.05826  0  0  0.108105  0  1.05554  0  0  0.100951  0.102279  0  1.06066  0
H  H5  1  0.61130183  0.36560529  0.05145864  1  0  0.093778  0  0.996292  0  0  0.10487  0  1.058192  0  0  0.10812  0  1.055471  0  0  0.100969  0.102308  0  1.060591  0
H  H6  1  0.36559789  0.61129358  0.55145647  1  0  0.093749  0  0.996378  0  0  0.104792  0  1.058352  0  0  0.10804  0  1.055632  0  0  0.10094  0.102219  0  1.060756  0
H  H7  1  0.38869871  0.63439556  0.94854310  1  0  0.0938  0  0.996244  0  0  0.104874  0  1.058162  0  0  0.108124  0  1.055442  0  0  0.100966  0.102302  0  1.060573  0
H  H8  1  0.74861067  0.00613666  0.51800787  1  0  0.093465  0  0.947552  0  0  0.106487  0  1.005517  0  0  0.109646  0  1.003321  0  0  0.103753  0.104079  0  1.007241  0
H  H9  1  0.99385763  0.25137229  0.98198976  1  0  0.093374  0  0.947554  0  0  0.106447  0  1.005484  0  0  0.109606  0  1.003288  0  0  0.103726  0.104042  0  1.007198  0
H  H10  1  0.25138770  0.99385974  0.48198966  1  0  0.093391  0  0.947455  0  0  0.106387  0  1.005472  0  0  0.109545  0  1.003279  0  0  0.103702  0.103969  0  1.007193  0
H  H11  1  0.00613270  0.74862084  0.01800737  1  0  0.093468  0  0.947517  0  0  0.106486  0  1.005478  0  0  0.109642  0  1.003289  0  0  0.103757  0.104075  0  1.007207  0
H  H12  1  0.26882594  0.37633338  0.90548432  1  0  0.094187  0  0.966006  0  0  0.105948  0  1.025052  0  0  0.107704  0  1.025525  0  0  0.111986  0.104796  0  1.024656  0
H  H13  1  0.62366891  0.73116719  0.59451243  1  0  0.094096  0  0.966011  0  0  0.105877  0  1.025056  0  0  0.107632  0  1.025528  0  0  0.11197  0.104716  0  1.024654  0
H  H14  1  0.73116663  0.62367033  0.09450872  1  0  0.094084  0  0.96597  0  0  0.105868  0  1.025018  0  0  0.107626  0  1.025488  0  0  0.111961  0.104707  0  1.024619  0
H  H15  1  0.37633624  0.26884015  0.40549026  1  0  0.094144  0  0.966104  0  0  0.105911  0  1.025133  0  0  0.107666  0  1.025607  0  0  0.112002  0.104756  0  1.02473  0
H  H16  1  0.12109369  0.08800294  0.89214859  1  0  0.108696  0  0.962551  0  0  0.118505  0  1.023197  0  0  0.12086  0  1.02279  0  0  0.115517  0.116737  0  1.023677  0
H  H17  1  0.91199674  0.87890179  0.60784897  1  0  0.108701  0  0.962568  0  0  0.118516  0  1.0232  0  0  0.12087  0  1.022795  0  0  0.115532  0.116744  0  1.023683  0
H  H18  1  0.87890291  0.91199980  0.10784683  1  0  0.108647  0  0.96256  0  0  0.118514  0  1.023125  0  0  0.120866  0  1.022727  0  0  0.115531  0.116745  0  1.02361  0
H  H19  1  0.08800853  0.12109693  0.39215229  1  0  0.108712  0  0.962564  0  0  0.118533  0  1.023178  0  0  0.120886  0  1.022777  0  0  0.115532  0.116767  0  1.023659  0
H  H20  1  0.40987403  0.03468617  0.68196689  1  0  0.082883  0  0.953669  0  0  0.092998  0  1.019993  0  0  0.09551  0  1.015755  0  0  0.119107  0.091396  0  1.022638  0
H  H21  1  0.96531727  0.59011966  0.81803249  1  0  0.082924  0  0.953652  0  0  0.093021  0  1.019986  0  0  0.095536  0  1.015747  0  0  0.119112  0.091413  0  1.022637  0
H  H22  1  0.59012719  0.96531348  0.31803142  1  0  0.08293  0  0.953633  0  0  0.093035  0  1.019965  0  0  0.09555  0  1.015722  0  0  0.119127  0.091435  0  1.022619  0
H  H23  1  0.03468076  0.40987909  0.18197079  1  0  0.082916  0  0.953755  0  0  0.093011  0  1.020078  0  0  0.095522  0  1.015841  0  0  0.119129  0.091404  0  1.022732  0
H  H24  1  0.52902555  0.42116363  0.57114908  1  0  0.105558  0  0.961172  0  0  0.115951  0  1.023557  0  0  0.119091  0  1.022072  0  0  0.102621  0.113688  0  1.024613  0
H  H25  1  0.57884587  0.47098893  0.92885134  1  0  0.105636  0  0.961157  0  0  0.116012  0  1.023563  0  0  0.119166  0  1.022044  0  0  0.102663  0.113763  0  1.024611  0
H  H26  1  0.47098070  0.57883503  0.42885052  1  0  0.105629  0  0.961165  0  0  0.115996  0  1.023582  0  0  0.119157  0  1.022061  0  0  0.10265  0.113716  0  1.024675  0
H  H27  1  0.42114994  0.52901406  0.07115088  1  0  0.105648  0  0.961171  0  0  0.116039  0  1.023542  0  0  0.119187  0  1.02204  0  0  0.102681  0.11378  0  1.024629  0
H  H28  1  0.64128000  0.03723777  0.64098625  1  0  0.10303  0  0.949932  0  0  0.111373  0  1.01428  0  0  0.114605  0  1.013199  0  0  0.102737  0.108936  0  1.015243  0
H  H29  1  0.96275337  0.35869936  0.85900919  1  0  0.102986  0  0.949989  0  0  0.111342  0  1.014346  0  0  0.114571  0  1.013271  0  0  0.102754  0.108941  0  1.015247  0
H  H30  1  0.35871578  0.96275645  0.35901054  1  0  0.103037  0  0.94988  0  0  0.111393  0  1.014246  0  0  0.114637  0  1.013152  0  0  0.102773  0.108951  0  1.015208  0
H  H31  1  0.03723204  0.64129053  0.14098766  1  0  0.102988  0  0.94986  0  0  0.111353  0  1.014211  0  0  0.114581  0  1.013138  0  0  0.102742  0.108929  0  1.015142  0
H  H32  1  0.25946304  0.43214816  0.64634116  1  0  0.397325  0  0.899857  0  0  0.367759  0  0.973564  0  0  0.375331  0  0.96312  0  0  0.288145  0.362576  0  0.980579  0
H  H33  1  0.56785792  0.74053747  0.85365984  1  0  0.397259  0  0.899859  0  0  0.367687  0  0.973648  0  0  0.375259  0  0.963203  0  0  0.288117  0.362511  0  0.980652  0
H  H34  1  0.74053794  0.56785480  0.35365953  1  0  0.39733  0  0.899826  0  0  0.367759  0  0.973556  0  0  0.375331  0  0.963111  0  0  0.288155  0.362578  0  0.980567  0
H  H35  1  0.43214622  0.25946553  0.14634153  1  0  0.397322  0  0.899851  0  0  0.367746  0  0.973575  0  0  0.375318  0  0.963131  0  0  0.288155  0.362571  0  0.980579  0
H  H36  1  0.31205897  0.60404426  0.65894121  1  0  0.435187  0  0.87002  0  0  0.400911  0  0.937926  0  0  0.412735  0  0.920803  0  0  0.286566  0.392591  0  0.949923  0
H  H37  1  0.39596184  0.68793660  0.84105941  1  0  0.435228  0  0.869965  0  0  0.400943  0  0.937897  0  0  0.412767  0  0.920773  0  0  0.2866  0.392625  0  0.949892  0
H  H38  1  0.68793985  0.39595862  0.34105770  1  0  0.43517  0  0.870055  0  0  0.400885  0  0.937982  0  0  0.41271  0  0.920857  0  0  0.28656  0.392567  0  0.949976  0
H  H39  1  0.60404125  0.31206640  0.15894193  1  0  0.435227  0  0.869986  0  0  0.400931  0  0.937928  0  0  0.412756  0  0.920803  0  0  0.286594  0.392615  0  0.949918  0
H  H40  1  0.92931495  0.61835132  0.49584056  1  0  0.119419  0  0.961977  0  0  0.1317  0  1.017759  0  0  0.133922  0  1.018218  0  0  0.106217  0.129952  0  1.017751  0
H  H41  1  0.38164745  0.07070651  0.00417493  1  0  0.119445  0  0.962059  0  0  0.131744  0  1.017801  0  0  0.133968  0  1.018258  0  0  0.106237  0.129995  0  1.017803  0
H  H42  1  0.07068749  0.38164416  0.50416049  1  0  0.119411  0  0.962015  0  0  0.1317  0  1.017775  0  0  0.133922  0  1.018234  0  0  0.106226  0.129951  0  1.017774  0
H  H43  1  0.61836121  0.92930205  0.99583134  1  0  0.119431  0  0.962079  0  0  0.131716  0  1.017842  0  0  0.133939  0  1.018302  0  0  0.106219  0.129968  0  1.017847  0
H  H44  1  0.06837542  0.49366425  0.38641458  1  0  0.096657  0  0.974048  0  0  0.101053  0  1.04197  0  0  0.10274  0  1.041863  0  0  0.115693  0.099808  0  1.04212  0
H  H45  1  0.50633901  0.93163523  0.11359142  1  0  0.096553  0  0.974088  0  0  0.100992  0  1.041973  0  0  0.102679  0  1.041864  0  0  0.115696  0.099745  0  1.042126  0
H  H46  1  0.93163615  0.50634410  0.61358554  1  0  0.096622  0  0.974064  0  0  0.101067  0  1.041944  0  0  0.102754  0  1.041835  0  0  0.115669  0.099817  0  1.0421  0
H  H47  1  0.49366593  0.06836670  0.88640994  1  0  0.096664  0  0.974018  0  0  0.101072  0  1.041941  0  0  0.102759  0  1.041831  0  0  0.115725  0.099823  0  1.042103  0
H  H48  1  0.85709107  0.84682990  0.42869708  1  0  0.138772  0  0.959874  0  0  0.146954  0  1.018124  0  0  0.15078  0  1.015665  0  0  0.108257  0.144302  0  1.019573  0
H  H49  1  0.15316283  0.14290852  0.07131973  1  0  0.138643  0  0.959883  0  0  0.146822  0  1.018175  0  0  0.150648  0  1.015718  0  0  0.108192  0.144172  0  1.019623  0
H  H50  1  0.14289813  0.15316232  0.57130453  1  0  0.138758  0  0.959929  0  0  0.146924  0  1.018203  0  0  0.150749  0  1.015746  0  0  0.108223  0.144269  0  1.019656  0
H  H51  1  0.84684506  0.85710115  0.92868769  1  0  0.138705  0  0.959911  0  0  0.146859  0  1.018217  0  0  0.150685  0  1.015759  0  0  0.108192  0.144205  0  1.019666  0
H  H52  1  0.95538094  0.83223666  0.28698835  1  0  0.095662  0  0.96432  0  0  0.101036  0  1.030755  0  0  0.102939  0  1.029943  0  0  0.116079  0.099612  0  1.031622  0
H  H53  1  0.16776187  0.04459280  0.21302454  1  0  0.095603  0  0.964404  0  0  0.100921  0  1.030884  0  0  0.102822  0  1.03008  0  0  0.116057  0.099501  0  1.031739  0
H  H54  1  0.04460728  0.16776519  0.71301299  1  0  0.095647  0  0.964431  0  0  0.101055  0  1.030814  0  0  0.10296  0  1.030001  0  0  0.116059  0.099632  0  1.031681  0
H  H55  1  0.83225035  0.95540830  0.78698216  1  0  0.095652  0  0.964395  0  0  0.10102  0  1.030825  0  0  0.102923  0  1.030015  0  0  0.116095  0.099604  0  1.031676  0
C  C56  1  0.75542005  0.16755352  0.40042424  1  0  0.627861  0  3.923032  0  0  0.576621  0  4.216309  0  0  0.611085  0  4.209809  0  0  0.19461  0.553501  0  4.219169  0
C  C57  1  0.83244126  0.24457988  0.09957552  1  0  0.627703  0  3.923157  0  0  0.576481  0  4.21639  0  0  0.610942  0  4.209891  0  0  0.194535  0.553364  0  4.219244  0
C  C58  1  0.24457632  0.83244295  0.59957550  1  0  0.627937  0  3.923051  0  0  0.576697  0  4.216297  0  0  0.611157  0  4.209795  0  0  0.194588  0.553573  0  4.219152  0
C  C59  1  0.16755815  0.75542088  0.90042391  1  0  0.627676  0  3.923142  0  0  0.576483  0  4.216348  0  0  0.610942  0  4.209852  0  0  0.194522  0.553351  0  4.21921  0
C  C60  1  0.69571377  0.19275157  0.47456125  1  0  -0.08277  0  3.781238  0  0  -0.060675  0  4.018371  0  0  -0.071165  0  4.044011  0  0  -0.025741  -0.054261  0  4.001213  0
C  C61  1  0.80724719  0.30428370  0.02543841  1  0  -0.082829  0  3.781306  0  0  -0.060697  0  4.018374  0  0  -0.071187  0  4.044015  0  0  -0.025726  -0.054287  0  4.001242  0
C  C62  1  0.30428565  0.80724484  0.52543632  1  0  -0.082973  0  3.78141  0  0  -0.060819  0  4.018453  0  0  -0.071309  0  4.044091  0  0  -0.025728  -0.054404  0  4.001291  0
C  C63  1  0.19274861  0.69571492  0.97456138  1  0  -0.082755  0  3.781282  0  0  -0.060636  0  4.018337  0  0  -0.071125  0  4.043976  0  0  -0.025735  -0.054211  0  4.001167  0
C  C64  1  0.63505053  0.31080709  0.49009014  1  0  -0.073457  0  3.776039  0  0  -0.096586  0  4.022365  0  0  -0.095053  0  4.042802  0  0  -0.092125  -0.097386  0  4.008809  0
C  C65  1  0.68919682  0.36495483  0.00991022  1  0  -0.073385  0  3.775916  0  0  -0.096518  0  4.022197  0  0  -0.094989  0  4.042641  0  0  -0.092077  -0.097322  0  4.008673  0
C  C66  1  0.36494974  0.68918829  0.50990856  1  0  -0.073325  0  3.775875  0  0  -0.096424  0  4.022188  0  0  -0.094893  0  4.042629  0  0  -0.092115  -0.09723  0  4.008646  0
C  C67  1  0.31079929  0.63504492  0.99009132  1  0  -0.073376  0  3.775946  0  0  -0.096482  0  4.022214  0  0  -0.094951  0  4.042655  0  0  -0.092063  -0.097291  0  4.00869  0
C  C68  1  0.69839812  0.09563361  0.52985800  1  0  -0.042389  0  3.747198  0  0  -0.067977  0  3.997301  0  0  -0.066232  0  4.018594  0  0  -0.079323  -0.068848  0  3.982736  0
C  C69  1  0.90435970  0.30158989  0.97013896  1  0  -0.042253  0  3.747013  0  0  -0.067895  0  3.997119  0  0  -0.066149  0  4.018407  0  0  -0.079291  -0.068756  0  3.98255  0
C  C70  1  0.30160214  0.90435740  0.47013827  1  0  -0.042138  0  3.747187  0  0  -0.067709  0  3.997241  0  0  -0.065965  0  4.018536  0  0  -0.079263  -0.06857  0  3.982664  0
C  C71  1  0.09563086  0.69840432  0.02985822  1  0  -0.042457  0  3.747063  0  0  -0.068046  0  3.99715  0  0  -0.066299  0  4.018437  0  0  -0.079324  -0.068921  0  3.982592  0
C  C72  1  0.35048176  0.17292996  0.77142674  1  0  0.255685  0  3.891468  0  0  0.234097  0  4.15834  0  0  0.239327  0  4.180356  0  0  0.176311  0.230841  0  4.142915  0
C  C73  1  0.82707226  0.64951277  0.72857341  1  0  0.255808  0  3.891374  0  0  0.234202  0  4.158251  0  0  0.239434  0  4.180264  0  0  0.176329  0.230917  0  4.142847  0
C  C74  1  0.64951760  0.82707076  0.22857155  1  0  0.255793  0  3.89135  0  0  0.23419  0  4.158249  0  0  0.23942  0  4.180263  0  0  0.17635  0.230934  0  4.142832  0
C  C75  1  0.17292832  0.35048812  0.27142947  1  0  0.255984  0  3.891186  0  0  0.234359  0  4.158067  0  0  0.239588  0  4.180081  0  0  0.176354  0.231079  0  4.142671  0
C  C76  1  0.27707694  0.28768670  0.86502427  1  0  0.020979  0  3.73654  0  0  -0.009077  0  3.996329  0  0  -0.008674  0  4.018555  0  0  0.002562  -0.009438  0  3.981363  0
C  C77  1  0.71231693  0.72291795  0.63497334  1  0  0.0212  0  3.736461  0  0  -0.008879  0  3.996243  0  0  -0.008472  0  4.018466  0  0  0.002546  -0.009233  0  3.98125  0
C  C78  1  0.72291827  0.71231923  0.13497065  1  0  0.02117  0  3.736482  0  0  -0.008908  0  3.996265  0  0  -0.008501  0  4.018487  0  0  0.002555  -0.009264  0  3.981294  0
C  C79  1  0.28768747  0.27708614  0.36502865  1  0  0.021121  0  3.736668  0  0  -0.00894  0  3.996453  0  0  -0.008533  0  4.018674  0  0  0.002505  -0.009298  0  3.981465  0
C  C80  1  0.20249020  0.14373702  0.85882223  1  0  -0.010145  0  3.744475  0  0  -0.045326  0  4.008971  0  0  -0.044546  0  4.031723  0  0  -0.005585  -0.045615  0  3.993477  0
C  C81  1  0.85626256  0.79750649  0.64117769  1  0  -0.010249  0  3.744615  0  0  -0.045435  0  4.009124  0  0  -0.044653  0  4.031868  0  0  -0.005642  -0.045721  0  3.993616  0
C  C82  1  0.79750912  0.85626365  0.14117492  1  0  -0.010211  0  3.744452  0  0  -0.04543  0  4.008977  0  0  -0.04465  0  4.031718  0  0  -0.005611  -0.045725  0  3.993497  0
C  C83  1  0.14374168  0.20249224  0.35882410  1  0  -0.010219  0  3.744486  0  0  -0.045401  0  4.008995  0  0  -0.044621  0  4.031737  0  0  -0.005594  -0.045688  0  3.993497  0
C  C84  1  0.42627905  0.14590502  0.70702753  1  0  0.111784  0  3.688502  0  0  0.070659  0  3.946731  0  0  0.0867  0  3.953212  0  0  0.083264  0.059798  0  3.941873  0
C  C85  1  0.85409641  0.57371655  0.79297054  1  0  0.111645  0  3.688608  0  0  0.07056  0  3.946805  0  0  0.086592  0  3.953288  0  0  0.083252  0.059718  0  3.941947  0
C  C86  1  0.57372214  0.85409462  0.29297022  1  0  0.111735  0  3.688505  0  0  0.070619  0  3.946741  0  0  0.086662  0  3.953224  0  0  0.083255  0.059753  0  3.941892  0
C  C87  1  0.14590126  0.42628538  0.20703170  1  0  0.111517  0  3.688595  0  0  0.070468  0  3.946765  0  0  0.086505  0  3.953243  0  0  0.083168  0.059614  0  3.941923  0
C  C88  1  0.57417234  0.22932699  0.61233949  1  0  0.238097  0  3.812204  0  0  0.235217  0  4.058377  0  0  0.24263  0  4.080767  0  0  0.094767  0.230448  0  4.042615  0
C  C89  1  0.77067417  0.42582051  0.88765859  1  0  0.238168  0  3.812067  0  0  0.235279  0  4.058276  0  0  0.242689  0  4.080667  0  0  0.094836  0.230519  0  4.042532  0
C  C90  1  0.42582578  0.77066831  0.38765743  1  0  0.238019  0  3.812298  0  0  0.235248  0  4.058332  0  0  0.24266  0  4.080731  0  0  0.094857  0.230471  0  4.042574  0
C  C91  1  0.22931747  0.57417810  0.11234162  1  0  0.238243  0  3.811883  0  0  0.235248  0  4.05825  0  0  0.242657  0  4.080639  0  0  0.094778  0.230485  0  4.042492  0
C  C92  1  0.57675543  0.33011649  0.55859288  1  0  -0.155671  0  3.72907  0  0  -0.174445  0  3.9796  0  0  -0.180152  0  4.000215  0  0  -0.094266  -0.170443  0  3.965095  0
C  C93  1  0.66988648  0.42325171  0.94140559  1  0  -0.155794  0  3.729075  0  0  -0.174562  0  3.979597  0  0  -0.180268  0  4.00022  0  0  -0.094328  -0.170561  0  3.965109  0
C  C94  1  0.42324685  0.66987883  0.44140362  1  0  -0.155796  0  3.729037  0  0  -0.174607  0  3.97955  0  0  -0.18032  0  4.000162  0  0  -0.09436  -0.170602  0  3.96506  0
C  C95  1  0.33010773  0.57674906  0.05859479  1  0  -0.155931  0  3.729121  0  0  -0.174676  0  3.979675  0  0  -0.180383  0  4.000295  0  0  -0.094371  -0.170692  0  3.965205  0
C  C96  1  0.63795150  0.11262013  0.59808811  1  0  -0.157955  0  3.715117  0  0  -0.176136  0  3.967541  0  0  -0.18212  0  3.988805  0  0  -0.092211  -0.172125  0  3.953097  0
C  C97  1  0.88737258  0.36203378  0.90190803  1  0  -0.157944  0  3.715044  0  0  -0.176155  0  3.967507  0  0  -0.182143  0  3.988772  0  0  -0.092246  -0.172157  0  3.953041  0
C  C98  1  0.36204406  0.88737304  0.40190921  1  0  -0.157946  0  3.715226  0  0  -0.176206  0  3.967628  0  0  -0.182202  0  3.988887  0  0  -0.092259  -0.172195  0  3.953206  0
C  C99  1  0.11261543  0.63795829  0.09808955  1  0  -0.157842  0  3.714894  0  0  -0.176014  0  3.967315  0  0  -0.182  0  3.988576  0  0  -0.092212  -0.172007  0  3.952878  0
C  C100  1  0.95102804  0.65035858  0.43953900  1  0  -0.179767  0  3.825241  0  0  -0.196352  0  4.076728  0  0  -0.201106  0  4.097556  0  0  -0.124505  -0.192625  0  4.061844  0
C  C101  1  0.34963700  0.04898268  0.06047087  1  0  -0.179815  0  3.825112  0  0  -0.196436  0  4.076633  0  0  -0.20119  0  4.09746  0  0  -0.124518  -0.192714  0  4.061772  0
C  C102  1  0.04897062  0.34963894  0.56045972  1  0  -0.179713  0  3.825167  0  0  -0.196308  0  4.076655  0  0  -0.201063  0  4.097482  0  0  -0.124515  -0.192586  0  4.061784  0
C  C103  1  0.65036793  0.95102361  0.93953235  1  0  -0.179815  0  3.82532  0  0  -0.196402  0  4.076785  0  0  -0.201156  0  4.097611  0  0  -0.124496  -0.192682  0  4.061931  0
C  C104  1  0.02019718  0.58546288  0.38734849  1  0  0.062942  0  3.641843  0  0  0.029675  0  3.908522  0  0  0.037126  0  3.922768  0  0  -0.017423  0.024014  0  3.899722  0
C  C105  1  0.41454117  0.97980487  0.11266096  1  0  0.063112  0  3.641534  0  0  0.029836  0  3.908198  0  0  0.037285  0  3.922441  0  0  -0.017394  0.024186  0  3.899385  0
C  C106  1  0.97980502  0.41454109  0.61265057  1  0  0.062947  0  3.641651  0  0  0.029657  0  3.908312  0  0  0.037106  0  3.922556  0  0  -0.017396  0.023998  0  3.899514  0
C  C107  1  0.58546863  0.02019506  0.88734335  1  0  0.06295  0  3.641847  0  0  0.029711  0  3.908509  0  0  0.037162  0  3.92275  0  0  -0.017443  0.024059  0  3.899709  0
C  C108  1  0.91187375  0.76856328  0.40489121  1  0  -0.182244  0  3.801293  0  0  -0.195776  0  4.051038  0  0  -0.200239  0  4.069968  0  0  -0.124099  -0.19233  0  4.037323  0
C  C109  1  0.23142757  0.08812519  0.09512348  1  0  -0.182013  0  3.801174  0  0  -0.195546  0  4.050887  0  0  -0.200008  0  4.06982  0  0  -0.123985  -0.192107  0  4.037181  0
C  C110  1  0.08811855  0.23142892  0.59510937  1  0  -0.182223  0  3.801196  0  0  -0.195747  0  4.050945  0  0  -0.200209  0  4.069873  0  0  -0.124063  -0.192302  0  4.037237  0
C  C111  1  0.76858286  0.91187704  0.90488490  1  0  -0.181983  0  3.800926  0  0  -0.195503  0  4.050669  0  0  -0.199965  0  4.069598  0  0  -0.123949  -0.192055  0  4.036951  0
C  C112  1  0.96020483  0.76678105  0.33400042  1  0  0.061204  0  3.642196  0  0  0.029319  0  3.905036  0  0  0.036909  0  3.918679  0  0  -0.017324  0.023031  0  3.897405  0
C  C113  1  0.23321342  0.03978356  0.16601240  1  0  0.061198  0  3.642273  0  0  0.029408  0  3.905115  0  0  0.036996  0  3.918764  0  0  -0.01729  0.023132  0  3.897454  0
C  C114  1  0.03978686  0.23321760  0.66600093  1  0  0.061167  0  3.642177  0  0  0.029275  0  3.904996  0  0  0.036862  0  3.918639  0  0  -0.017339  0.02299  0  3.897363  0
C  C115  1  0.76679711  0.96021959  0.83399204  1  0  0.060983  0  3.642088  0  0  0.029165  0  3.904932  0  0  0.036751  0  3.91858  0  0  -0.017441  0.022862  0  3.897315  0
N  N116  1  0.36926050  0.30480780  0.80990176  1  0  -0.427069  0  3.203214  0  0  -0.355457  0  3.473201  0  0  -0.373901  0  3.493007  0  0  -0.357448  -0.342412  0  3.459437  0
N  N117  1  0.69519260  0.63073535  0.69009533  1  0  -0.427212  0  3.203172  0  0  -0.355603  0  3.47319  0  0  -0.374047  0  3.492991  0  0  -0.357415  -0.34255  0  3.459414  0
N  N118  1  0.63073847  0.69519170  0.19009250  1  0  -0.427148  0  3.203096  0  0  -0.355542  0  3.473125  0  0  -0.373986  0  3.492928  0  0  -0.35744  -0.342502  0  3.459362  0
N  N119  1  0.30480895  0.36926985  0.30990773  1  0  -0.427313  0  3.203113  0  0  -0.355704  0  3.473154  0  0  -0.374146  0  3.492953  0  0  -0.357457  -0.342648  0  3.45938  0
N  N120  1  0.50573806  0.25194067  0.67796470  1  0  -0.368679  0  3.230024  0  0  -0.294974  0  3.494235  0  0  -0.314562  0  3.508025  0  0  -0.326765  -0.281619  0  3.483919  0
N  N121  1  0.74805963  0.49425547  0.82203321  1  0  -0.368593  0  3.229924  0  0  -0.294896  0  3.494123  0  0  -0.314475  0  3.507907  0  0  -0.326759  -0.28156  0  3.483813  0
N  N122  1  0.49426367  0.74805681  0.32203242  1  0  -0.368617  0  3.230013  0  0  -0.294922  0  3.494162  0  0  -0.314521  0  3.507962  0  0  -0.326779  -0.28156  0  3.483844  0
N  N123  1  0.25193694  0.50574641  0.17796786  1  0  -0.368573  0  3.229772  0  0  -0.294857  0  3.493987  0  0  -0.314434  0  3.507765  0  0  -0.326722  -0.281516  0  3.483681  0
N  N124  1  0.24945713  0.07213177  0.79949056  1  0  -0.449061  0  3.277984  0  0  -0.366276  0  3.5566  0  0  -0.388236  0  3.57644  0  0  -0.368515  -0.351038  0  3.541977  0
N  N125  1  0.92786997  0.75054222  0.70050917  1  0  -0.449053  0  3.277918  0  0  -0.366269  0  3.556553  0  0  -0.388229  0  3.576391  0  0  -0.368524  -0.351032  0  3.541939  0
N  N126  1  0.75054435  0.92786899  0.20050837  1  0  -0.44906  0  3.277911  0  0  -0.366282  0  3.556561  0  0  -0.388241  0  3.576402  0  0  -0.368535  -0.351054  0  3.541955  0
N  N127  1  0.07213344  0.24945756  0.29949206  1  0  -0.449056  0  3.277829  0  0  -0.366265  0  3.556445  0  0  -0.388224  0  3.576285  0  0  -0.368495  -0.351031  0  3.541841  0
O  O128  1  0.82471558  0.07155617  0.39114926  1  0  -0.620358  0  1.937051  0  0  -0.567335  0  2.170589  0  0  -0.59289  0  2.162578  0  0  -0.318389  -0.549313  0  2.174863  0
O  O129  1  0.92844288  0.17528782  0.10885334  1  0  -0.620284  0  1.937046  0  0  -0.567266  0  2.170581  0  0  -0.592822  0  2.16257  0  0  -0.31836  -0.549238  0  2.174844  0
O  O130  1  0.17528326  0.92844235  0.60884780  1  0  -0.620373  0  1.937035  0  0  -0.567359  0  2.170582  0  0  -0.592912  0  2.162568  0  0  -0.318392  -0.549345  0  2.174857  0
O  O131  1  0.07155884  0.82471400  0.89114564  1  0  -0.620288  0  1.937083  0  0  -0.567268  0  2.170601  0  0  -0.592823  0  2.162593  0  0  -0.318374  -0.549256  0  2.174877  0
O  O132  1  0.72881514  0.24296855  0.34493578  1  0  -0.673793  0  2.028584  0  0  -0.592694  0  2.269249  0  0  -0.622848  0  2.255674  0  0  -0.337485  -0.571333  0  2.276808  0
O  O133  1  0.75702143  0.27118126  0.15506237  1  0  -0.673725  0  2.028593  0  0  -0.592656  0  2.269276  0  0  -0.622804  0  2.255698  0  0  -0.337484  -0.57128  0  2.276804  0
O  O134  1  0.27117776  0.75702675  0.65506152  1  0  -0.673841  0  2.028678  0  0  -0.592756  0  2.269341  0  0  -0.622908  0  2.255764  0  0  -0.337521  -0.571398  0  2.276894  0
O  O135  1  0.24297982  0.72881844  0.84493709  1  0  -0.673752  0  2.028566  0  0  -0.592713  0  2.269257  0  0  -0.622861  0  2.25568  0  0  -0.337499  -0.571349  0  2.276803  0
O  O136  1  0.34383812  0.51103926  0.66064935  1  0  -0.834573  0  1.916506  0  0  -0.768998  0  2.121741  0  0  -0.789367  0  2.088812  0  0  -0.589466  -0.754616  0  2.14448  0
O  O137  1  0.48896810  0.65615938  0.83935557  1  0  -0.834564  0  1.91642  0  0  -0.768967  0  2.121692  0  0  -0.78934  0  2.088765  0  0  -0.589463  -0.754585  0  2.144413  0
O  O138  1  0.65616165  0.48896270  0.33935353  1  0  -0.834566  0  1.91653  0  0  -0.768972  0  2.121769  0  0  -0.789342  0  2.088842  0  0  -0.589461  -0.754589  0  2.144501  0
O  O139  1  0.51103604  0.34384362  0.16064580  1  0  -0.83463  0  1.916467  0  0  -0.769022  0  2.121722  0  0  -0.789395  0  2.088794  0  0  -0.589486  -0.754631  0  2.144439  0
O  O140  1  0.02676545  0.65535314  0.32224077  1  0  -0.175716  0  2.413812  0  0  -0.102935  0  2.642399  0  0  -0.119024  0  2.648231  0  0  -0.141432  -0.091957  0  2.638381  0
O  O141  1  0.34464721  0.97322480  0.17776689  1  0  -0.175788  0  2.413521  0  0  -0.103075  0  2.642153  0  0  -0.119157  0  2.64798  0  0  -0.141519  -0.092092  0  2.638123  0
O  O142  1  0.97323108  0.34464870  0.67775916  1  0  -0.175684  0  2.413512  0  0  -0.102949  0  2.642158  0  0  -0.119032  0  2.647985  0  0  -0.141418  -0.091972  0  2.638141  0
O  O143  1  0.65536247  0.02677937  0.82223642  1  0  -0.17565  0  2.413604  0  0  -0.102969  0  2.642251  0  0  -0.119053  0  2.648081  0  0  -0.141438  -0.091979  0  2.638223  0
