# generated using pymatgen
data_Zn2H14C21N6O5F6
_symmetry_space_group_name_H-M   'P 1'
_cell_length_a   7.09864313
_cell_length_b   10.09212535
_cell_length_c   17.64149739
_cell_angle_alpha   73.37080981
_cell_angle_beta   88.37366698
_cell_angle_gamma   84.31095075
_symmetry_Int_Tables_number   1
_chemical_formula_structural   Zn2H14C21N6O5F6
_chemical_formula_sum   'Zn4 H28 C42 N12 O10 F12'
_cell_volume   1205.02132790
_cell_formula_units_Z   2
loop_
 _symmetry_equiv_pos_site_id
 _symmetry_equiv_pos_as_xyz
  1  'x, y, z'
loop_
 _atom_site_type_symbol
 _atom_site_label
 _atom_site_symmetry_multiplicity
 _atom_site_fract_x
 _atom_site_fract_y
 _atom_site_fract_z
 _atom_site_occupancy
 _atom_site_hle17_bader_spin_density
 _atom_site_hle17_ddec_charge
 _atom_site_hle17_ddec_spin_density
 _atom_site_hle17_ddec_sum_bond_order
 _atom_site_hle17_magmom
 _atom_site_hse06_10hf_bader_spin_density
 _atom_site_hse06_10hf_ddec_charge
 _atom_site_hse06_10hf_ddec_spin_density
 _atom_site_hse06_10hf_ddec_sum_bond_order
 _atom_site_hse06_10hf_magmom
 _atom_site_hse06_bader_spin_density
 _atom_site_hse06_ddec_charge
 _atom_site_hse06_ddec_spin_density
 _atom_site_hse06_ddec_sum_bond_order
 _atom_site_hse06_magmom
 _atom_site_pbe_bader_spin_density
 _atom_site_pbe_cm5_charge
 _atom_site_pbe_ddec_charge
 _atom_site_pbe_ddec_spin_density
 _atom_site_pbe_ddec_sum_bond_order
 _atom_site_pbe_magmom
Zn  Zn0  1  0.17099100  0.33540247  0.95961019  1  0  0.926937  0  1.907033  0  0  0.716953  0  2.381194  0  0  0.763575  0  2.332751  0  0  0.707802  0.68327  0  2.415733  0
Zn  Zn1  1  0.67108250  0.29526590  0.04029332  1  0  0.925846  0  1.909029  0  0  0.716183  0  2.38269  0  0  0.762784  0  2.334323  0  0  0.707429  0.682518  0  2.417173  0
Zn  Zn2  1  0.28466787  0.74302928  0.16977266  1  0  1.046273  0  1.852315  0  0  0.858484  0  2.330951  0  0  0.902128  0  2.277028  0  0  0.706557  0.826308  0  2.368683  0
Zn  Zn3  1  0.78453658  0.91271897  0.83026950  1  0  1.046991  0  1.852575  0  0  0.859263  0  2.331545  0  0  0.902904  0  2.277565  0  0  0.707121  0.827095  0  2.369305  0
H  H4  1  0.08905724  0.01022602  0.03954339  1  0  0.095734  0  0.948282  0  0  0.106606  0  1.006466  0  0  0.108437  0  1.00482  0  0  0.137992  0.105267  0  1.007682  0
H  H5  1  0.58862565  0.04996527  0.96034884  1  0  0.09641  0  0.948035  0  0  0.107254  0  1.006044  0  0  0.109082  0  1.004463  0  0  0.138049  0.105865  0  1.007338  0
H  H6  1  0.42600185  0.67590629  0.41400467  1  0  0.102212  0  0.943379  0  0  0.110137  0  1.009075  0  0  0.113446  0  1.006461  0  0  0.101746  0.107681  0  1.01125  0
H  H7  1  0.92598408  0.08978065  0.58599788  1  0  0.101777  0  0.943455  0  0  0.109838  0  1.00897  0  0  0.113145  0  1.006352  0  0  0.101484  0.107388  0  1.011127  0
H  H8  1  0.56222983  0.22532297  0.71026156  1  0  0.097782  0  0.947175  0  0  0.108433  0  1.007812  0  0  0.111734  0  1.005588  0  0  0.104269  0.106001  0  1.009567  0
H  H9  1  0.06234672  0.93606214  0.28943409  1  0  0.098074  0  0.947393  0  0  0.108501  0  1.008348  0  0  0.111714  0  1.006213  0  0  0.104132  0.106137  0  1.010017  0
H  H10  1  0.12057340  0.55387344  0.43719621  1  0  0.104453  0  0.97498  0  0  0.108805  0  1.046112  0  0  0.112424  0  1.04338  0  0  0.093653  0.106188  0  1.04818  0
H  H11  1  0.62054511  0.99106625  0.56290556  1  0  0.104239  0  0.974674  0  0  0.108527  0  1.045888  0  0  0.112118  0  1.043156  0  0  0.09365  0.105929  0  1.047948  0
H  H12  1  0.61072962  0.96663487  0.15536220  1  0  0.109655  0  0.964083  0  0  0.119079  0  1.02314  0  0  0.121648  0  1.02016  0  0  0.13613  0.11725  0  1.02526  0
H  H13  1  0.11040012  0.12197644  0.84457835  1  0  0.108942  0  0.964788  0  0  0.118744  0  1.02338  0  0  0.121209  0  1.020547  0  0  0.136248  0.116968  0  1.025427  0
H  H14  1  0.77850692  0.33397546  0.60416126  1  0  0.104589  0  0.95542  0  0  0.113725  0  1.017038  0  0  0.116773  0  1.0158  0  0  0.098838  0.111552  0  1.01808  0
H  H15  1  0.27827640  0.93821430  0.39571785  1  0  0.103564  0  0.955193  0  0  0.11322  0  1.016295  0  0  0.116294  0  1.015044  0  0  0.098656  0.111002  0  1.017384  0
H  H16  1  0.81478604  0.66721681  0.71030290  1  0  0.09614  0  0.976138  0  0  0.102425  0  1.043879  0  0  0.105804  0  1.04184  0  0  0.093215  0.099975  0  1.045417  0
H  H17  1  0.31492162  0.37771492  0.28986350  1  0  0.095769  0  0.977373  0  0  0.101948  0  1.045221  0  0  0.105333  0  1.04319  0  0  0.093229  0.099509  0  1.046726  0
H  H18  1  0.58771246  0.56171098  0.81209486  1  0  0.094549  0  0.971393  0  0  0.102314  0  1.036537  0  0  0.105442  0  1.034804  0  0  0.099116  0.099992  0  1.03792  0
H  H19  1  0.08796439  0.37438622  0.18796978  1  0  0.094084  0  0.969734  0  0  0.101355  0  1.035581  0  0  0.104494  0  1.033817  0  0  0.098582  0.099031  0  1.036965  0
H  H20  1  0.58163567  0.63043549  0.54377633  1  0  0.103031  0  0.95426  0  0  0.11199  0  1.015685  0  0  0.114941  0  1.014547  0  0  0.098937  0.109931  0  1.016515  0
H  H21  1  0.08154702  0.17379314  0.45620262  1  0  0.102837  0  0.954041  0  0  0.111369  0  1.015856  0  0  0.114303  0  1.014765  0  0  0.098523  0.109311  0  1.016653  0
H  H22  1  0.89125830  0.73522039  0.19218051  1  0  0.439939  0  0.86078  0  0  0.40787  0  0.924916  0  0  0.41937  0  0.908303  0  0  0.288408  0.399572  0  0.936907  0
H  H23  1  0.39113705  0.92706940  0.80783474  1  0  0.439044  0  0.862044  0  0  0.407529  0  0.925303  0  0  0.419004  0  0.908739  0  0  0.288573  0.399238  0  0.937281  0
H  H24  1  0.96212340  0.88894267  0.17360726  1  0  0.433234  0  0.875269  0  0  0.399511  0  0.943872  0  0  0.411115  0  0.927096  0  0  0.288986  0.391239  0  0.955823  0
H  H25  1  0.46191116  0.06228678  0.82632147  1  0  0.433402  0  0.874945  0  0  0.399932  0  0.943059  0  0  0.411527  0  0.926282  0  0  0.289105  0.391678  0  0.954985  0
H  H26  1  0.10897086  0.66082509  0.85519130  1  0  0.111019  0  0.931944  0  0  0.120091  0  0.992016  0  0  0.122914  0  0.988656  0  0  0.139149  0.118055  0  0.994551  0
H  H27  1  0.60905942  0.51613588  0.14474322  1  0  0.110619  0  0.931774  0  0  0.119337  0  0.992319  0  0  0.122244  0  0.988842  0  0  0.139018  0.117241  0  0.994925  0
H  H28  1  0.96437897  0.59789256  0.30938234  1  0  0.092672  0  0.959334  0  0  0.10515  0  1.01698  0  0  0.108143  0  1.015177  0  0  0.103156  0.102966  0  1.018337  0
H  H29  1  0.46432609  0.90728707  0.69072373  1  0  0.093001  0  0.958305  0  0  0.105456  0  1.016202  0  0  0.108417  0  1.014396  0  0  0.103022  0.103319  0  1.017518  0
H  H30  1  0.55525959  0.65597252  0.94657970  1  0  0.098097  0  0.923666  0  0  0.111223  0  0.977581  0  0  0.113073  0  0.975911  0  0  0.139031  0.109819  0  0.978974  0
H  H31  1  0.05503492  0.60240541  0.05365526  1  0  0.09763  0  0.923116  0  0  0.111044  0  0.976754  0  0  0.112779  0  0.975237  0  0  0.138747  0.10972  0  0.978046  0
C  C32  1  0.22353912  0.03130735  0.05868882  1  0  0.217178  0  3.71664  0  0  0.159623  0  3.982359  0  0  0.173137  0  3.997512  0  0  0.142574  0.150814  0  3.971787  0
C  C33  1  0.72316275  0.09008588  0.94122744  1  0  0.217264  0  3.717121  0  0  0.159909  0  3.982648  0  0  0.173391  0  3.997844  0  0  0.14378  0.151123  0  3.97202  0
C  C34  1  0.86190101  0.58719749  0.50056339  1  0  0.068802  0  3.721363  0  0  0.083846  0  3.963079  0  0  0.084233  0  3.987309  0  0  -0.017133  0.083696  0  3.946649  0
C  C35  1  0.36184565  0.08751469  0.49947987  1  0  0.071463  0  3.716977  0  0  0.086239  0  3.958767  0  0  0.086653  0  3.982963  0  0  -0.016867  0.08607  0  3.94235  0
C  C36  1  0.42303518  0.32597813  0.83128418  1  0  0.664047  0  3.891138  0  0  0.609897  0  4.189593  0  0  0.644951  0  4.180546  0  0  0.212114  0.586087  0  4.194978  0
C  C37  1  0.92345253  0.15772147  0.16852209  1  0  0.659639  0  3.890874  0  0  0.604169  0  4.191152  0  0  0.639251  0  4.182155  0  0  0.208377  0.580363  0  4.196477  0
C  C38  1  0.81515303  0.50795393  0.64931743  1  0  0.076221  0  3.723173  0  0  0.093833  0  3.95809  0  0  0.094786  0  3.982108  0  0  -0.012974  0.093289  0  3.941753  0
C  C39  1  0.31512883  0.15736536  0.35072883  1  0  0.074522  0  3.727806  0  0  0.091244  0  3.964326  0  0  0.092129  0  3.988461  0  0  -0.014693  0.09075  0  3.947891  0
C  C40  1  0.13548735  0.46443200  0.59705286  1  0  0.771778  0  3.610928  0  0  0.697314  0  3.955555  0  0  0.728043  0  3.930652  0  0  0.302619  0.675297  0  3.973796  0
C  C41  1  0.63540115  0.06104229  0.40298171  1  0  0.769048  0  3.611621  0  0  0.696893  0  3.952009  0  0  0.727607  0  3.927114  0  0  0.303962  0.674898  0  3.970231  0
C  C42  1  0.57806662  0.64827151  0.41977184  1  0  -0.043116  0  3.71488  0  0  -0.076638  0  3.984556  0  0  -0.074369  0  4.000885  0  0  -0.086949  -0.078423  0  3.974383  0
C  C43  1  0.07806947  0.06790361  0.58027950  1  0  -0.044456  0  3.71586  0  0  -0.077712  0  3.984741  0  0  -0.075457  0  4.001105  0  0  -0.087445  -0.079472  0  3.974536  0
C  C44  1  0.56252391  0.38629665  0.76897342  1  0  -0.064615  0  3.757423  0  0  -0.047136  0  3.997547  0  0  -0.054583  0  4.019584  0  0  -0.022052  -0.042371  0  3.982748  0
C  C45  1  0.06282507  0.15578072  0.23086676  1  0  -0.065405  0  3.757891  0  0  -0.047331  0  3.997557  0  0  -0.054811  0  4.019614  0  0  -0.022403  -0.042573  0  3.982771  0
C  C46  1  0.00961592  0.71214707  0.58215160  1  0  0.779633  0  3.598677  0  0  0.701853  0  3.948448  0  0  0.732282  0  3.924683  0  0  0.304282  0.680356  0  3.965271  0
C  C47  1  0.50992120  0.29397966  0.41792925  1  0  0.779623  0  3.601171  0  0  0.699059  0  3.955365  0  0  0.729369  0  3.931864  0  0  0.303521  0.677569  0  3.972163  0
C  C48  1  0.61901801  0.32166802  0.71044887  1  0  -0.051239  0  3.724711  0  0  -0.078126  0  3.980523  0  0  -0.077013  0  3.999248  0  0  -0.084307  -0.078673  0  3.967801  0
C  C49  1  0.11915277  0.03253072  0.28936305  1  0  -0.050517  0  3.724535  0  0  -0.077253  0  3.980062  0  0  -0.076049  0  3.998829  0  0  -0.083692  -0.077836  0  3.967286  0
C  C50  1  0.96819894  0.57971959  0.43348848  1  0  -0.111121  0  3.724405  0  0  -0.138911  0  3.984674  0  0  -0.141398  0  4.004654  0  0  -0.098655  -0.137225  0  3.971142  0
C  C51  1  0.46815088  0.01316830  0.56660521  1  0  -0.112778  0  3.723802  0  0  -0.14017  0  3.984366  0  0  -0.142629  0  4.00428  0  0  -0.099022  -0.13851  0  3.970889  0
C  C52  1  0.48713765  0.00861799  0.11860699  1  0  0.215954  0  3.685832  0  0  0.157717  0  3.956128  0  0  0.171056  0  3.968988  0  0  0.143845  0.148971  0  3.946865  0
C  C53  1  0.98681081  0.12722568  0.88132181  1  0  0.218994  0  3.68487  0  0  0.160709  0  3.954906  0  0  0.174123  0  3.967821  0  0  0.146288  0.151917  0  3.945608  0
C  C54  1  0.95245281  0.56760732  0.58179527  1  0  -0.272482  0  3.641908  0  0  -0.281789  0  3.868965  0  0  -0.288859  0  3.880962  0  0  -0.011897  -0.276805  0  3.860959  0
C  C55  1  0.45248515  0.14916003  0.41825839  1  0  -0.27223  0  3.642406  0  0  -0.282083  0  3.872193  0  0  -0.289109  0  3.884258  0  0  -0.011435  -0.277114  0  3.864142  0
C  C56  1  0.74178220  0.38286970  0.65082538  1  0  -0.108911  0  3.715722  0  0  -0.134274  0  3.972328  0  0  -0.13751  0  3.992568  0  0  -0.093973  -0.13213  0  3.958633  0
C  C57  1  0.24169948  0.03389431  0.34910318  1  0  -0.10829  0  3.715236  0  0  -0.133699  0  3.971875  0  0  -0.136949  0  3.992084  0  0  -0.093165  -0.131531  0  3.958204  0
C  C58  1  0.76135014  0.57077371  0.70880356  1  0  -0.118968  0  3.733022  0  0  -0.144959  0  3.987917  0  0  -0.148182  0  4.008202  0  0  -0.100161  -0.142784  0  3.974227  0
C  C59  1  0.26146671  0.27981641  0.29127947  1  0  -0.117474  0  3.735181  0  0  -0.143353  0  3.990634  0  0  -0.146564  0  4.010955  0  0  -0.099962  -0.141192  0  3.976927  0
C  C60  1  0.63412418  0.51116001  0.76712171  1  0  -0.042221  0  3.719125  0  0  -0.066276  0  3.968837  0  0  -0.065457  0  3.988694  0  0  -0.085507  -0.066716  0  3.955423  0
C  C61  1  0.13428886  0.27874919  0.23289053  1  0  -0.040636  0  3.715856  0  0  -0.064328  0  3.9654  0  0  -0.063481  0  3.985243  0  0  -0.084224  -0.064791  0  3.952015  0
C  C62  1  0.66614977  0.62226653  0.49263642  1  0  -0.093267  0  3.709391  0  0  -0.123644  0  3.975935  0  0  -0.125567  0  3.994784  0  0  -0.094899  -0.122371  0  3.963481  0
C  C63  1  0.16606470  0.11457775  0.50737852  1  0  -0.092674  0  3.707012  0  0  -0.12216  0  3.972895  0  0  -0.12404  0  3.991646  0  0  -0.093744  -0.1209  0  3.960477  0
C  C64  1  0.68376358  0.64102336  0.35270496  1  0  -0.073815  0  3.767673  0  0  -0.055402  0  4.00789  0  0  -0.06313  0  4.03022  0  0  -0.024242  -0.050379  0  3.993186  0
C  C65  1  0.18371002  0.99368622  0.64738227  1  0  -0.072118  0  3.765741  0  0  -0.053711  0  4.006023  0  0  -0.061435  0  4.028354  0  0  -0.023153  -0.048702  0  3.99133  0
C  C66  1  0.98127089  0.62627054  0.88689424  1  0  0.20767  0  3.695977  0  0  0.148838  0  3.965079  0  0  0.161629  0  3.979149  0  0  0.14491  0.14048  0  3.954875  0
C  C67  1  0.48127398  0.51329654  0.11309728  1  0  0.210892  0  3.693201  0  0  0.152518  0  3.962201  0  0  0.165265  0  3.976225  0  0  0.146699  0.1442  0  3.952012  0
C  C68  1  0.87965678  0.60581294  0.36054395  1  0  -0.050974  0  3.728135  0  0  -0.074183  0  3.975194  0  0  -0.074278  0  3.995888  0  0  -0.084047  -0.073916  0  3.961182  0
C  C69  1  0.37961358  0.96631140  0.63955045  1  0  -0.051326  0  3.726691  0  0  -0.074565  0  3.973892  0  0  -0.074608  0  3.994557  0  0  -0.084271  -0.074375  0  3.959932  0
C  C70  1  0.70022206  0.62379783  0.93396885  1  0  0.199057  0  3.720152  0  0  0.144824  0  3.992312  0  0  0.15671  0  4.006991  0  0  0.139966  0.137007  0  3.981873  0
C  C71  1  0.20008299  0.55773309  0.06616584  1  0  0.201033  0  3.719592  0  0  0.14664  0  3.99169  0  0  0.158607  0  4.006372  0  0  0.140871  0.138769  0  3.981241  0
C  C72  1  0.58779198  0.66980721  0.27444639  1  0  0.655467  0  3.886123  0  0  0.604107  0  4.180219  0  0  0.638995  0  4.172287  0  0  0.210337  0.58044  0  4.185012  0
C  C73  1  0.08767180  0.94418463  0.72561358  1  0  0.654746  0  3.886571  0  0  0.603026  0  4.181373  0  0  0.637911  0  4.173427  0  0  0.210225  0.57938  0  4.186163  0
N  N74  1  0.29262945  0.15442431  0.03564632  1  0  -0.281653  0  3.22882  0  0  -0.21001  0  3.525714  0  0  -0.227506  0  3.541049  0  0  -0.252875  -0.197882  0  3.515135  0
N  N75  1  0.79237597  0.19011769  0.96427690  1  0  -0.281777  0  3.229448  0  0  -0.210178  0  3.526363  0  0  -0.227693  0  3.541739  0  0  -0.252817  -0.198046  0  3.515748  0
N  N76  1  0.34055707  0.93663941  0.11082509  1  0  -0.451271  0  3.277693  0  0  -0.363643  0  3.581941  0  0  -0.38762  0  3.591928  0  0  -0.365883  -0.346572  0  3.574639  0
N  N77  1  0.84014883  0.04753919  0.88909559  1  0  -0.451438  0  3.279716  0  0  -0.363854  0  3.584064  0  0  -0.387825  0  3.594011  0  0  -0.366925  -0.346795  0  3.576774  0
N  N78  1  0.96302227  0.49799944  0.93207959  1  0  -0.263943  0  3.259385  0  0  -0.190082  0  3.548626  0  0  -0.207006  0  3.565024  0  0  -0.248608  -0.178061  0  3.537017  0
N  N79  1  0.46298558  0.43022936  0.06790782  1  0  -0.266759  0  3.25844  0  0  -0.193578  0  3.548415  0  0  -0.210533  0  3.564838  0  0  -0.250252  -0.181538  0  3.536792  0
N  N80  1  0.78316182  0.49528212  0.96233797  1  0  -0.262333  0  3.109517  0  0  -0.211432  0  3.397686  0  0  -0.225183  0  3.414204  0  0  -0.231536  -0.201672  0  3.386133  0
N  N81  1  0.28304209  0.45768260  0.03772984  1  0  -0.263783  0  3.10914  0  0  -0.212856  0  3.397422  0  0  -0.226557  0  3.413895  0  0  -0.231488  -0.203122  0  3.385886  0
N  N82  1  0.81887910  0.70969429  0.88636469  1  0  -0.455567  0  3.287206  0  0  -0.368507  0  3.595837  0  0  -0.391819  0  3.605074  0  0  -0.365127  -0.351473  0  3.588427  0
N  N83  1  0.31883280  0.59608489  0.11370741  1  0  -0.456153  0  3.287737  0  0  -0.368868  0  3.596152  0  0  -0.392207  0  3.605396  0  0  -0.365048  -0.351811  0  3.588723  0
N  N84  1  0.46331520  0.13967926  0.07386146  1  0  -0.266056  0  3.134763  0  0  -0.205502  0  3.421035  0  0  -0.220642  0  3.436701  0  0  -0.237494  -0.194889  0  3.410327  0
N  N85  1  0.96310123  0.21349084  0.92607967  1  0  -0.269095  0  3.134943  0  0  -0.208928  0  3.422041  0  0  -0.224068  0  3.437657  0  0  -0.240315  -0.198315  0  3.41137  0
O  O86  1  0.37501922  0.20544629  0.83961462  1  0  -0.645496  0  2.02932  0  0  -0.590842  0  2.26094  0  0  -0.615888  0  2.250411  0  0  -0.316047  -0.573343  0  2.267673  0
O  O87  1  0.87542959  0.04546025  0.16026420  1  0  -0.642758  0  2.029093  0  0  -0.587307  0  2.26124  0  0  -0.612392  0  2.250799  0  0  -0.314027  -0.569784  0  2.267906  0
O  O88  1  0.35750547  0.40382232  0.87436411  1  0  -0.62656  0  2.048307  0  0  -0.554862  0  2.325037  0  0  -0.582542  0  2.309509  0  0  -0.329062  -0.535677  0  2.335599  0
O  O89  1  0.85790220  0.27861364  0.12539742  1  0  -0.625195  0  2.047289  0  0  -0.552971  0  2.324162  0  0  -0.580661  0  2.308686  0  0  -0.327602  -0.533795  0  2.334667  0
O  O90  1  0.00378140  0.79008002  0.17388174  1  0  -0.873169  0  1.899057  0  0  -0.800066  0  2.124444  0  0  -0.822343  0  2.084251  0  0  -0.590171  -0.784582  0  2.152891  0
O  O91  1  0.50365690  0.96367858  0.82609011  1  0  -0.872714  0  1.900679  0  0  -0.799995  0  2.125764  0  0  -0.822248  0  2.085583  0  0  -0.590652  -0.784493  0  2.154133  0
O  O92  1  0.40459178  0.68340274  0.27515202  1  0  -0.637995  0  2.010792  0  0  -0.566156  0  2.281877  0  0  -0.594433  0  2.26568  0  0  -0.331105  -0.546596  0  2.292425  0
O  O93  1  0.90447688  0.95855456  0.72490462  1  0  -0.637847  0  2.011509  0  0  -0.565963  0  2.282732  0  0  -0.594265  0  2.266589  0  0  -0.330826  -0.546355  0  2.293141  0
O  O94  1  0.68312683  0.68021211  0.21154116  1  0  -0.641885  0  1.954971  0  0  -0.585318  0  2.172642  0  0  -0.60965  0  2.160374  0  0  -0.318475  -0.568643  0  2.181089  0
O  O95  1  0.18302106  0.89157859  0.78850101  1  0  -0.641717  0  1.955212  0  0  -0.585394  0  2.173072  0  0  -0.609691  0  2.160778  0  0  -0.319106  -0.568742  0  2.181528  0
F  F96  1  0.11552782  0.77045532  0.51789791  1  0  -0.250288  0  1.175191  0  0  -0.207527  0  1.337875  0  0  -0.218221  0  1.324362  0  0  -0.09421  -0.199895  0  1.347334  0
F  F97  1  0.61621183  0.28784405  0.48209985  1  0  -0.25113  0  1.176488  0  0  -0.207282  0  1.339705  0  0  -0.21794  0  1.326233  0  0  -0.094253  -0.199657  0  1.349167  0
F  F98  1  0.28986063  0.51903373  0.55677877  1  0  -0.260703  0  1.212258  0  0  -0.214306  0  1.383686  0  0  -0.224506  0  1.368002  0  0  -0.08988  -0.206865  0  1.394619  0
F  F99  1  0.79000361  0.07543163  0.44310315  1  0  -0.259197  0  1.211607  0  0  -0.214016  0  1.38239  0  0  -0.224208  0  1.366699  0  0  -0.090194  -0.206586  0  1.39333  0
F  F100  1  0.85377531  0.80295112  0.58053899  1  0  -0.248939  0  1.2122  0  0  -0.200534  0  1.380609  0  0  -0.211752  0  1.367158  0  0  -0.08143  -0.192395  0  1.390042  0
F  F101  1  0.35423571  0.38320852  0.41972591  1  0  -0.249072  0  1.213458  0  0  -0.199562  0  1.382503  0  0  -0.21076  0  1.369115  0  0  -0.081181  -0.191419  0  1.391929  0
F  F102  1  0.11124750  0.34859606  0.57544878  1  0  -0.233302  0  1.219104  0  0  -0.198831  0  1.402321  0  0  -0.210542  0  1.389517  0  0  -0.082627  -0.190582  0  1.411614  0
F  F103  1  0.61095201  0.92363166  0.42477781  1  0  -0.233528  0  1.219496  0  0  -0.198925  0  1.401679  0  0  -0.21064  0  1.388878  0  0  -0.083608  -0.190673  0  1.41096  0
F  F104  1  0.18259358  0.42256847  0.67502615  1  0  -0.238893  0  1.178517  0  0  -0.205596  0  1.348362  0  0  -0.215942  0  1.334556  0  0  -0.09491  -0.198161  0  1.358084  0
F  F105  1  0.68226309  0.09687244  0.32497129  1  0  -0.238317  0  1.179139  0  0  -0.20499  0  1.347779  0  0  -0.215329  0  1.33399  0  0  -0.094808  -0.197564  0  1.357494  0
F  F106  1  0.11289372  0.70523339  0.64743252  1  0  -0.242383  0  1.166743  0  0  -0.209882  0  1.339808  0  0  -0.220589  0  1.325915  0  0  -0.091805  -0.202255  0  1.349536  0
F  F107  1  0.61295031  0.35245483  0.35257475  1  0  -0.242025  0  1.166725  0  0  -0.209085  0  1.340698  0  0  -0.219762  0  1.32685  0  0  -0.091706  -0.201461  0  1.350427  0
