# generated using pymatgen
data_AgH8C8(NO)3
_symmetry_space_group_name_H-M   'P 1'
_cell_length_a   6.84252530
_cell_length_b   7.97312313
_cell_length_c   9.32658841
_cell_angle_alpha   70.89363447
_cell_angle_beta   74.19591095
_cell_angle_gamma   75.21177039
_symmetry_Int_Tables_number   1
_chemical_formula_structural   AgH8C8(NO)3
_chemical_formula_sum   'Ag2 H16 C16 N6 O6'
_cell_volume   454.83390853
_cell_formula_units_Z   2
loop_
 _symmetry_equiv_pos_site_id
 _symmetry_equiv_pos_as_xyz
  1  'x, y, z'
loop_
 _atom_site_type_symbol
 _atom_site_label
 _atom_site_symmetry_multiplicity
 _atom_site_fract_x
 _atom_site_fract_y
 _atom_site_fract_z
 _atom_site_occupancy
 _atom_site_pbe_bader_spin_density
 _atom_site_pbe_cm5_charge
 _atom_site_pbe_ddec_charge
 _atom_site_pbe_ddec_spin_density
 _atom_site_pbe_ddec_sum_bond_order
 _atom_site_pbe_magmom
Ag  Ag0  1  0.50073242  0.35047330  0.69754935  1  0  0.462027  0.373156  0  1.841994  0
Ag  Ag1  1  0.49926984  0.64952895  0.30244944  1  0  0.462022  0.373159  0  1.841978  0
H  H2  1  0.40641108  0.17880705  0.99209416  1  0  0.275799  0.36185  0  0.996693  0
H  H3  1  0.59358815  0.82119516  0.00790417  1  0  0.275859  0.36195  0  0.996557  0
H  H4  1  0.31524374  0.06601611  0.92481840  1  0  0.28092  0.366339  0  0.984106  0
H  H5  1  0.68475578  0.93398475  0.07518026  1  0  0.280913  0.366326  0  0.984118  0
H  H6  1  0.65758647  0.90214617  0.72805961  1  0  0.107371  0.126956  0  1.032513  0
H  H7  1  0.34241517  0.09785202  0.27194152  1  0  0.107362  0.126904  0  1.032604  0
H  H8  1  0.81992549  0.62067743  0.65162268  1  0  0.098524  0.107542  0  1.046245  0
H  H9  1  0.18007433  0.37932209  0.34837737  1  0  0.098504  0.107485  0  1.046293  0
H  H10  1  0.98330233  0.63049563  0.37468767  1  0  0.101449  0.100419  0  1.032239  0
H  H11  1  0.01669872  0.36950526  0.62531175  1  0  0.101458  0.100434  0  1.03221  0
H  H12  1  0.98462902  0.91951314  0.16878253  1  0  0.109631  0.12344  0  1.001691  0
H  H13  1  0.01537051  0.08048773  0.83121827  1  0  0.109627  0.123435  0  1.001688  0
H  H14  1  0.98956822  0.29048745  0.04156601  1  0  0.119722  0.143579  0  1.009037  0
H  H15  1  0.01043161  0.70951208  0.95843618  1  0  0.119722  0.143581  0  1.009048  0
H  H16  1  0.80213155  0.48440505  0.07251976  1  0  0.126138  0.138222  0  0.997087  0
H  H17  1  0.19786676  0.51559445  0.92748060  1  0  0.126144  0.138214  0  0.997101  0
C  C18  1  0.72971572  0.06982526  0.49058285  1  0  0.097067  0.114551  0  4.073798  0
C  C19  1  0.27028533  0.93017563  0.50941764  1  0  0.097059  0.114521  0  4.073739  0
C  C20  1  0.73087415  0.90614738  0.60813158  1  0  -0.087543  -0.133218  0  3.940816  0
C  C21  1  0.26912446  0.09385078  0.39186910  1  0  -0.087554  -0.133182  0  3.940883  0
C  C22  1  0.82141774  0.75005879  0.56304448  1  0  -0.096563  -0.094651  0  3.988622  0
C  C23  1  0.17858179  0.24994208  0.43695525  1  0  -0.096525  -0.094536  0  3.988548  0
C  C24  1  0.91216375  0.75586458  0.40579287  1  0  -0.087764  -0.077476  0  4.012974  0
C  C25  1  0.08784003  0.24413767  0.59420561  1  0  -0.087785  -0.077552  0  4.012954  0
C  C26  1  0.91346464  0.91676415  0.28871249  1  0  -0.087352  -0.145584  0  3.978676  0
C  C27  1  0.08653460  0.08323808  0.71128798  1  0  -0.087358  -0.145578  0  3.978687  0
C  C28  1  0.81729739  0.07439858  0.33383531  1  0  0.11017  0.072763  0  4.011054  0
C  C29  1  0.18270092  0.92560093  0.66616505  1  0  0.110189  0.072802  0  4.01097  0
C  C30  1  0.82599724  0.33862151  0.08940113  1  0  -0.053527  -0.259807  0  3.839676  0
C  C31  1  0.17400137  0.66137664  0.91059955  1  0  -0.053528  -0.25983  0  3.839762  0
C  C32  1  0.69190836  0.29938442  0.00003865  1  0  0.210196  0.614068  0  4.183464  0
C  C33  1  0.30809236  0.70061104  0.99996237  1  0  0.210172  0.614104  0  4.183448  0
N  N34  1  0.78201053  0.25332348  0.25485673  1  0  -0.117549  0.170979  0  3.685166  0
N  N35  1  0.21798871  0.74667874  0.74514374  1  0  -0.117564  0.170985  0  3.685218  0
N  N36  1  0.68033381  0.35258369  0.35472827  1  0  -0.099556  -0.064221  0  3.374464  0
N  N37  1  0.31966602  0.64741583  0.64527285  1  0  -0.099563  -0.064217  0  3.374488  0
N  N38  1  0.64961635  0.24425440  0.49643900  1  0  -0.227586  -0.180211  0  3.58917  0
N  N39  1  0.35038499  0.75574514  0.50356181  1  0  -0.227562  -0.180197  0  3.589148  0
O  O40  1  0.69160042  0.40077801  0.86432336  1  0  -0.323509  -0.529829  0  2.229414  0
O  O41  1  0.30840636  0.59921751  0.13567535  1  0  -0.323512  -0.529827  0  2.22948  0
O  O42  1  0.29664371  0.18937314  0.93440216  1  0  -0.597487  -0.745311  0  2.117674  0
O  O43  1  0.70335551  0.81062907  0.06559511  1  0  -0.597529  -0.745372  0  2.117608  0
O  O44  1  0.59827058  0.16621012  0.06851753  1  0  -0.320575  -0.583574  0  2.287289  0
O  O45  1  0.40172411  0.83379208  0.93148601  1  0  -0.32055  -0.583591  0  2.287168  0
