# generated using pymatgen
data_Cu2H8C12S3N4
_symmetry_space_group_name_H-M   'P 1'
_cell_length_a   5.67054959
_cell_length_b   8.95048868
_cell_length_c   14.60516564
_cell_angle_alpha   106.44405331
_cell_angle_beta   90.00029053
_cell_angle_gamma   89.99961377
_symmetry_Int_Tables_number   1
_chemical_formula_structural   Cu2H8C12S3N4
_chemical_formula_sum   'Cu4 H16 C24 S6 N8'
_cell_volume   710.95275396
_cell_formula_units_Z   2
loop_
 _symmetry_equiv_pos_site_id
 _symmetry_equiv_pos_as_xyz
  1  'x, y, z'
loop_
 _atom_site_type_symbol
 _atom_site_label
 _atom_site_symmetry_multiplicity
 _atom_site_fract_x
 _atom_site_fract_y
 _atom_site_fract_z
 _atom_site_occupancy
 _atom_site_hle17_bader_spin_density
 _atom_site_hle17_ddec_charge
 _atom_site_hle17_ddec_spin_density
 _atom_site_hle17_ddec_sum_bond_order
 _atom_site_hle17_magmom
 _atom_site_hse06_10hf_bader_spin_density
 _atom_site_hse06_10hf_ddec_charge
 _atom_site_hse06_10hf_ddec_spin_density
 _atom_site_hse06_10hf_ddec_sum_bond_order
 _atom_site_hse06_10hf_magmom
 _atom_site_hse06_bader_spin_density
 _atom_site_hse06_ddec_charge
 _atom_site_hse06_ddec_spin_density
 _atom_site_hse06_ddec_sum_bond_order
 _atom_site_hse06_magmom
 _atom_site_pbe_bader_spin_density
 _atom_site_pbe_cm5_charge
 _atom_site_pbe_ddec_charge
 _atom_site_pbe_ddec_spin_density
 _atom_site_pbe_ddec_sum_bond_order
 _atom_site_pbe_magmom
Cu  Cu0  1  0.60552318  0.37253453  0.51434853  1  0  0.39251  0  2.204175  0  0  0.305338  0  2.706865  0  0  0.300117  0  2.664752  0  0  0.476411  0.312223  0  2.732742  0
Cu  Cu1  1  0.60554658  0.62747092  0.98565006  1  0  0.392625  0  2.204178  0  0  0.305537  0  2.706928  0  0  0.30033  0  2.664831  0  0  0.476513  0.312395  0  2.732779  0
Cu  Cu2  1  0.39444646  0.62747254  0.48564387  1  0  0.392727  0  2.204089  0  0  0.305561  0  2.706776  0  0  0.300337  0  2.664653  0  0  0.476492  0.31245  0  2.732643  0
Cu  Cu3  1  0.39446890  0.37253065  0.01435445  1  0  0.392476  0  2.204051  0  0  0.305322  0  2.706782  0  0  0.300072  0  2.664662  0  0  0.476377  0.312176  0  2.732645  0
H  H4  1  0.17767760  0.44343356  0.63461514  1  0  0.079986  0  0.945585  0  0  0.089412  0  1.009472  0  0  0.091541  0  1.007471  0  0  0.111564  0.087686  0  1.011191  0
H  H5  1  0.17770261  0.55655762  0.86538278  1  0  0.079946  0  0.945537  0  0  0.089406  0  1.009383  0  0  0.091537  0  1.007384  0  0  0.111578  0.087678  0  1.011105  0
H  H6  1  0.82227616  0.55655370  0.36537331  1  0  0.079959  0  0.945464  0  0  0.089373  0  1.009393  0  0  0.091498  0  1.007391  0  0  0.111574  0.087644  0  1.011114  0
H  H7  1  0.82231816  0.44343336  0.13461587  1  0  0.07991  0  0.945547  0  0  0.089331  0  1.009468  0  0  0.091459  0  1.007464  0  0  0.111542  0.087603  0  1.011187  0
H  H8  1  0.92265618  0.30508427  0.72276401  1  0  0.110197  0  0.973526  0  0  0.117419  0  1.040639  0  0  0.12023  0  1.040823  0  0  0.098242  0.11534  0  1.040735  0
H  H9  1  0.92266427  0.69491019  0.77723697  1  0  0.110141  0  0.973531  0  0  0.117357  0  1.040658  0  0  0.12017  0  1.040843  0  0  0.098253  0.115306  0  1.040727  0
H  H10  1  0.07732756  0.69490439  0.27723426  1  0  0.110217  0  0.973567  0  0  0.117434  0  1.040639  0  0  0.120245  0  1.040825  0  0  0.098264  0.115381  0  1.040711  0
H  H11  1  0.07735298  0.30508441  0.22276707  1  0  0.110126  0  0.973486  0  0  0.11739  0  1.040573  0  0  0.120203  0  1.040752  0  0  0.098247  0.115312  0  1.040664  0
H  H12  1  0.43491212  0.92941497  0.65523052  1  0  0.105844  0  0.993852  0  0  0.109587  0  1.068768  0  0  0.113091  0  1.067514  0  0  0.094892  0.107016  0  1.069896  0
H  H13  1  0.43490677  0.07058854  0.84477007  1  0  0.105847  0  0.993856  0  0  0.109613  0  1.068741  0  0  0.113121  0  1.067481  0  0  0.094894  0.107038  0  1.069874  0
H  H14  1  0.56510513  0.07059586  0.34477277  1  0  0.105865  0  0.993849  0  0  0.109623  0  1.068743  0  0  0.113127  0  1.067489  0  0  0.094893  0.107048  0  1.069876  0
H  H15  1  0.56510872  0.92940716  0.15523142  1  0  0.105818  0  0.993874  0  0  0.10961  0  1.068738  0  0  0.113114  0  1.067484  0  0  0.094904  0.107037  0  1.069868  0
H  H16  1  0.67010477  0.08608053  0.57349955  1  0  0.080574  0  0.929123  0  0  0.091726  0  0.98852  0  0  0.094252  0  0.9864  0  0  0.113852  0.089812  0  0.990234  0
H  H17  1  0.67011826  0.91392016  0.92649910  1  0  0.080524  0  0.929237  0  0  0.091701  0  0.988605  0  0  0.094226  0  0.986485  0  0  0.113864  0.089784  0  0.990321  0
H  H18  1  0.32988250  0.91392891  0.42649461  1  0  0.080513  0  0.92925  0  0  0.091671  0  0.988643  0  0  0.094197  0  0.986521  0  0  0.113865  0.089755  0  0.990358  0
H  H19  1  0.32990251  0.08607434  0.07350082  1  0  0.080619  0  0.929103  0  0  0.09167  0  0.988607  0  0  0.094196  0  0.986485  0  0  0.113846  0.089755  0  0.99032  0
C  C20  1  0.22905794  0.32968271  0.64145481  1  0  0.140721  0  3.686398  0  0  0.114014  0  3.932323  0  0  0.121418  0  3.948429  0  0  0.040953  0.108931  0  3.922111  0
C  C21  1  0.22907951  0.67031882  0.85854358  1  0  0.140609  0  3.686617  0  0  0.113893  0  3.932521  0  0  0.121291  0  3.948634  0  0  0.040872  0.108809  0  3.922313  0
C  C22  1  0.77090464  0.67031401  0.35854136  1  0  0.140876  0  3.686383  0  0  0.11411  0  3.932335  0  0  0.121521  0  3.948437  0  0  0.040987  0.109023  0  3.922133  0
C  C23  1  0.77094479  0.32966992  0.14145813  1  0  0.140741  0  3.686528  0  0  0.113997  0  3.932516  0  0  0.121413  0  3.948625  0  0  0.040869  0.108913  0  3.922304  0
C  C24  1  0.08645527  0.25170588  0.69023136  1  0  -0.159998  0  3.708227  0  0  -0.176598  0  3.952399  0  0  -0.184508  0  3.972753  0  0  -0.090222  -0.17169  0  3.939303  0
C  C25  1  0.08646468  0.74829253  0.80977027  1  0  -0.159942  0  3.708204  0  0  -0.176528  0  3.952414  0  0  -0.184441  0  3.972769  0  0  -0.090241  -0.171639  0  3.939291  0
C  C26  1  0.91353729  0.74829436  0.30976608  1  0  -0.160169  0  3.708188  0  0  -0.176688  0  3.952356  0  0  -0.184607  0  3.972718  0  0  -0.090213  -0.171804  0  3.939239  0
C  C27  1  0.91354904  0.25170662  0.19022973  1  0  -0.159848  0  3.708083  0  0  -0.176519  0  3.952271  0  0  -0.184432  0  3.972622  0  0  -0.090201  -0.171611  0  3.939168  0
C  C28  1  0.15746709  0.10494149  0.69671796  1  0  0.087007  0  3.75259  0  0  0.105949  0  3.997762  0  0  0.112691  0  4.01873  0  0  0.008876  0.101276  0  3.983756  0
C  C29  1  0.15746907  0.89505908  0.80328283  1  0  0.087281  0  3.752481  0  0  0.106153  0  3.997734  0  0  0.112894  0  4.018707  0  0  0.008965  0.101481  0  3.983728  0
C  C30  1  0.84253429  0.89505659  0.30328597  1  0  0.087252  0  3.752587  0  0  0.106131  0  3.997815  0  0  0.112875  0  4.018788  0  0  0.00886  0.10146  0  3.983811  0
C  C31  1  0.84254288  0.10493545  0.19671846  1  0  0.08686  0  3.752665  0  0  0.105867  0  3.997798  0  0  0.112616  0  4.018755  0  0  0.008824  0.101193  0  3.983792  0
C  C32  1  0.37167583  0.04374243  0.65399461  1  0  -0.160077  0  3.737632  0  0  -0.178438  0  3.9876  0  0  -0.185863  0  4.007764  0  0  -0.090593  -0.17386  0  3.974567  0
C  C33  1  0.37167913  0.95626120  0.84600585  1  0  -0.160241  0  3.737369  0  0  -0.178586  0  3.987307  0  0  -0.186012  0  4.007465  0  0  -0.090641  -0.174009  0  3.974277  0
C  C34  1  0.62832907  0.95626834  0.34600662  1  0  -0.16021  0  3.737634  0  0  -0.178559  0  3.987608  0  0  -0.185987  0  4.00777  0  0  -0.090602  -0.173986  0  3.974579  0
C  C35  1  0.62833812  0.04373217  0.15399525  1  0  -0.16006  0  3.737863  0  0  -0.178496  0  3.987814  0  0  -0.185923  0  4.007974  0  0  -0.090603  -0.173922  0  3.974786  0
C  C36  1  0.50341002  0.13065371  0.60769561  1  0  0.119006  0  3.70843  0  0  0.089406  0  3.964559  0  0  0.096409  0  3.979632  0  0  0.034733  0.08475  0  3.954742  0
C  C37  1  0.50342381  0.86934388  0.89230554  1  0  0.119098  0  3.70829  0  0  0.089498  0  3.964398  0  0  0.096503  0  3.979469  0  0  0.034782  0.084845  0  3.954577  0
C  C38  1  0.49657902  0.86935350  0.39230229  1  0  0.119073  0  3.708414  0  0  0.089458  0  3.964533  0  0  0.096463  0  3.979603  0  0  0.03473  0.084801  0  3.954717  0
C  C39  1  0.49659520  0.13064718  0.10769587  1  0  0.119122  0  3.70838  0  0  0.089585  0  3.964483  0  0  0.096604  0  3.979556  0  0  0.034822  0.084927  0  3.954668  0
C  C40  1  0.09423924  0.33430321  0.42552669  1  0  0.27209  0  3.976321  0  0  0.261098  0  4.271213  0  0  0.277291  0  4.285691  0  0  0.137814  0.25031  0  4.261118  0
C  C41  1  0.09427752  0.66570195  0.07448080  1  0  0.271959  0  3.976006  0  0  0.260973  0  4.270944  0  0  0.277173  0  4.285422  0  0  0.137645  0.25018  0  4.260844  0
C  C42  1  0.90572863  0.66570520  0.57447278  1  0  0.272034  0  3.976182  0  0  0.261055  0  4.271073  0  0  0.27725  0  4.285549  0  0  0.13771  0.250266  0  4.26097  0
C  C43  1  0.90576794  0.33430205  0.92552822  1  0  0.272211  0  3.976637  0  0  0.26122  0  4.271515  0  0  0.27741  0  4.285988  0  0  0.13786  0.250432  0  4.261421  0
S  S44  1  0.96561727  0.99999736  0.75000286  1  0  0.055735  0  2.498027  0  0  0.053253  0  2.824853  0  0  0.045754  0  2.830966  0  0  0.072141  0.058705  0  2.820679  0
S  S45  1  0.03439999  0.99999637  0.25000357  1  0  0.055707  0  2.498095  0  0  0.05322  0  2.824854  0  0  0.04572  0  2.830969  0  0  0.072119  0.058673  0  2.820678  0
S  S46  1  0.35479031  0.36186561  0.38380797  1  0  -0.31031  0  2.608377  0  0  -0.285225  0  3.027667  0  0  -0.288846  0  3.005712  0  0  -0.169984  -0.283184  0  3.041765  0
S  S47  1  0.35481175  0.63814354  0.11619329  1  0  -0.310199  0  2.60879  0  0  -0.285141  0  3.028095  0  0  -0.288767  0  3.006166  0  0  -0.16994  -0.283101  0  3.042206  0
S  S48  1  0.64518461  0.63814852  0.61618834  1  0  -0.310352  0  2.608611  0  0  -0.285249  0  3.027862  0  0  -0.288878  0  3.005935  0  0  -0.169997  -0.28324  0  3.042023  0
S  S49  1  0.64520021  0.36186376  0.88380806  1  0  -0.310342  0  2.608017  0  0  -0.285264  0  3.027304  0  0  -0.288896  0  3.005368  0  0  -0.169974  -0.28321  0  3.041397  0
N  N50  1  0.43492709  0.27142776  0.59999268  1  0  -0.295776  0  3.37711  0  0  -0.226795  0  3.671348  0  0  -0.236841  0  3.679366  0  0  -0.369022  -0.220852  0  3.66604  0
N  N51  1  0.43493589  0.72856992  0.90000695  1  0  -0.295754  0  3.377334  0  0  -0.226821  0  3.671645  0  0  -0.23687  0  3.67968  0  0  -0.369051  -0.220871  0  3.666319  0
N  N52  1  0.56505489  0.72857121  0.40000044  1  0  -0.295846  0  3.3773  0  0  -0.226809  0  3.671486  0  0  -0.236863  0  3.679517  0  0  -0.369049  -0.220864  0  3.666173  0
N  N53  1  0.56507607  0.27142805  0.09999286  1  0  -0.295874  0  3.377011  0  0  -0.226807  0  3.67116  0  0  -0.236873  0  3.679192  0  0  -0.369022  -0.220857  0  3.66584  0
N  N54  1  0.90655583  0.31808649  0.45665804  1  0  -0.489682  0  3.136363  0  0  -0.443582  0  3.463913  0  0  -0.453911  0  3.46401  0  0  -0.433602  -0.437156  0  3.463181  0
N  N55  1  0.90655655  0.68192047  0.04334490  1  0  -0.489736  0  3.135718  0  0  -0.443651  0  3.463324  0  0  -0.453988  0  3.463436  0  0  -0.43356  -0.437213  0  3.462568  0
N  N56  1  0.09342967  0.68192421  0.54334044  1  0  -0.489703  0  3.136136  0  0  -0.443615  0  3.463704  0  0  -0.453942  0  3.463796  0  0  -0.433532  -0.437185  0  3.462961  0
N  N57  1  0.09342719  0.31808796  0.95665526  1  0  -0.489685  0  3.136935  0  0  -0.443594  0  3.464488  0  0  -0.453911  0  3.464567  0  0  -0.433582  -0.43716  0  3.463747  0
