# generated using pymatgen
data_Zn4H16(C4O3)7
_symmetry_space_group_name_H-M   'P 1'
_cell_length_a   18.67712440
_cell_length_b   18.47299037
_cell_length_c   18.49433892
_cell_angle_alpha   60.07914163
_cell_angle_beta   59.84793020
_cell_angle_gamma   59.74423385
_symmetry_Int_Tables_number   1
_chemical_formula_structural   Zn4H16(C4O3)7
_chemical_formula_sum   'Zn8 H32 C56 O42'
_cell_volume   4500.72312657
_cell_formula_units_Z   2
loop_
 _symmetry_equiv_pos_site_id
 _symmetry_equiv_pos_as_xyz
  1  'x, y, z'
loop_
 _atom_site_type_symbol
 _atom_site_label
 _atom_site_symmetry_multiplicity
 _atom_site_fract_x
 _atom_site_fract_y
 _atom_site_fract_z
 _atom_site_occupancy
 _atom_site_pbe_bader_charge
 _atom_site_pbe_bader_spin_density
 _atom_site_pbe_cm5_charge
 _atom_site_pbe_ddec_charge
 _atom_site_pbe_ddec_spin_density
 _atom_site_pbe_ddec_sum_bond_order
 _atom_site_pbe_magmom
Zn  Zn0  1  0.13709600  0.95065265  0.45388879  1  1.316246  0  0.688684  0.993297  0  2.287917  0
Zn  Zn1  1  0.96490081  0.12150685  0.45750928  1  1.318319  0  0.674928  0.962524  0  2.38364  0
Zn  Zn2  1  0.96225686  0.94529376  0.62847161  1  1.320818  0  0.675681  0.970042  0  2.37102  0
Zn  Zn3  1  0.95724390  0.95429813  0.45657205  1  1.317113  0  0.676912  0.964172  0  2.355252  0
Zn  Zn4  1  0.36907142  0.54097076  0.04774823  1  1.322128  0  0.68388  0.988289  0  2.30786  0
Zn  Zn5  1  0.54388134  0.53332023  0.88121666  1  1.317077  0  0.678153  0.969645  0  2.374165  0
Zn  Zn6  1  0.54456450  0.36910430  0.06509866  1  1.326791  0  0.68722  0.983821  0  2.338557  0
Zn  Zn7  1  0.53923580  0.55045449  0.04637704  1  1.311397  0  0.671725  0.951589  0  2.38412  0
H  H8  1  0.36832395  0.78439731  0.14632968  1  0.089393  0  0.121564  0.112535  0  0.989283  0
H  H9  1  0.03262929  0.87140385  0.25826753  1  0.111679  0  0.115818  0.063471  0  0.986424  0
H  H10  1  0.46370537  0.66440040  0.21605287  1  0.071276  0  0.102409  0.034237  0  0.965928  0
H  H11  1  0.21719797  0.98664427  0.19743386  1  0.143156  0  0.122335  0.07542  0  0.960945  0
H  H12  1  0.19348972  0.71089122  0.89808271  1  0.10453  0  0.119593  0.124696  0  0.960651  0
H  H13  1  0.27961188  0.62589776  0.72551973  1  0.072292  0  0.101433  0.036312  0  0.979453  0
H  H14  1  0.68722994  0.72467200  0.73255335  1  0.109759  0  0.116123  0.1357  0  0.978478  0
H  H15  1  0.07323230  0.71469391  0.45928738  1  0.16458  0  0.128142  0.084718  0  0.967934  0
H  H16  1  0.76010945  0.46166129  0.07526581  1  0.092477  0  0.107872  0.056161  0  0.985801  0
H  H17  1  0.84319515  0.30975424  0.26668937  1  0.139663  0  0.11863  0.12831  0  0.982219  0
H  H18  1  0.79983052  0.16098493  0.28110806  1  0.081479  0  0.114455  0.132961  0  0.98332  0
H  H19  1  0.35869806  0.69099967  0.73280205  1  0.115074  0  0.118901  0.138474  0  0.975533  0
H  H20  1  0.60811005  0.18483952  0.85164496  1  0.083886  0  0.106873  0.0418  0  0.959821  0
H  H21  1  0.85483257  0.11405382  0.85295014  1  0.057127  0  0.109542  0.044264  0  0.948746  0
H  H22  1  0.70728815  0.24043871  0.59641641  1  0.091616  0  0.117634  0.064413  0  0.945572  0
H  H23  1  0.45749557  0.10562616  0.27474832  1  0.06092  0  0.107842  0.038666  0  0.939368  0
H  H24  1  0.13118295  0.60062883  0.30400670  1  0.102196  0  0.122413  0.072079  0  0.943803  0
H  H25  1  0.24879991  0.32810204  0.19276432  1  0.10954  0  0.120758  0.139841  0  0.973166  0
H  H26  1  0.31589076  0.09055463  0.32291014  1  0.127499  0  0.11629  0.118113  0  0.979836  0
H  H27  1  0.15415013  0.26132004  0.33111548  1  0.103467  0  0.117468  0.138027  0  0.976065  0
H  H28  1  0.20801371  0.76319789  0.09792960  1  0.076157  0  0.107831  0.054162  0  0.999439  0
H  H29  1  0.14438842  0.89193335  0.12522789  1  0.069992  0  0.111613  0.050197  0  1.002652  0
H  H30  1  0.12154442  0.82994606  0.78630445  1  0.116565  0  0.119509  0.121943  0  0.965061  0
H  H31  1  0.36778053  0.77910007  0.01416591  1  0.110476  0  0.11541  0.061092  0  0.952125  0
H  H32  1  0.38134876  0.80045337  0.24318026  1  0.085962  0  0.108978  0.049559  0  1.025911  0
H  H33  1  0.30155637  0.62596899  0.45798062  1  0.125236  0  0.128555  0.079301  0  0.930775  0
H  H34  1  0.68741213  0.71948677  0.90171323  1  0.091899  0  0.113784  0.111783  0  0.97405  0
H  H35  1  0.77607186  0.81799062  0.80284818  1  0.118511  0  0.113861  0.112492  0  0.975652  0
H  H36  1  0.80862883  0.76614608  0.65137596  1  0.076853  0  0.117461  0.136933  0  0.976161  0
H  H37  1  0.67687620  0.26807681  0.25501634  1  0.131315  0  0.122602  0.14239  0  0.971588  0
H  H38  1  0.79228808  0.28915654  0.81107997  1  0.113236  0  0.126575  0.143416  0  0.958433  0
H  H39  1  0.30297876  0.60082060  0.33495204  1  0.124539  0  0.118555  0.118226  0  0.986919  0
C  C40  1  0.87764509  0.13548736  0.35341496  1  1.553416  0  0.222049  0.647185  0  4.17542  0
C  C41  1  0.19643964  0.76495347  0.69180820  1  -0.060304  0  -0.008283  -0.10618  0  3.870287  0
C  C42  1  0.70675539  0.73642819  0.83031407  1  -0.009296  0  -0.06314  -0.014663  0  3.974566  0
C  C43  1  0.14165986  0.83718869  0.63440257  1  1.622812  0  0.237061  0.629391  0  4.14951  0
C  C44  1  0.67304803  0.70901074  0.80255214  1  -0.084453  0  -0.085523  -0.226767  0  3.877221  0
C  C45  1  0.76640028  0.78659374  0.77314937  1  -0.025255  0  -0.063978  -0.019589  0  3.970946  0
C  C46  1  0.81242217  0.79646217  0.68647455  1  -0.016356  0  -0.080508  -0.21697  0  3.859619  0
C  C47  1  0.75940576  0.34330103  0.19734640  1  0.007322  0  0.006321  0.069835  0  3.947249  0
C  C48  1  0.69220021  0.32762096  0.20408695  1  -0.095063  0  -0.056165  -0.213927  0  3.772143  0
C  C49  1  0.81138161  0.28166876  0.25596667  1  -0.103492  0  -0.057752  -0.042483  0  3.927401  0
C  C50  1  0.82540681  0.19385629  0.29345765  1  0.045515  0  -0.086305  -0.227253  0  3.889926  0
C  C51  1  0.27820583  0.73156527  0.33154031  1  -0.049842  0  -0.016311  -0.060649  0  3.69224  0
C  C52  1  0.70719451  0.23904796  0.81847741  1  0.042547  0  -0.014915  -0.012676  0  4.010201  0
C  C53  1  0.72560316  0.28766648  0.83845425  1  -0.092092  0  -0.045993  -0.178623  0  3.770695  0
C  C54  1  0.77816649  0.18491565  0.76256941  1  -0.009489  0  0.017419  0.022536  0  3.896266  0
C  C55  1  0.14138897  0.13150220  0.38441900  1  1.534795  0  0.223009  0.646386  0  4.176096  0
C  C56  1  0.77204503  0.18082844  0.69423406  1  -0.080145  0  -0.002178  -0.131422  0  3.851804  0
C  C57  1  0.33558916  0.21848261  0.25985494  1  -0.072364  0  0.005358  0.067004  0  3.966796  0
C  C58  1  0.31180372  0.30115069  0.20221678  1  0.008725  0  -0.059865  -0.21687  0  3.774432  0
C  C59  1  0.28144949  0.16226094  0.30823805  1  -0.113406  0  -0.060747  -0.056887  0  3.957725  0
C  C60  1  0.19279564  0.19144964  0.33858211  1  0.025033  0  -0.085831  -0.223496  0  3.886731  0
C  C61  1  0.61822579  0.65216106  0.86445847  1  1.53511  0  0.217632  0.640863  0  4.188865  0
C  C62  1  0.19699431  0.80200830  0.29936844  1  0.03885  0  0.013547  -0.055066  0  3.632248  0
C  C63  1  0.36614009  0.35964896  0.14584486  1  1.605939  0  0.232709  0.657852  0  4.154915  0
C  C64  1  0.36700405  0.62439821  0.86570778  1  1.558973  0  0.222325  0.641991  0  4.180397  0
C  C65  1  0.63544363  0.38077036  0.14841464  1  1.586004  0  0.228194  0.6443  0  4.172295  0
C  C66  1  0.65837269  0.34835518  0.89134756  1  1.650195  0  0.230086  0.656153  0  4.202651  0
C  C67  1  0.86944269  0.85155039  0.63262918  1  1.544403  0  0.221279  0.640982  0  4.191062  0
C  C68  1  0.35824601  0.63705225  0.14498684  1  1.600684  0  0.230516  0.584671  0  4.147765  0
C  C69  1  0.84646198  0.12314373  0.63995515  1  1.630418  0  0.226226  0.611762  0  4.207979  0
C  C70  1  0.13908431  0.86604569  0.35314911  1  1.609832  0  0.228239  0.580942  0  4.17883  0
C  C71  1  0.14281733  0.75010375  0.31122237  1  -0.044992  0  -0.011899  -0.0714  0  3.646168  0
C  C72  1  0.20062522  0.69937812  0.24133078  1  -0.034228  0  -0.015547  -0.070165  0  3.709595  0
C  C73  1  0.29718478  0.69485820  0.20549693  1  0.021232  0  -0.002849  -0.029833  0  3.747949  0
C  C74  1  0.23223754  0.85720535  0.19774399  1  -0.056165  0  -0.01648  -0.055505  0  3.723038  0
C  C75  1  0.04724301  0.80547984  0.30889363  1  0.977571  0  0.099884  0.275055  0  3.897951  0
C  C76  1  0.42461696  0.62049242  0.26965044  1  0.967946  0  0.093699  0.308258  0  3.949371  0
C  C77  1  0.26816598  0.92790216  0.17779220  1  0.953043  0  0.115367  0.290566  0  3.83587  0
C  C78  1  0.25995567  0.68302889  0.66874261  1  0.950154  0  0.093079  0.271826  0  3.991829  0
C  C79  1  0.11888697  0.68407112  0.40707915  1  0.923359  0  0.111439  0.273697  0  3.884922  0
C  C80  1  0.78448610  0.42422563  0.13201607  1  0.951438  0  0.105241  0.268582  0  3.91637  0
C  C81  1  0.61534418  0.23791211  0.85702197  1  0.987795  0  0.101754  0.282737  0  3.981184  0
C  C82  1  0.86318881  0.13666512  0.78174691  1  0.995485  0  0.111231  0.273781  0  3.941979  0
C  C83  1  0.69699422  0.24151487  0.66052422  1  0.971552  0  0.110628  0.284201  0  3.930074  0
C  C84  1  0.30467070  0.78949825  0.15029270  1  -0.027348  0  -0.085291  -0.156953  0  3.847609  0
C  C85  1  0.42083082  0.17476603  0.27773870  1  0.956472  0  0.115646  0.286766  0  3.940347  0
C  C86  1  0.19754344  0.60232820  0.28244417  1  1.012026  0  0.106216  0.281678  0  3.88252  0
C  C87  1  0.16275234  0.74247999  0.16637389  1  0.928015  0  0.093511  0.252804  0  3.922458  0
C  C88  1  0.15424021  0.91686470  0.16195174  1  0.978012  0  0.098868  0.258552  0  3.921265  0
C  C89  1  0.31820002  0.82567344  0.05220389  1  0.927122  0  0.108551  0.291747  0  3.895013  0
C  C90  1  0.34540972  0.76950302  0.31301615  1  0.95272  0  0.098635  0.25515  0  3.887367  0
C  C91  1  0.25118259  0.68831554  0.43348166  1  0.994125  0  0.122517  0.296789  0  3.851478  0
C  C92  1  0.32552017  0.65763020  0.28691627  1  -0.075335  0  -0.083349  -0.151301  0  3.761811  0
C  C93  1  0.22962492  0.71858440  0.82775567  1  -0.028578  0  -0.060644  -0.02206  0  3.981222  0
C  C94  1  0.31804815  0.68018654  0.80243453  1  -0.006949  0  -0.077699  -0.219949  0  3.871686  0
C  C95  1  0.17938939  0.77427225  0.76812187  1  -0.069602  0  -0.047747  -0.043825  0  3.906773  0
O  O96  1  0.00766001  0.99097518  0.49862924  1  -1.228077  0  -0.570629  -1.032089  0  2.519326  0
O  O97  1  0.59928084  0.33740013  0.14885977  1  -1.140369  0  -0.305414  -0.530259  0  2.283978  0
O  O98  1  0.63111245  0.42902462  0.84508655  1  -1.162577  0  -0.304671  -0.527142  0  2.306269  0
O  O99  1  0.88384628  0.05364778  0.38658810  1  -1.164237  0  -0.318783  -0.547081  0  2.286705  0
O  O100  1  0.43915923  0.60528233  0.13688862  1  -1.155825  0  -0.286945  -0.503769  0  2.375911  0
O  O101  1  0.64192153  0.31501476  0.97456761  1  -1.151769  0  -0.308862  -0.540459  0  2.30228  0
O  O102  1  0.32612316  0.63350886  0.10081737  1  -1.175695  0  -0.304601  -0.552968  0  2.406303  0
O  O103  1  0.32359303  0.61192993  0.94830574  1  -1.166096  0  -0.317468  -0.554976  0  2.302536  0
O  O104  1  0.62645310  0.46294064  0.10560880  1  -1.175227  0  -0.310827  -0.549313  0  2.342012  0
O  O105  1  0.60449429  0.61823036  0.82891918  1  -1.149904  0  -0.317034  -0.547382  0  2.299266  0
O  O106  1  0.44929766  0.32267513  0.12017055  1  -1.155001  0  -0.304893  -0.536134  0  2.345957  0
O  O107  1  0.18280016  0.04857058  0.39563410  1  -1.167747  0  -0.318378  -0.557502  0  2.303616  0
O  O108  1  0.18222279  0.86125597  0.55161096  1  -1.144853  0  -0.295014  -0.51725  0  2.329634  0
O  O109  1  0.05778799  0.16968565  0.40857565  1  -1.152077  0  -0.31563  -0.540587  0  2.294596  0
O  O110  1  0.88746110  0.87633160  0.67299438  1  -1.175196  0  -0.318464  -0.558034  0  2.338321  0
O  O111  1  0.86888957  0.16415590  0.55684744  1  -1.168087  0  -0.303273  -0.537307  0  2.32519  0
O  O112  1  0.05696807  0.88252518  0.38054926  1  -1.165088  0  -0.281626  -0.505442  0  2.426703  0
O  O113  1  0.87610326  0.04077669  0.68014956  1  -1.176391  0  -0.309173  -0.534165  0  2.338652  0
O  O114  1  0.17886936  0.90003748  0.36025540  1  -1.159672  0  -0.295992  -0.529229  0  2.368806  0
O  O115  1  0.98977950  0.77271704  0.36304333  1  -1.067377  0  -0.240731  -0.314014  0  2.126623  0
O  O116  1  0.45886924  0.54862943  0.31685844  1  -1.06133  0  -0.262813  -0.341201  0  2.082152  0
O  O117  1  0.34497723  0.92231831  0.13744686  1  -1.082221  0  -0.24236  -0.320357  0  2.155234  0
O  O118  1  0.89544843  0.87053877  0.54862757  1  -1.166942  0  -0.316178  -0.540944  0  2.287842  0
O  O119  1  0.28556759  0.67392666  0.59764470  1  -1.041772  0  -0.249115  -0.327272  0  2.143918  0
O  O120  1  0.14790905  0.60395035  0.42314375  1  -1.042105  0  -0.213718  -0.287179  0  2.200657  0
O  O121  1  0.82993833  0.44754611  0.14044826  1  -1.055712  0  -0.25742  -0.3416  0  2.080248  0
O  O122  1  0.55302032  0.28765231  0.89754747  1  -1.066991  0  -0.249839  -0.330156  0  2.127308  0
O  O123  1  0.93588846  0.12610587  0.72510620  1  -1.052006  0  -0.240568  -0.313269  0  2.102379  0
O  O124  1  0.62881407  0.29139453  0.69731120  1  -1.039349  0  -0.220825  -0.303628  0  2.135352  0
O  O125  1  0.44699431  0.20736951  0.29890358  1  -1.029097  0  -0.245939  -0.32259  0  2.104208  0
O  O126  1  0.26426397  0.53793107  0.27564378  1  -1.087974  0  -0.248446  -0.326257  0  2.188621  0
O  O127  1  0.08852762  0.75047821  0.17987982  1  -1.059603  0  -0.244642  -0.321361  0  2.137786  0
O  O128  1  0.10346092  0.98646786  0.17657230  1  -1.080217  0  -0.247345  -0.32395  0  2.139777  0
O  O129  1  0.91153183  0.17010179  0.36791069  1  -1.173015  0  -0.316917  -0.550472  0  2.325033  0
O  O130  1  0.28265109  0.90331310  0.01449159  1  -1.065082  0  -0.233248  -0.312304  0  2.126666  0
O  O131  1  0.36209537  0.76086692  0.37322921  1  -1.035023  0  -0.225922  -0.287421  0  2.123295  0
O  O132  1  0.18047753  0.72004296  0.48369589  1  -1.084072  0  -0.227524  -0.317086  0  2.214538  0
O  O133  1  0.05955639  0.86835499  0.67510355  1  -1.178091  0  -0.315215  -0.552679  0  2.327316  0
O  O134  1  0.49767829  0.49883168  0.01118477  1  -1.229609  0  -0.572301  -1.034938  0  2.532417  0
O  O135  1  0.58985454  0.64032471  0.94742685  1  -1.169668  0  -0.327129  -0.569015  0  2.322895  0
O  O136  1  0.32267777  0.44296587  0.12580911  1  -1.150008  0  -0.310143  -0.540331  0  2.280389  0
O  O137  1  0.45041499  0.59339905  0.83037341  1  -1.164965  0  -0.311225  -0.535489  0  2.295441  0
