# generated using pymatgen
data_CuH12C15S(N3O2)2
_symmetry_space_group_name_H-M   'P 1'
_cell_length_a   8.54995419
_cell_length_b   9.78784913
_cell_length_c   9.89835623
_cell_angle_alpha   81.53024052
_cell_angle_beta   82.53254342
_cell_angle_gamma   86.53744878
_symmetry_Int_Tables_number   1
_chemical_formula_structural   CuH12C15S(N3O2)2
_chemical_formula_sum   'Cu2 H24 C30 S2 N12 O8'
_cell_volume   811.64845352
_cell_formula_units_Z   2
loop_
 _symmetry_equiv_pos_site_id
 _symmetry_equiv_pos_as_xyz
  1  'x, y, z'
loop_
 _atom_site_type_symbol
 _atom_site_label
 _atom_site_symmetry_multiplicity
 _atom_site_fract_x
 _atom_site_fract_y
 _atom_site_fract_z
 _atom_site_occupancy
 _atom_site_hle17_ddec_charge
 _atom_site_hle17_ddec_spin_density
 _atom_site_hle17_ddec_sum_bond_order
 _atom_site_hle17_magmom
 _atom_site_hse06_10hf_ddec_charge
 _atom_site_hse06_10hf_ddec_spin_density
 _atom_site_hse06_10hf_ddec_sum_bond_order
 _atom_site_hse06_10hf_magmom
 _atom_site_hse06_ddec_charge
 _atom_site_hse06_ddec_spin_density
 _atom_site_hse06_ddec_sum_bond_order
 _atom_site_hse06_magmom
 _atom_site_pbe_cm5_charge
 _atom_site_pbe_ddec_charge
 _atom_site_pbe_ddec_spin_density
 _atom_site_pbe_ddec_sum_bond_order
 _atom_site_pbe_magmom
Cu  Cu0  1  0.50000235  0.50000027  0.49999863  1  0.887349  -0.711218  1.757529  -0.495  0.872888  -0.80073  2.141115  -0.616  0.965795  -0.877042  2.06978  -0.703  0.756156  0.812967  -0.74417  2.190964  -0.557
Cu  Cu1  1  0.99999964  0.50000083  0.99999967  1  0.829874  0.750544  1.88418  0.542  0.789853  0.812804  2.262431  0.635  0.862245  0.878482  2.213267  0.708  0.802286  0.746389  0.764468  2.296003  0.586
H  H2  1  0.37543012  0.97716202  0.18172044  1  0.12761  7.9e-05  0.934613  0.0  0.1407  4.8e-05  0.99054  0.0  0.144377  3.6e-05  0.988232  0.0  0.118421  0.137791  4.2e-05  0.992834  0.0
H  H3  1  0.62456158  0.02283781  0.81827647  1  0.127578  7.8e-05  0.934606  0.0  0.140696  4.8e-05  0.990528  0.0  0.144415  3.6e-05  0.988167  0.0  0.118429  0.137789  4.2e-05  0.992824  0.0
H  H4  1  0.11939849  0.67214509  0.47318629  1  0.14494  2.8e-05  0.935899  0.0  0.155893  2.2e-05  0.994723  0.0  0.159101  2.4e-05  0.993135  0.0  0.123864  0.153677  5.2e-05  0.995212  0.0
H  H5  1  0.88059913  0.32785664  0.52681368  1  0.144977  2.2e-05  0.935807  0.0  0.155911  2.3e-05  0.994648  0.0  0.159119  2.4e-05  0.99306  0.0  0.123854  0.153699  5.2e-05  0.995135  0.0
H  H6  1  0.22558502  0.06052190  0.59624645  1  0.147198  1.7e-05  0.968478  0.0  0.154454  -7e-06  1.033347  0.0  0.158883  -2e-06  1.030215  0.0  0.11491  0.151006  -3.1e-05  1.036233  0.0
H  H7  1  0.77441380  0.93947775  0.40375266  1  0.147191  1.2e-05  0.968503  0.0  0.154444  -7e-06  1.033374  0.0  0.158873  -2e-06  1.030243  0.0  0.114894  0.150998  -3.1e-05  1.036257  0.0
H  H8  1  0.44774616  0.18060165  0.55050821  1  0.104443  6e-05  0.976245  0.0  0.110446  -4.3e-05  1.043188  0.0  0.11318  -3.3e-05  1.040194  0.0  0.136314  0.108304  -4.3e-05  1.045378  0.0
H  H9  1  0.55225620  0.81939688  0.44948960  1  0.104427  5.6e-05  0.976271  0.0  0.110423  -4.2e-05  1.043222  0.0  0.113157  -3.4e-05  1.040228  0.0  0.136295  0.108282  -4.3e-05  1.045408  0.0
H  H10  1  0.43654379  0.47439180  0.19494286  1  0.114707  -7.5e-05  0.979254  0.0  0.123272  -0.000198  1.03834  -0.001  0.125852  -0.00014  1.037468  0.0  0.120567  0.121078  -0.00025  1.039424  -0.001
H  H11  1  0.56345263  0.52561099  0.80505711  1  0.114705  -7.4e-05  0.979234  0.0  0.123281  -0.000198  1.038322  -0.001  0.125862  -0.00014  1.037445  0.0  0.120574  0.121084  -0.00025  1.03941  -0.001
H  H12  1  0.31186028  0.23147133  0.14737685  1  0.124142  -0.000479  0.956907  -0.001  0.135505  -0.000398  1.014713  0.0  0.138414  -0.000304  1.013315  0.0  0.126371  0.1332  -0.000459  1.015937  -0.001
H  H13  1  0.68813259  0.76853258  0.85262340  1  0.124162  -0.00048  0.956898  -0.001  0.135528  -0.000398  1.014704  0.0  0.138436  -0.000304  1.013311  0.0  0.126363  0.133228  -0.000458  1.015931  -0.001
H  H14  1  0.02648125  0.62776712  0.28254093  1  0.112472  1e-05  1.008214  0.0  0.116841  0.000105  1.074718  0.0  0.120171  7.2e-05  1.070656  0.0  0.134483  0.114173  0.00011  1.077825  0.001
H  H15  1  0.97351878  0.37223146  0.71745918  1  0.112485  1.1e-05  1.00822  0.0  0.116846  0.000105  1.074732  0.0  0.120176  7.2e-05  1.07067  0.0  0.134484  0.11418  0.00011  1.077837  0.001
H  H16  1  0.34740493  0.60779289  0.92321832  1  0.112133  0.000199  0.984804  0.0  0.116564  0.000297  1.051471  0.001  0.118474  0.000209  1.051229  0.0  0.115759  0.115285  0.000386  1.051479  0.001
H  H17  1  0.65259629  0.39220565  0.07678267  1  0.112147  0.0002  0.984744  0.0  0.116581  0.000297  1.051415  0.001  0.11849  0.000209  1.051172  0.0  0.115772  0.115306  0.000386  1.051416  0.001
H  H18  1  0.46409331  0.78306840  0.08164208  1  0.124807  0.000406  0.945702  0.001  0.1353  0.000281  1.003269  0.0  0.13838  0.000205  1.000758  0.0  0.127634  0.133061  0.000357  1.005123  0.001
H  H19  1  0.53590917  0.21692700  0.91836121  1  0.124834  0.000405  0.945679  0.001  0.135312  0.000281  1.00325  0.0  0.138398  0.000205  1.000743  0.0  0.127639  0.133075  0.000357  1.005101  0.001
H  H20  1  0.10879445  0.59335827  0.68593650  1  0.113817  0.00011  1.0008  0.001  0.11762  0.000116  1.069822  0.0  0.120416  7.6e-05  1.066194  0.0  0.136128  0.115245  0.000161  1.072755  0.001
H  H21  1  0.89120789  0.40664334  0.31406291  1  0.113885  0.000111  1.000734  0.001  0.11761  0.000116  1.069855  0.0  0.120404  7.6e-05  1.066229  0.0  0.136134  0.115238  0.000161  1.072785  0.001
H  H22  1  0.92484772  0.82940841  0.00002274  1  0.123054  0.000109  0.94539  0.0  0.129731  0.000262  1.006356  0.001  0.132481  0.000186  1.004648  0.0  0.122103  0.127776  0.000331  1.007405  0.001
H  H23  1  0.07515115  0.17058916  0.99997765  1  0.123057  0.00011  0.945364  0.0  0.129728  0.000262  1.006334  0.001  0.132479  0.000186  1.004626  0.0  0.122091  0.12777  0.000331  1.007387  0.001
H  H24  1  0.04644730  0.00967185  0.76950005  1  0.131404  0.000451  0.954246  0.001  0.141439  0.000334  1.012042  0.001  0.144096  0.000262  1.010844  0.0  0.125546  0.138938  0.000403  1.013886  0.001
H  H25  1  0.95354914  0.99032888  0.23049919  1  0.131407  0.000452  0.954252  0.001  0.141424  0.000334  1.01207  0.001  0.144095  0.000262  1.010852  0.0  0.125541  0.138921  0.000403  1.013915  0.001
C  C26  1  0.30615051  0.02984831  0.38596061  1  0.216467  3.9e-05  3.807528  0.0  0.208008  -0.000239  4.061073  0.0  0.215516  -0.000141  4.082659  0.0  0.101301  0.203191  -0.000273  4.047451  0.0
C  C27  1  0.69384710  0.97015343  0.61403835  1  0.216607  -3e-05  3.807285  0.0  0.208134  -0.000236  4.060865  0.0  0.21564  -0.000146  4.082461  0.0  0.10137  0.203317  -0.000273  4.047247  0.0
C  C28  1  0.31643614  0.94403633  0.28444916  1  -0.23026  -0.000964  3.694283  -0.001  -0.264711  -0.000312  3.95525  0.0  -0.270244  -0.000305  3.972046  0.0  -0.087053  -0.262948  -0.000252  3.945684  0.0
C  C29  1  0.68355911  0.05596444  0.71554921  1  -0.230229  -0.00089  3.694088  -0.001  -0.264722  -0.000318  3.955127  0.0  -0.270291  -0.0003  3.971904  0.0  -0.087111  -0.262965  -0.000252  3.94558  0.0
C  C30  1  0.24691715  0.81590811  0.31717429  1  0.238899  0.001302  3.779717  0.001  0.232613  0.000674  4.029196  0.001  0.241292  0.00063  4.050176  0.001  0.112323  0.226776  0.000807  4.014757  0.001
C  C31  1  0.75308168  0.18409152  0.68282583  1  0.238939  0.001223  3.779724  0.001  0.232623  0.00068  4.029246  0.001  0.241301  0.000625  4.050233  0.001  0.112367  0.226783  0.000807  4.014818  0.001
C  C32  1  0.17174507  0.77285035  0.44924585  1  -0.233145  -0.001006  3.643671  -0.001  -0.269644  -0.000285  3.908842  0.0  -0.277761  -0.000265  3.928532  0.0  -0.083238  -0.262734  -0.000477  3.893831  -0.001
C  C33  1  0.82825257  0.22715035  0.55075427  1  -0.233238  -0.000905  3.643671  -0.001  -0.2697  -0.000292  3.908847  0.0  -0.277813  -0.000259  3.928526  0.0  -0.08327  -0.262788  -0.000477  3.893824  -0.001
C  C34  1  0.16589132  0.86073550  0.54945691  1  0.227423  0.001365  3.789201  0.002  0.218916  0.000755  4.042027  0.001  0.227182  0.000663  4.064381  0.001  0.10482  0.21334  0.00086  4.026464  0.001
C  C35  1  0.83410748  0.13926518  0.45054205  1  0.227494  0.001283  3.789232  0.001  0.218981  0.000759  4.042055  0.001  0.227248  0.000659  4.064409  0.001  0.104847  0.213411  0.00086  4.026476  0.001
C  C36  1  0.23131784  0.99054750  0.51900716  1  -0.243417  -0.000295  3.663961  0.0  -0.276384  -1.6e-05  3.923402  0.0  -0.283159  -9.3e-05  3.941387  0.0  -0.093719  -0.273011  -0.000185  3.912499  0.0
C  C37  1  0.76867977  0.00945321  0.48099094  1  -0.243513  -0.000204  3.663975  0.0  -0.27645  -2e-05  3.923398  0.0  -0.283226  -8.7e-05  3.941384  0.0  -0.09372  -0.273078  -0.000185  3.912491  0.0
C  C38  1  0.43283435  0.22704997  0.44656104  1  0.182705  0.002933  3.636826  0.003  0.126185  -7e-06  3.899281  0.0  0.143528  0.000817  3.911309  0.001  0.146105  0.115607  -0.000521  3.890942  0.0
C  C39  1  0.56716447  0.77294968  0.55343807  1  0.18275  0.00296  3.636865  0.003  0.126253  -9e-06  3.899306  0.0  0.143594  0.000816  3.911335  0.001  0.14615  0.115677  -0.000521  3.890967  0.0
C  C40  1  0.42254012  0.37564406  0.25969664  1  0.026107  0.000599  3.700664  0.001  -0.001642  -0.000783  3.961867  -0.001  0.002997  -0.000238  3.980384  0.0  0.004331  -0.005061  -0.001219  3.950623  -0.001
C  C41  1  0.57745632  0.62435770  0.74030347  1  0.02612  0.000592  3.700649  0.001  -0.001636  -0.000783  3.961846  -0.001  0.003005  -0.000238  3.980361  0.0  0.004308  -0.005044  -0.001219  3.950607  -0.001
C  C42  1  0.36355882  0.25603397  0.23463456  1  -0.051644  -0.004472  3.617654  -0.004  -0.089212  -0.002191  3.863759  -0.002  -0.08754  -0.001938  3.880156  -0.002  0.004232  -0.090499  -0.002384  3.853441  -0.002
C  C43  1  0.63643760  0.74396883  0.76536541  1  -0.051706  -0.004468  3.617656  -0.004  -0.089283  -0.002191  3.863774  -0.002  -0.087612  -0.001938  3.880171  -0.002  0.004251  -0.090576  -0.002384  3.853468  -0.002
C  C44  1  0.12997736  0.64407731  0.20590570  1  0.165594  -0.004023  3.590065  -0.004  0.109348  0.000106  3.858344  0.0  0.124266  -0.000908  3.870751  -0.001  0.145895  0.09934  0.000896  3.850166  0.001
C  C45  1  0.87002268  0.35592125  0.79409543  1  0.165659  -0.004033  3.590077  -0.004  0.109393  0.000106  3.858355  0.0  0.12431  -0.000909  3.870761  -0.001  0.145929  0.099378  0.000896  3.850192  0.001
C  C46  1  0.29855806  0.64066623  0.02015158  1  0.001638  -0.000967  3.725655  -0.001  -0.028639  0.000857  3.997048  0.001  -0.02586  0.000131  4.017704  0.0  -0.00104  -0.030024  0.001382  3.982453  0.001
C  C47  1  0.70144319  0.35933128  0.97984955  1  0.001671  -0.000974  3.725725  -0.001  -0.028622  0.000857  3.997097  0.001  -0.025845  0.00013  4.01776  0.0  -0.001039  -0.030002  0.001381  3.982496  0.001
C  C48  1  0.35477920  0.72959583  0.09528035  1  -0.047966  0.004427  3.650375  0.005  -0.09033  0.001916  3.910434  0.002  -0.08785  0.001699  3.926747  0.002  0.004615  -0.090985  0.00214  3.897882  0.003
C  C49  1  0.64522328  0.27039956  0.90472294  1  -0.048013  0.004433  3.650496  0.005  -0.090359  0.001916  3.910537  0.002  -0.087891  0.001698  3.926863  0.002  0.004617  -0.091016  0.002139  3.897994  0.003
C  C50  1  0.06957217  0.68165753  0.73925491  1  0.177509  -0.006064  3.581314  -0.006  0.120159  -0.000968  3.847355  -0.001  0.135715  -0.00186  3.859273  -0.002  0.148641  0.109488  -0.000242  3.840098  0.0
C  C51  1  0.93042899  0.31834411  0.26074464  1  0.177427  -0.006079  3.581371  -0.006  0.120129  -0.000969  3.847436  -0.001  0.135686  -0.001862  3.859354  -0.002  0.148621  0.109461  -0.000243  3.840159  0.0
C  C52  1  0.98051265  0.80889176  0.89948737  1  -0.005295  0.000291  3.72581  0.0  -0.034775  0.001494  3.997811  0.001  -0.031931  0.000685  4.017481  0.0  -0.000335  -0.036257  0.002123  3.983945  0.002
C  C53  1  0.01948617  0.19110789  0.10051174  1  -0.005292  0.000283  3.725738  0.0  -0.034757  0.001497  3.997723  0.001  -0.031916  0.000686  4.017398  0.0  -0.000318  -0.036242  0.002124  3.983855  0.002
C  C54  1  0.03778908  0.89832023  0.78635508  1  -0.053913  0.004418  3.638653  0.004  -0.093875  0.002087  3.892557  0.002  -0.092093  0.001852  3.910904  0.002  0.003389  -0.094245  0.002361  3.879515  0.002
C  C55  1  0.96220854  0.10168047  0.21364402  1  -0.053832  0.004419  3.638607  0.004  -0.093786  0.002087  3.892515  0.002  -0.092016  0.001852  3.910854  0.002  0.003407  -0.094159  0.002361  3.879475  0.002
S  S56  1  0.27687102  0.34439184  0.72859678  1  1.516615  0.001355  5.875794  0.004  1.421355  -0.002876  6.410455  0.001  1.480065  -0.002415  6.376397  0.0  0.526621  1.380365  -0.003096  6.432257  0.001
S  S57  1  0.72313724  0.65561065  0.27140482  1  1.516427  0.001355  5.87615  0.004  1.421184  -0.002877  6.41081  0.001  1.479893  -0.002416  6.37675  0.0  0.526489  1.380186  -0.003096  6.432631  0.001
N  N58  1  0.37009558  0.16272781  0.35463721  1  -0.092064  -0.001226  3.584422  -0.001  0.000839  -0.001172  3.78902  -0.001  -0.013819  -0.000919  3.811594  -0.001  -0.225172  0.01004  -0.001278  3.773725  -0.001
N  N59  1  0.62990204  0.83727290  0.64536189  1  -0.092132  -0.001235  3.584421  -0.001  0.000776  -0.001172  3.789022  -0.001  -0.013883  -0.000919  3.811598  -0.001  -0.225215  0.009982  -0.001278  3.773729  -0.001
N  N60  1  0.46533109  0.35570873  0.39153574  1  -0.357967  -0.05997  3.344021  -0.073  -0.314866  -0.044114  3.66207  -0.056  -0.346709  -0.038003  3.679514  -0.051  -0.383946  -0.296397  -0.046418  3.652231  -0.057
N  N61  1  0.53466772  0.64429194  0.60846322  1  -0.357947  -0.059987  3.344064  -0.073  -0.314865  -0.044113  3.662117  -0.056  -0.346707  -0.038003  3.679563  -0.051  -0.383932  -0.296402  -0.046416  3.652293  -0.057
N  N62  1  0.24676378  0.73130411  0.21292329  1  -0.08901  0.002489  3.579548  0.003  6.4e-05  0.002144  3.787805  0.003  -0.015633  0.001611  3.812503  0.002  -0.223482  0.010783  0.002458  3.769923  0.003
N  N63  1  0.75323749  0.26869236  0.78707899  1  -0.089058  0.002494  3.57966  0.003  3.9e-05  0.002143  3.787911  0.003  -0.01566  0.001612  3.812611  0.002  -0.223505  0.01076  0.002458  3.770044  0.003
N  N64  1  0.15865438  0.58912322  0.09002095  1  -0.329843  0.08044  3.311579  0.102  -0.289964  0.055629  3.621319  0.074  -0.319622  0.045705  3.644112  0.064  -0.364447  -0.271167  0.061929  3.606957  0.08
N  N65  1  0.84134565  0.41087535  0.90997917  1  -0.329953  0.080438  3.311665  0.102  -0.290036  0.055628  3.62139  0.074  -0.319694  0.045705  3.644182  0.064  -0.364484  -0.27124  0.061927  3.607042  0.08
N  N66  1  0.09309421  0.81658731  0.68471425  1  -0.09017  0.002477  3.561988  0.003  0.000119  0.001906  3.77077  0.003  -0.01559  0.001407  3.795112  0.002  -0.222241  0.011063  0.002279  3.753249  0.003
N  N67  1  0.90690459  0.18341337  0.31528471  1  -0.090215  0.002483  3.562069  0.003  8e-05  0.001907  3.770845  0.003  -0.01563  0.001408  3.795188  0.002  -0.222231  0.011016  0.002279  3.753316  0.003
N  N68  1  0.00220024  0.67502225  0.86810589  1  -0.333153  0.07894  3.346923  0.1  -0.293196  0.054156  3.66107  0.072  -0.322476  0.044783  3.682979  0.062  -0.368394  -0.275304  0.060022  3.64813  0.077
N  N69  1  0.99779976  0.32497736  0.13189308  1  -0.333197  0.078948  3.346958  0.1  -0.293236  0.054157  3.661082  0.072  -0.322516  0.044784  3.682989  0.062  -0.368421  -0.275343  0.060028  3.648125  0.077
O  O70  1  0.45137429  0.36871012  0.67387504  1  -0.72251  -0.098904  2.027749  -0.127  -0.698255  -0.064283  2.33557  -0.09  -0.739288  -0.048213  2.323409  -0.071  -0.378377  -0.670251  -0.074464  2.343302  -0.1
O  O71  1  0.54863392  0.63129137  0.32612166  1  -0.722625  -0.098886  2.027791  -0.127  -0.698339  -0.064278  2.335585  -0.09  -0.73937  -0.048208  2.323426  -0.071  -0.378427  -0.670346  -0.074457  2.343351  -0.1
O  O72  1  0.18158077  0.41556937  0.62050648  1  -0.73913  -0.003776  1.903423  -0.005  -0.701885  4.3e-05  2.149261  -0.001  -0.725782  0.001119  2.133432  0.001  -0.383883  -0.683275  -0.001804  2.158276  -0.003
O  O73  1  0.81842400  0.58443011  0.37949596  1  -0.739  -0.003795  1.90347  -0.005  -0.701779  5e-05  2.149323  -0.001  -0.725676  0.001119  2.1335  0.001  -0.383831  -0.683163  -0.001804  2.158338  -0.003
O  O74  1  0.25570811  0.19312496  0.75214784  1  -0.735157  -0.013074  1.8513  -0.016  -0.699037  -0.00689  2.091848  -0.009  -0.72068  -0.004015  2.074672  -0.006  -0.391985  -0.682837  -0.009785  2.103301  -0.013
O  O75  1  0.74430260  0.80687640  0.24785867  1  -0.735094  -0.013075  1.851516  -0.016  -0.698971  -0.006888  2.092053  -0.009  -0.720615  -0.004019  2.074874  -0.006  -0.391896  -0.68277  -0.009784  2.103521  -0.013
O  O76  1  0.24019556  0.40406485  0.85881659  1  -0.737615  -0.00692  1.9282  -0.008  -0.700306  -0.00449  2.195609  -0.005  -0.722346  -0.003102  2.176356  -0.004  -0.376277  -0.684183  -0.006071  2.208399  -0.007
O  O77  1  0.75981731  0.59594271  0.14118172  1  -0.737552  -0.006907  1.928267  -0.007  -0.700226  -0.004495  2.195605  -0.005  -0.722265  -0.003099  2.176354  -0.003  -0.376255  -0.684108  -0.006072  2.208429  -0.007
