# generated using pymatgen
data_AgPH12C15S2(NO2)2
_symmetry_space_group_name_H-M   'P 1'
_cell_length_a   7.18131679
_cell_length_b   10.77124041
_cell_length_c   12.19074861
_cell_angle_alpha   105.13277371
_cell_angle_beta   99.13629762
_cell_angle_gamma   95.27969994
_symmetry_Int_Tables_number   1
_chemical_formula_structural   AgPH12C15S2(NO2)2
_chemical_formula_sum   'Ag2 P2 H24 C30 S4 N4 O8'
_cell_volume   889.87134223
_cell_formula_units_Z   2
loop_
 _symmetry_equiv_pos_site_id
 _symmetry_equiv_pos_as_xyz
  1  'x, y, z'
loop_
 _atom_site_type_symbol
 _atom_site_label
 _atom_site_symmetry_multiplicity
 _atom_site_fract_x
 _atom_site_fract_y
 _atom_site_fract_z
 _atom_site_occupancy
 _atom_site_hle17_bader_spin_density
 _atom_site_hle17_ddec_charge
 _atom_site_hle17_ddec_spin_density
 _atom_site_hle17_ddec_sum_bond_order
 _atom_site_hle17_magmom
 _atom_site_hse06_10hf_bader_spin_density
 _atom_site_hse06_10hf_ddec_charge
 _atom_site_hse06_10hf_ddec_spin_density
 _atom_site_hse06_10hf_ddec_sum_bond_order
 _atom_site_hse06_10hf_magmom
 _atom_site_hse06_bader_spin_density
 _atom_site_hse06_ddec_charge
 _atom_site_hse06_ddec_spin_density
 _atom_site_hse06_ddec_sum_bond_order
 _atom_site_hse06_magmom
 _atom_site_pbe_bader_spin_density
 _atom_site_pbe_cm5_charge
 _atom_site_pbe_ddec_charge
 _atom_site_pbe_ddec_spin_density
 _atom_site_pbe_ddec_sum_bond_order
 _atom_site_pbe_magmom
Ag  Ag0  1  0.55198232  0.66859594  0.99992190  1  0  0.561106  0  1.458362  0  0  0.452574  0  1.885158  0  0  0.472162  0  1.845596  0  0  0.431145  0.438646  0  1.91272  0
Ag  Ag1  1  0.44800313  0.33135509  0.00005248  1  0  0.561061  0  1.45816  0  0  0.452483  0  1.884963  0  0  0.472118  0  1.845331  0  0  0.431172  0.438554  0  1.912524  0
P  P2  1  0.36324426  0.64580615  0.21755419  1  0  1.710527  0  4.854471  0  0  1.535371  0  5.375017  0  0  1.59284  0  5.321535  0  0  0.407245  1.494596  0  5.412713  0
P  P3  1  0.63677020  0.35419238  0.78245475  1  0  1.710271  0  4.854813  0  0  1.535074  0  5.375483  0  0  1.59249  0  5.322155  0  0  0.407075  1.494318  0  5.413111  0
H  H4  1  0.37272978  0.88545123  0.17242399  1  0  0.307458  0  0.929254  0  0  0.28158  0  1.000618  0  0  0.290586  0  0.993624  0  0  0.315913  0.275277  0  1.005588  0
H  H5  1  0.62726849  0.11455047  0.82757926  1  0  0.307369  0  0.929433  0  0  0.281489  0  1.000805  0  0  0.290492  0  0.993808  0  0  0.315917  0.275187  0  1.005772  0
H  H6  1  0.14289257  0.44244880  0.62442607  1  0  0.139801  0  0.942853  0  0  0.151958  0  0.995072  0  0  0.154788  0  0.993969  0  0  0.116723  0.150324  0  0.995109  0
H  H7  1  0.85711555  0.55755038  0.37555285  1  0  0.139682  0  0.943066  0  0  0.151923  0  0.995178  0  0  0.154752  0  0.994074  0  0  0.116758  0.15029  0  0.995217  0
H  H8  1  0.15578424  0.62458062  0.51327728  1  0  0.11545  0  0.936738  0  0  0.129795  0  0.988378  0  0  0.132285  0  0.98781  0  0  0.109635  0.127829  0  0.989163  0
H  H9  1  0.84424794  0.37542620  0.48670857  1  0  0.115498  0  0.936897  0  0  0.129793  0  0.988575  0  0  0.132284  0  0.988008  0  0  0.109631  0.127825  0  0.989358  0
H  H10  1  0.21530326  0.85837765  0.65853174  1  0  0.116387  0  0.93982  0  0  0.132943  0  0.988909  0  0  0.135248  0  0.988045  0  0  0.114169  0.131175  0  0.989674  0
H  H11  1  0.78473337  0.14163081  0.34146073  1  0  0.116253  0  0.939898  0  0  0.13283  0  0.98901  0  0  0.135132  0  0.988148  0  0  0.114131  0.131082  0  0.989746  0
H  H12  1  0.10555763  0.02288607  0.73587945  1  0  0.104443  0  0.967985  0  0  0.11816  0  1.023496  0  0  0.120784  0  1.023527  0  0  0.099746  0.1163  0  1.023528  0
H  H13  1  0.89439844  0.97711079  0.26413470  1  0  0.104514  0  0.968003  0  0  0.118279  0  1.023434  0  0  0.120904  0  1.023461  0  0  0.09982  0.11642  0  1.023467  0
H  H14  1  0.05304725  0.25987201  0.84776400  1  0  0.113832  0  0.969154  0  0  0.124908  0  1.023658  0  0  0.128124  0  1.021135  0  0  0.100216  0.122723  0  1.02518  0
H  H15  1  0.94692282  0.74012343  0.15224213  1  0  0.113783  0  0.969155  0  0  0.124935  0  1.023584  0  0  0.128152  0  1.021059  0  0  0.100262  0.122748  0  1.025113  0
H  H16  1  0.13145794  0.28853004  0.07497296  1  0  0.098107  0  1.011105  0  0  0.100644  0  1.085414  0  0  0.103336  0  1.085298  0  0  0.08367  0.098715  0  1.085511  0
H  H17  1  0.86852960  0.71148135  0.92503182  1  0  0.098166  0  1.011019  0  0  0.100738  0  1.085283  0  0  0.103416  0  1.085177  0  0  0.083684  0.098815  0  1.085389  0
H  H18  1  0.35984961  0.98603228  0.34154362  1  0  0.13296  0  0.958721  0  0  0.144865  0  1.013729  0  0  0.148158  0  1.011148  0  0  0.112897  0.142347  0  1.01571  0
H  H19  1  0.64015078  0.01398000  0.65846433  1  0  0.13295  0  0.95862  0  0  0.14486  0  1.013609  0  0  0.148163  0  1.011021  0  0  0.112904  0.142343  0  1.015593  0
H  H20  1  0.40202923  0.17867893  0.53358852  1  0  0.127332  0  0.946517  0  0  0.138835  0  0.999827  0  0  0.142057  0  0.998612  0  0  0.109852  0.136589  0  1.000676  0
H  H21  1  0.59792422  0.82131829  0.46641889  1  0  0.127347  0  0.946638  0  0  0.138847  0  0.999957  0  0  0.142065  0  0.998747  0  0  0.109821  0.136599  0  1.000801  0
H  H22  1  0.35968458  0.40151255  0.48694117  1  0  0.130837  0  0.961988  0  0  0.140677  0  1.022028  0  0  0.143149  0  1.021193  0  0  0.108825  0.139276  0  1.021996  0
H  H23  1  0.64036807  0.59850051  0.51307632  1  0  0.130756  0  0.962228  0  0  0.14056  0  1.022296  0  0  0.143036  0  1.021455  0  0  0.108778  0.139157  0  1.022269  0
H  H24  1  0.50869522  0.50027986  0.27699955  1  0  0.377854  0  0.918539  0  0  0.344829  0  1.010764  0  0  0.353783  0  1.000676  0  0  0.297912  0.338336  0  1.018369  0
H  H25  1  0.49131563  0.49971980  0.72298880  1  0  0.377889  0  0.918564  0  0  0.344862  0  1.010764  0  0  0.353818  0  1.000682  0  0  0.297918  0.33837  0  1.018374  0
H  H26  1  0.08613760  0.53127362  0.19936526  1  0  0.390183  0  0.881616  0  0  0.362516  0  0.961575  0  0  0.371467  0  0.951499  0  0  0.304567  0.356244  0  0.968583  0
H  H27  1  0.91389531  0.46872328  0.80062209  1  0  0.390194  0  0.881608  0  0  0.362572  0  0.961521  0  0  0.371526  0  0.951438  0  0  0.304554  0.3563  0  0.968529  0
C  C28  1  0.16489416  0.54709159  0.66151138  1  0  -0.183346  0  3.710936  0  0  -0.199088  0  3.988721  0  0  -0.200236  0  4.007076  0  0  -0.105259  -0.198019  0  3.975434  0
C  C29  1  0.83512160  0.45291111  0.33847582  1  0  -0.183036  0  3.710976  0  0  -0.19882  0  3.988682  0  0  -0.199971  0  4.00705  0  0  -0.105196  -0.197743  0  3.975362  0
C  C30  1  0.17087131  0.64332563  0.60662402  1  0  -0.076664  0  3.795398  0  0  -0.096088  0  4.058871  0  0  -0.098461  0  4.080775  0  0  -0.104895  -0.094679  0  4.044074  0
C  C31  1  0.82914382  0.35668096  0.39336416  1  0  -0.076802  0  3.795626  0  0  -0.096172  0  4.059133  0  0  -0.098554  0  4.081043  0  0  -0.104893  -0.094759  0  4.044346  0
C  C32  1  0.20224495  0.76991192  0.68525923  1  0  -0.09505  0  3.734228  0  0  -0.12358  0  3.993304  0  0  -0.123797  0  4.013151  0  0  -0.093553  -0.122887  0  3.979749  0
C  C33  1  0.79777971  0.23009343  0.31473450  1  0  -0.094859  0  3.734556  0  0  -0.123503  0  3.993684  0  0  -0.123716  0  4.01353  0  0  -0.093627  -0.122829  0  3.980119  0
C  C34  1  0.22214156  0.76918578  0.79960000  1  0  -0.059197  0  3.765893  0  0  -0.046854  0  4.032574  0  0  -0.04871  0  4.054169  0  0  -0.015605  -0.045887  0  4.018041  0
C  C35  1  0.77784744  0.23081137  0.20039535  1  0  -0.059225  0  3.766159  0  0  -0.046813  0  4.032837  0  0  -0.048634  0  4.054363  0  0  -0.015513  -0.045858  0  4.018313  0
C  C36  1  0.25209028  0.87469549  0.90601745  1  0  0.155189  0  3.822887  0  0  0.14068  0  4.087587  0  0  0.148476  0  4.104708  0  0  0.113919  0.135349  0  4.075706  0
C  C37  1  0.74788615  0.12530248  0.09397932  1  0  0.155137  0  3.822927  0  0  0.140626  0  4.087531  0  0  0.148397  0  4.104712  0  0  0.113961  0.135303  0  4.075635  0
C  C38  1  0.21034135  0.00195031  0.91196502  1  0  -0.008486  0  3.771748  0  0  0.001541  0  4.01528  0  0  0.000786  0  4.039952  0  0  -0.023816  0.00208  0  3.998454  0
C  C39  1  0.78961079  0.99803961  0.08803208  1  0  -0.008315  0  3.771842  0  0  0.001684  0  4.015274  0  0  0.000938  0  4.039955  0  0  -0.023761  0.002226  0  3.998437  0
C  C40  1  0.14014457  0.06416698  0.82893436  1  0  -0.163647  0  3.731203  0  0  -0.191424  0  3.992253  0  0  -0.199189  0  4.016495  0  0  -0.127271  -0.186063  0  3.975601  0
C  C41  1  0.85980713  0.93582840  0.17107074  1  0  -0.163739  0  3.731285  0  0  -0.191582  0  3.992387  0  0  -0.19936  0  4.016648  0  0  -0.127182  -0.186225  0  3.975735  0
C  C42  1  0.11716499  0.19098230  0.88792268  1  0  -0.049066  0  3.703547  0  0  -0.058855  0  3.955514  0  0  -0.056486  0  3.973576  0  0  -0.107039  -0.060467  0  3.942852  0
C  C43  1  0.88278922  0.80901128  0.11207973  1  0  -0.048983  0  3.703394  0  0  -0.058859  0  3.955454  0  0  -0.056485  0  3.973512  0  0  -0.10721  -0.060468  0  3.942805  0
C  C44  1  0.17624185  0.21282101  0.01031156  1  0  -0.264048  0  3.867149  0  0  -0.263719  0  4.133742  0  0  -0.271795  0  4.154234  0  0  -0.180391  -0.257497  0  4.118912  0
C  C45  1  0.82371614  0.78717677  0.98968660  1  0  -0.264101  0  3.86727  0  0  -0.263835  0  4.133802  0  0  -0.271898  0  4.154306  0  0  -0.180351  -0.257596  0  4.118906  0
C  C46  1  0.23177661  0.09329747  0.02631284  1  0  -0.032947  0  3.794807  0  0  -0.027104  0  4.040709  0  0  -0.03185  0  4.066894  0  0  -0.030534  -0.023678  0  4.022257  0
C  C47  1  0.76817916  0.90669638  0.97368486  1  0  -0.033149  0  3.795423  0  0  -0.027091  0  4.041046  0  0  -0.031829  0  4.067218  0  0  -0.030494  -0.023659  0  4.022599  0
C  C48  1  0.29008379  0.05144254  0.12428554  1  0  0.187367  0  3.759987  0  0  0.16148  0  4.020786  0  0  0.174646  0  4.036959  0  0  0.126427  0.15316  0  4.009267  0
C  C49  1  0.70992129  0.94856433  0.87571403  1  0  0.187516  0  3.76  0  0  0.161501  0  4.020868  0  0  0.174656  0  4.037027  0  0  0.1263  0.153175  0  4.009356  0
C  C50  1  0.31277566  0.12757606  0.24379145  1  0  -0.074118  0  3.763614  0  0  -0.059285  0  4.032789  0  0  -0.064038  0  4.056645  0  0  -0.019437  -0.056563  0  4.016872  0
C  C51  1  0.68728010  0.87243007  0.75620970  1  0  -0.074323  0  3.763437  0  0  -0.05958  0  4.032825  0  0  -0.064279  0  4.056611  0  0  -0.019506  -0.056851  0  4.0169  0
C  C52  1  0.34853275  0.08678999  0.34344650  1  0  -0.106063  0  3.709413  0  0  -0.132465  0  3.961758  0  0  -0.130322  0  3.978394  0  0  -0.096164  -0.133058  0  3.949896  0
C  C53  1  0.65148246  0.91321860  0.65655865  1  0  -0.106013  0  3.709202  0  0  -0.13237  0  3.96154  0  0  -0.130255  0  3.978169  0  0  -0.096155  -0.132966  0  3.949681  0
C  C54  1  0.36957808  0.18930310  0.44643449  1  0  -0.0771  0  3.767846  0  0  -0.089965  0  4.016605  0  0  -0.09384  0  4.037177  0  0  -0.103688  -0.087514  0  4.002133  0
C  C55  1  0.63041846  0.81069739  0.55357237  1  0  -0.07719  0  3.768231  0  0  -0.090058  0  4.016967  0  0  -0.093935  0  4.037549  0  0  -0.103692  -0.087601  0  4.002487  0
C  C56  1  0.34790093  0.30711153  0.42485495  1  0  -0.148866  0  3.684115  0  0  -0.167384  0  3.96258  0  0  -0.166779  0  3.981487  0  0  -0.097508  -0.167561  0  3.949404  0
C  C57  1  0.65213074  0.69289499  0.57515375  1  0  -0.148621  0  3.684599  0  0  -0.167094  0  3.963025  0  0  -0.166491  0  3.981939  0  0  -0.097399  -0.167272  0  3.949847  0
S  S58  1  0.20273386  0.61028570  0.80965733  1  0  0.094887  0  2.780722  0  0  0.112155  0  3.138747  0  0  0.111525  0  3.137628  0  0  0.086029  0.112352  0  3.13938  0
S  S59  1  0.79727333  0.38970998  0.19033123  1  0  0.094821  0  2.780691  0  0  0.112059  0  3.138674  0  0  0.111416  0  3.137547  0  0  0.085964  0.11226  0  3.139296  0
S  S60  1  0.30173182  0.29309830  0.28030380  1  0  0.116243  0  2.77794  0  0  0.129536  0  3.131207  0  0  0.125635  0  3.141724  0  0  0.09166  0.131385  0  3.125714  0
S  S61  1  0.69834871  0.70690488  0.71969986  1  0  0.116295  0  2.777945  0  0  0.129564  0  3.131311  0  0  0.125656  0  3.141799  0  0  0.091718  0.131408  0  3.125818  0
N  N62  1  0.33074175  0.92768160  0.10497635  1  0  -0.160599  0  3.457355  0  0  -0.092807  0  3.685937  0  0  -0.106997  0  3.705008  0  0  -0.243128  -0.084029  0  3.673448  0
N  N63  1  0.66923353  0.07231809  0.89502487  1  0  -0.160577  0  3.457262  0  0  -0.09273  0  3.685794  0  0  -0.106924  0  3.704875  0  0  -0.243095  -0.083953  0  3.673305  0
N  N64  1  0.31342154  0.84081203  0.00213862  1  0  -0.227522  0  3.105823  0  0  -0.198463  0  3.391268  0  0  -0.205799  0  3.405043  0  0  -0.214754  -0.193224  0  3.382246  0
N  N65  1  0.68652847  0.15918847  0.99786276  1  0  -0.227559  0  3.105905  0  0  -0.198463  0  3.391274  0  0  -0.205805  0  3.405064  0  0  -0.214907  -0.193222  0  3.382241  0
O  O66  1  0.42162408  0.78998920  0.25430093  1  0  -0.845268  0  1.87385  0  0  -0.776244  0  2.112395  0  0  -0.802001  0  2.092007  0  0  -0.370605  -0.757933  0  2.126443  0
O  O67  1  0.57839146  0.21000873  0.74571863  1  0  -0.845117  0  1.874015  0  0  -0.7761  0  2.112578  0  0  -0.801856  0  2.092214  0  0  -0.370549  -0.757788  0  2.126613  0
O  O68  1  0.48670193  0.58915345  0.31167740  1  0  -0.758959  0  2.044751  0  0  -0.692254  0  2.276297  0  0  -0.712745  0  2.255026  0  0  -0.395878  -0.677714  0  2.291462  0
O  O69  1  0.51329504  0.41083596  0.68833391  1  0  -0.758946  0  2.044686  0  0  -0.692185  0  2.276197  0  0  -0.712672  0  2.254933  0  0  -0.395848  -0.677646  0  2.29136  0
O  O70  1  0.14609095  0.62110332  0.23660396  1  0  -0.744159  0  1.985571  0  0  -0.676049  0  2.199764  0  0  -0.696149  0  2.177097  0  0  -0.396527  -0.661765  0  2.215257  0
O  O71  1  0.85390918  0.37889919  0.76338491  1  0  -0.744062  0  1.98577  0  0  -0.675998  0  2.199899  0  0  -0.696092  0  2.17724  0  0  -0.396422  -0.661713  0  2.215385  0
O  O72  1  0.37531915  0.56415882  0.09693264  1  0  -0.904899  0  2.044388  0  0  -0.813468  0  2.34174  0  0  -0.840699  0  2.313964  0  0  -0.404533  -0.794243  0  2.361393  0
O  O73  1  0.62471272  0.43584867  0.90307634  1  0  -0.904844  0  2.044396  0  0  -0.813373  0  2.341688  0  0  -0.840595  0  2.313926  0  0  -0.404535  -0.794156  0  2.361347  0
