# generated using pymatgen
data_BaH11C9NO6
_symmetry_space_group_name_H-M   'P 1'
_cell_length_a   7.43725645
_cell_length_b   9.10286009
_cell_length_c   9.21704738
_cell_angle_alpha   79.91008875
_cell_angle_beta   75.24684473
_cell_angle_gamma   67.53862999
_symmetry_Int_Tables_number   1
_chemical_formula_structural   BaH11C9NO6
_chemical_formula_sum   'Ba2 H22 C18 N2 O12'
_cell_volume   555.52488391
_cell_formula_units_Z   2
loop_
 _symmetry_equiv_pos_site_id
 _symmetry_equiv_pos_as_xyz
  1  'x, y, z'
loop_
 _atom_site_type_symbol
 _atom_site_label
 _atom_site_symmetry_multiplicity
 _atom_site_fract_x
 _atom_site_fract_y
 _atom_site_fract_z
 _atom_site_occupancy
 _atom_site_pbe_bader_spin_density
 _atom_site_pbe_cm5_charge
 _atom_site_pbe_ddec_charge
 _atom_site_pbe_ddec_spin_density
 _atom_site_pbe_ddec_sum_bond_order
 _atom_site_pbe_magmom
Ba  Ba0  1  0.30883350  0.86242633  0.56375007  1  0  0.943435  1.471347  0  1.55715  0
Ba  Ba1  1  0.69116943  0.13757065  0.43624908  1  0  0.943418  1.471346  0  1.557147  0
H  H2  1  0.10893928  0.74393801  0.34741414  1  0  0.296444  0.376127  0  0.970854  0
H  H3  1  0.89106297  0.25606374  0.65258429  1  0  0.296438  0.376099  0  0.970892  0
H  H4  1  0.32485895  0.60051487  0.33678914  1  0  0.2979  0.389557  0  0.942082  0
H  H5  1  0.67514294  0.39948451  0.66321088  1  0  0.297921  0.389571  0  0.942056  0
H  H6  1  0.37860587  0.47302653  0.67473744  1  0  0.295206  0.377143  0  0.965347  0
H  H7  1  0.62139741  0.52697285  0.32526338  1  0  0.295257  0.377267  0  0.965175  0
H  H8  1  0.36096434  0.53636131  0.82787756  1  0  0.276002  0.327031  0  1.046067  0
H  H9  1  0.63903563  0.46363928  0.17212372  1  0  0.276016  0.327054  0  1.046036  0
H  H10  1  0.93689015  0.40433703  0.39674162  1  0  0.117748  0.110975  0  1.044749  0
H  H11  1  0.06311192  0.59566832  0.60325945  1  0  0.117745  0.110982  0  1.044761  0
H  H12  1  0.54854312  0.28316367  0.89387790  1  0  0.101723  0.141848  0  1.031143  0
H  H13  1  0.45145388  0.71683097  0.10612398  1  0  0.101709  0.141798  0  1.031207  0
H  H14  1  0.41642349  0.15049720  0.94358074  1  0  0.101877  0.145501  0  1.000262  0
H  H15  1  0.58357386  0.84949982  0.05642064  1  0  0.101877  0.145511  0  1.000239  0
H  H16  1  0.56846782  0.15024033  0.06240047  1  0  0.102886  0.140436  0  1.021077  0
H  H17  1  0.43153372  0.84975666  0.93759896  1  0  0.102898  0.140465  0  1.021009  0
H  H18  1  0.12725545  0.78181719  0.89117076  1  0  0.102303  0.117923  0  1.051358  0
H  H19  1  0.87275150  0.21818335  0.10882801  1  0  0.102307  0.117926  0  1.051424  0
H  H20  1  0.10443326  0.85712490  0.06426561  1  0  0.10663  0.148649  0  1.006092  0
H  H21  1  0.89557193  0.14287328  0.93573503  1  0  0.106642  0.148634  0  1.006123  0
H  H22  1  0.89288615  0.85254328  0.01587302  1  0  0.10004  0.13879  0  1.014013  0
H  H23  1  0.10711731  0.14745249  0.98412407  1  0  0.100041  0.138796  0  1.014039  0
C  C24  1  0.23827581  0.14749213  0.29842946  1  0  0.223066  0.629249  0  4.201577  0
C  C25  1  0.76172000  0.85250844  0.70156833  1  0  0.223099  0.62933  0  4.201588  0
C  C26  1  0.02543380  0.43230174  0.28886160  1  0  -0.05729  -0.069729  0  3.962746  0
C  C27  1  0.97455680  0.56770121  0.71113466  1  0  -0.057269  -0.069735  0  3.962652  0
C  C28  1  0.81488959  0.71676980  0.31671934  1  0  0.229431  0.616673  0  4.20024  0
C  C29  1  0.18510689  0.28322601  0.68328026  1  0  0.229408  0.616671  0  4.200224  0
C  C30  1  0.18779341  0.31169227  0.21712655  1  0  -0.005304  -0.134501  0  3.927236  0
C  C31  1  0.81220361  0.68831192  0.78287576  1  0  -0.005326  -0.134578  0  3.927328  0
C  C32  1  0.97855167  0.58960547  0.22624652  1  0  -0.019464  -0.16069  0  3.973331  0
C  C33  1  0.02144275  0.41039510  0.77375156  1  0  -0.01947  -0.16063  0  3.973268  0
C  C34  1  0.29645428  0.35172163  0.07723473  1  0  0.13129  0.301295  0  3.933939  0
C  C35  1  0.70354345  0.64827773  0.92276181  1  0  0.131331  0.301407  0  3.933907  0
C  C36  1  0.09320728  0.62198203  0.08631571  1  0  0.126875  0.294252  0  3.952114  0
C  C37  1  0.90679061  0.37801376  0.91368253  1  0  0.126821  0.294197  0  3.952185  0
C  C38  1  0.46767839  0.22793104  0.98928689  1  0  -0.234941  -0.455267  0  3.915139  0
C  C39  1  0.53232087  0.77206479  0.01071539  1  0  -0.234949  -0.455298  0  3.915083  0
C  C40  1  0.05231343  0.78748930  0.00972902  1  0  -0.228979  -0.455172  0  3.960482  0
C  C41  1  0.94769229  0.21250768  0.99027065  1  0  -0.228971  -0.455153  0  3.960685  0
N  N42  1  0.24522657  0.50358670  0.01429095  1  0  -0.302489  -0.339673  0  3.308648  0
N  N43  1  0.75477897  0.49641387  0.98571027  1  0  -0.302493  -0.339729  0  3.308588  0
O  O44  1  0.41352853  0.07814517  0.32384870  1  0  -0.38979  -0.662728  0  2.218849  0
O  O45  1  0.58646918  0.92185424  0.67615326  1  0  -0.389786  -0.662717  0  2.218886  0
O  O46  1  0.65656224  0.68946671  0.38043367  1  0  -0.343974  -0.589505  0  2.209212  0
O  O47  1  0.34343805  0.31053634  0.61957577  1  0  -0.343997  -0.589581  0  2.20926  0
O  O48  1  0.23003234  0.69387475  0.39026328  1  0  -0.639169  -0.812552  0  2.053154  0
O  O49  1  0.76996764  0.30612582  0.60973691  1  0  -0.639189  -0.812554  0  2.053181  0
O  O50  1  0.41706069  0.54890282  0.71588687  1  0  -0.611458  -0.799695  0  2.060708  0
O  O51  1  0.58293980  0.45109657  0.28411451  1  0  -0.611499  -0.799801  0  2.060627  0
O  O52  1  0.85238391  0.83904350  0.32837152  1  0  -0.346452  -0.609542  0  2.20673  0
O  O53  1  0.14761815  0.16095228  0.67162694  1  0  -0.346367  -0.609462  0  2.20674  0
O  O54  1  0.10039229  0.08983481  0.34501340  1  0  -0.373555  -0.637738  0  2.169588  0
O  O55  1  0.89960094  0.91017171  0.65498276  1  0  -0.373604  -0.63782  0  2.169565  0
