# generated using pymatgen
data_KBH7C14OF15
_symmetry_space_group_name_H-M   'P 1'
_cell_length_a   8.85084612
_cell_length_b   9.03149782
_cell_length_c   11.89960835
_cell_angle_alpha   78.04743072
_cell_angle_beta   82.20852635
_cell_angle_gamma   85.29968628
_symmetry_Int_Tables_number   1
_chemical_formula_structural   KBH7C14OF15
_chemical_formula_sum   'K2 B2 H14 C28 O2 F30'
_cell_volume   920.57288601
_cell_formula_units_Z   2
loop_
 _symmetry_equiv_pos_site_id
 _symmetry_equiv_pos_as_xyz
  1  'x, y, z'
loop_
 _atom_site_type_symbol
 _atom_site_label
 _atom_site_symmetry_multiplicity
 _atom_site_fract_x
 _atom_site_fract_y
 _atom_site_fract_z
 _atom_site_occupancy
 _atom_site_hle17_bader_spin_density
 _atom_site_hle17_ddec_charge
 _atom_site_hle17_ddec_spin_density
 _atom_site_hle17_ddec_sum_bond_order
 _atom_site_hle17_magmom
 _atom_site_hse06_10hf_bader_spin_density
 _atom_site_hse06_10hf_ddec_charge
 _atom_site_hse06_10hf_ddec_spin_density
 _atom_site_hse06_10hf_ddec_sum_bond_order
 _atom_site_hse06_10hf_magmom
 _atom_site_hse06_bader_spin_density
 _atom_site_hse06_ddec_charge
 _atom_site_hse06_ddec_spin_density
 _atom_site_hse06_ddec_sum_bond_order
 _atom_site_hse06_magmom
 _atom_site_pbe_bader_spin_density
 _atom_site_pbe_cm5_charge
 _atom_site_pbe_ddec_charge
 _atom_site_pbe_ddec_spin_density
 _atom_site_pbe_ddec_sum_bond_order
 _atom_site_pbe_magmom
K  K0  1  0.78570613  0.29195783  0.02755965  1  0  0.95181  0  0.417251  0  0  0.900332  0  0.594389  0  0  0.916161  0  0.566588  0  0  0.750573  0.888342  0  0.614577  0
K  K1  1  0.21429337  0.70803398  0.97244144  1  0  0.951714  0  0.417218  0  0  0.900331  0  0.594362  0  0  0.916159  0  0.566561  0  0  0.750553  0.888333  0  0.614561  0
B  B2  1  0.20777741  0.19040761  0.18718051  1  0  0.060411  0  3.229237  0  0  -0.06006  0  3.503661  0  0  -0.057005  0  3.510614  0  0  -0.295432  -0.061893  0  3.499065  0
B  B3  1  0.79222501  0.80959325  0.81282058  1  0  0.060224  0  3.229514  0  0  -0.060044  0  3.503709  0  0  -0.05702  0  3.510647  0  0  -0.295461  -0.061878  0  3.49912  0
H  H4  1  0.30330749  0.04251176  0.33939080  1  0  0.122674  0  0.977241  0  0  0.131143  0  1.044795  0  0  0.133712  0  1.044537  0  0  0.093598  0.129258  0  1.045063  0
H  H5  1  0.69670164  0.95749140  0.66060672  1  0  0.122673  0  0.977299  0  0  0.131152  0  1.044802  0  0  0.133723  0  1.044542  0  0  0.093622  0.129268  0  1.045067  0
H  H6  1  0.41000047  0.02993075  0.20554210  1  0  0.133312  0  0.943988  0  0  0.143804  0  1.007725  0  0  0.146921  0  1.006156  0  0  0.099526  0.141533  0  1.008923  0
H  H7  1  0.59000296  0.97007239  0.79445770  1  0  0.133276  0  0.944083  0  0  0.143824  0  1.007731  0  0  0.14694  0  1.006163  0  0  0.099553  0.141552  0  1.00893  0
H  H8  1  0.69722325  0.34664049  0.32813609  1  0  0.095383  0  0.973084  0  0  0.099027  0  1.045324  0  0  0.103457  0  1.040745  0  0  0.096227  0.095819  0  1.048628  0
H  H9  1  0.30278387  0.65335810  0.67186654  1  0  0.095398  0  0.972968  0  0  0.098999  0  1.045385  0  0  0.103427  0  1.040804  0  0  0.096251  0.095791  0  1.04869  0
H  H10  1  0.73922408  0.39710902  0.51871609  1  0  0.091899  0  0.955361  0  0  0.098669  0  1.020344  0  0  0.102279  0  1.018213  0  0  0.092851  0.096028  0  1.02204  0
H  H11  1  0.26077398  0.60288841  0.48128933  1  0  0.092015  0  0.955191  0  0  0.09861  0  1.020414  0  0  0.102233  0  1.01827  0  0  0.092837  0.095972  0  1.022106  0
H  H12  1  0.55342037  0.31077966  0.69241894  1  0  0.082831  0  0.959792  0  0  0.088395  0  1.029062  0  0  0.091988  0  1.025828  0  0  0.091114  0.085791  0  1.031373  0
H  H13  1  0.44657304  0.68921895  0.30758173  1  0  0.082844  0  0.959721  0  0  0.088381  0  1.029038  0  0  0.091974  0  1.025803  0  0  0.091116  0.085778  0  1.031348  0
H  H14  1  0.32845712  0.17300848  0.67470302  1  0  0.087706  0  0.968438  0  0  0.092141  0  1.037096  0  0  0.09572  0  1.034962  0  0  0.088894  0.089584  0  1.038699  0
H  H15  1  0.67153316  0.82700490  0.32529068  1  0  0.087653  0  0.968539  0  0  0.09213  0  1.037149  0  0  0.095708  0  1.035016  0  0  0.0889  0.089574  0  1.038751  0
H  H16  1  0.28973039  0.11837815  0.48641229  1  0  0.092349  0  0.965487  0  0  0.102157  0  1.029015  0  0  0.10533  0  1.026693  0  0  0.097092  0.09986  0  1.030701  0
H  H17  1  0.71026205  0.88163749  0.51358168  1  0  0.092227  0  0.965767  0  0  0.102238  0  1.028984  0  0  0.10541  0  1.026662  0  0  0.097157  0.099933  0  1.030672  0
C  C18  1  0.08348653  0.28878346  0.26531329  1  0  0.202613  0  3.545796  0  0  0.179778  0  3.848718  0  0  0.191411  0  3.841634  0  0  0.186421  0.171368  0  3.854214  0
C  C19  1  0.91651151  0.71121402  0.73468708  1  0  0.203018  0  3.544358  0  0  0.179566  0  3.848954  0  0  0.191195  0  3.841882  0  0  0.186355  0.171155  0  3.854455  0
C  C20  1  0.11176364  0.44986183  0.28293889  1  0  0.712391  0  3.654016  0  0  0.630135  0  4.006037  0  0  0.659432  0  3.980225  0  0  0.299368  0.60907  0  4.025106  0
C  C21  1  0.88822858  0.55013790  0.71706258  1  0  0.714078  0  3.651099  0  0  0.630245  0  4.005861  0  0  0.659539  0  3.980055  0  0  0.29934  0.609185  0  4.024919  0
C  C22  1  0.11658479  0.04716210  0.16318704  1  0  0.217954  0  3.502884  0  0  0.198439  0  3.798774  0  0  0.209947  0  3.792022  0  0  0.190948  0.189909  0  3.804248  0
C  C23  1  0.88341433  0.95283650  0.83681305  1  0  0.218244  0  3.50243  0  0  0.198483  0  3.79879  0  0  0.210116  0  3.791826  0  0  0.190976  0.189949  0  3.804263  0
C  C24  1  0.01784483  0.94152626  0.26143236  1  0  0.698468  0  3.669246  0  0  0.615735  0  4.022267  0  0  0.644711  0  3.996795  0  0  0.296816  0.59517  0  4.040567  0
C  C25  1  0.98215676  0.05846895  0.73856884  1  0  0.699167  0  3.667997  0  0  0.61564  0  4.02243  0  0  0.644597  0  3.996946  0  0  0.296747  0.595077  0  4.040727  0
C  C26  1  0.26093146  0.30196701  0.06066316  1  0  0.215755  0  3.506398  0  0  0.191593  0  3.810546  0  0  0.203488  0  3.803216  0  0  0.187761  0.183001  0  3.816038  0
C  C27  1  0.73907109  0.69803158  0.93933910  1  0  0.21572  0  3.50641  0  0  0.191553  0  3.810544  0  0  0.203456  0  3.803213  0  0  0.187722  0.18296  0  3.816039  0
C  C28  1  0.35824482  0.24389015  0.95748648  1  0  0.712468  0  3.645105  0  0  0.627676  0  4.002625  0  0  0.656815  0  3.976699  0  0  0.301876  0.606944  0  4.021237  0
C  C29  1  0.64175994  0.75610959  0.04251369  1  0  0.713091  0  3.643994  0  0  0.627607  0  4.00272  0  0  0.656742  0  3.976797  0  0  0.301797  0.606874  0  4.021333  0
C  C30  1  0.35199566  0.11034678  0.25717927  1  0  -0.453051  0  3.684198  0  0  -0.475036  0  3.931078  0  0  -0.485126  0  3.940613  0  0  -0.185093  -0.467769  0  3.92421  0
C  C31  1  0.64800668  0.88965525  0.74281828  1  0  -0.453148  0  3.684503  0  0  -0.475081  0  3.931215  0  0  -0.485173  0  3.940754  0  0  -0.18516  -0.467814  0  3.924348  0
C  C32  1  0.47796819  0.20014193  0.27688554  1  0  0.513454  0  3.654333  0  0  0.49719  0  3.918752  0  0  0.521201  0  3.920224  0  0  0.165465  0.480825  0  3.917489  0
C  C33  1  0.52203979  0.79986125  0.72310958  1  0  0.513284  0  3.654626  0  0  0.49704  0  3.918996  0  0  0.521055  0  3.920471  0  0  0.16542  0.480676  0  3.917732  0
C  C34  1  0.49183335  0.22935780  0.39360653  1  0  -0.06407  0  3.754922  0  0  -0.039905  0  3.982511  0  0  -0.049119  0  4.009859  0  0  -0.025021  -0.033841  0  3.964004  0
C  C35  1  0.50816899  0.77064424  0.60639018  1  0  -0.063921  0  3.754819  0  0  -0.03983  0  3.982454  0  0  -0.049047  0  4.009803  0  0  -0.025015  -0.033768  0  3.963946  0
C  C36  1  0.61766151  0.30854406  0.40480567  1  0  -0.050846  0  3.705134  0  0  -0.077124  0  3.952658  0  0  -0.076565  0  3.973193  0  0  -0.079352  -0.077216  0  3.938626  0
C  C37  1  0.38234440  0.69145566  0.59519691  1  0  -0.050622  0  3.705007  0  0  -0.077048  0  3.952777  0  0  -0.076482  0  3.973308  0  0  -0.079315  -0.077146  0  3.938759  0
C  C38  1  0.64066137  0.33656506  0.51146386  1  0  -0.074401  0  3.769404  0  0  -0.087886  0  4.024178  0  0  -0.092414  0  4.047543  0  0  -0.094101  -0.084886  0  4.008291  0
C  C39  1  0.35933776  0.66343352  0.48853959  1  0  -0.074251  0  3.769299  0  0  -0.087799  0  4.024354  0  0  -0.092338  0  4.047717  0  0  -0.094081  -0.084801  0  4.008467  0
C  C40  1  0.53640357  0.28779623  0.60881069  1  0  -0.036376  0  3.742139  0  0  -0.055905  0  3.99768  0  0  -0.056363  0  4.020202  0  0  -0.083507  -0.055248  0  3.982125  0
C  C41  1  0.46359315  0.71220464  0.39119014  1  0  -0.036287  0  3.742057  0  0  -0.05585  0  3.997672  0  0  -0.056306  0  4.020191  0  0  -0.083492  -0.055195  0  3.98212  0
C  C42  1  0.40997075  0.21046276  0.59886151  1  0  -0.082013  0  3.76446  0  0  -0.092144  0  4.017298  0  0  -0.097388  0  4.041603  0  0  -0.097738  -0.088658  0  4.000733  0
C  C43  1  0.59002228  0.78954267  0.40113565  1  0  -0.082157  0  3.764748  0  0  -0.092242  0  4.017411  0  0  -0.097486  0  4.041718  0  0  -0.0978  -0.088756  0  4.000844  0
C  C44  1  0.38800193  0.18027563  0.49212221  1  0  -0.068551  0  3.728539  0  0  -0.095293  0  3.977965  0  0  -0.095568  0  4.001051  0  0  -0.084512  -0.094832  0  3.962219  0
C  C45  1  0.61199330  0.81973094  0.50787370  1  0  -0.068765  0  3.728895  0  0  -0.095428  0  3.978015  0  0  -0.095704  0  4.001102  0  0  -0.084619  -0.094956  0  3.962263  0
O  O46  1  0.57823870  0.24441313  0.19563073  1  0  -0.587163  0  1.984052  0  0  -0.552424  0  2.218522  0  0  -0.571866  0  2.210576  0  0  -0.41733  -0.539083  0  2.223916  0
O  O47  1  0.42176612  0.75558549  0.80436793  1  0  -0.586989  0  1.98389  0  0  -0.552348  0  2.218528  0  0  -0.571794  0  2.210585  0  0  -0.417258  -0.539005  0  2.223919  0
F  F48  1  0.94046801  0.31234812  0.22189237  1  0  -0.250122  0  1.217529  0  0  -0.217527  0  1.400044  0  0  -0.226845  0  1.38593  0  0  -0.141931  -0.210766  0  1.409838  0
F  F49  1  0.05953035  0.68764369  0.77810799  1  0  -0.249536  0  1.216626  0  0  -0.217469  0  1.400097  0  0  -0.226784  0  1.385985  0  0  -0.141911  -0.210706  0  1.409892  0
F  F50  1  0.05536067  0.20517938  0.37735296  1  0  -0.192701  0  1.202318  0  0  -0.160422  0  1.374196  0  0  -0.169331  0  1.361691  0  0  -0.103669  -0.153975  0  1.38287  0
F  F51  1  0.94463851  0.79481809  0.62264813  1  0  -0.191842  0  1.201613  0  0  -0.160369  0  1.374263  0  0  -0.169277  0  1.361759  0  0  -0.103639  -0.153921  0  1.382938  0
F  F52  1  0.25316383  0.45848063  0.31142422  1  0  -0.229131  0  1.219212  0  0  -0.180932  0  1.380545  0  0  -0.192084  0  1.366747  0  0  -0.072697  -0.172889  0  1.390189  0
F  F53  1  0.74682572  0.54152589  0.68857816  1  0  -0.228276  0  1.218331  0  0  -0.180973  0  1.380416  0  0  -0.192123  0  1.366616  0  0  -0.072721  -0.172931  0  1.390058  0
F  F54  1  0.00876877  0.49228517  0.36707269  1  0  -0.216578  0  1.153223  0  0  -0.187748  0  1.318274  0  0  -0.196443  0  1.30126  0  0  -0.091984  -0.181502  0  1.330264  0
F  F55  1  0.99122116  0.50771457  0.63292733  1  0  -0.223376  0  1.15939  0  0  -0.187718  0  1.318225  0  0  -0.196412  0  1.301214  0  0  -0.091924  -0.181473  0  1.330212  0
F  F56  1  0.09617045  0.55540837  0.18380341  1  0  -0.281152  0  1.234968  0  0  -0.252646  0  1.424819  0  0  -0.262157  0  1.405872  0  0  -0.149013  -0.245751  0  1.438098  0
F  F57  1  0.90382175  0.44459138  0.81619553  1  0  -0.280369  0  1.234257  0  0  -0.252661  0  1.424821  0  0  -0.262172  0  1.405875  0  0  -0.148995  -0.245769  0  1.438098  0
F  F58  1  0.22274880  0.94463582  0.11621115  1  0  -0.241467  0  1.203036  0  0  -0.206008  0  1.377712  0  0  -0.215483  0  1.364659  0  0  -0.129799  -0.19911  0  1.386803  0
F  F59  1  0.77725380  0.05536166  0.88378876  1  0  -0.2415  0  1.2028  0  0  -0.205973  0  1.37774  0  0  -0.215477  0  1.36464  0  0  -0.129781  -0.199074  0  1.38683  0
F  F60  1  0.01687623  0.09484057  0.07852958  1  0  -0.260434  0  1.253685  0  0  -0.230309  0  1.441586  0  0  -0.239458  0  1.427266  0  0  -0.176137  -0.223633  0  1.451574  0
F  F61  1  0.98312409  0.90515690  0.92147140  1  0  -0.260215  0  1.253068  0  0  -0.230325  0  1.441507  0  0  -0.239504  0  1.427141  0  0  -0.17615  -0.223646  0  1.451494  0
F  F62  1  0.09782309  0.87984912  0.35068034  1  0  -0.222591  0  1.18544  0  0  -0.181583  0  1.345518  0  0  -0.191234  0  1.329925  0  0  -0.083126  -0.174707  0  1.356383  0
F  F63  1  0.90218294  0.12014837  0.64931837  1  0  -0.222368  0  1.184888  0  0  -0.181522  0  1.345519  0  0  -0.191178  0  1.329934  0  0  -0.083067  -0.174646  0  1.356383  0
F  F64  1  0.88940361  0.01501952  0.30267484  1  0  -0.226958  0  1.205158  0  0  -0.186552  0  1.368524  0  0  -0.196469  0  1.353113  0  0  -0.081921  -0.179446  0  1.379181  0
F  F65  1  0.11059913  0.98497567  0.69732792  1  0  -0.22761  0  1.205151  0  0  -0.186537  0  1.36857  0  0  -0.196461  0  1.353167  0  0  -0.081911  -0.179432  0  1.379227  0
F  F66  1  0.97211365  0.82548795  0.21909366  1  0  -0.241242  0  1.196048  0  0  -0.218184  0  1.377652  0  0  -0.226599  0  1.359198  0  0  -0.101835  -0.212165  0  1.390465  0
F  F67  1  0.02789004  0.17451066  0.78090680  1  0  -0.241144  0  1.195545  0  0  -0.218183  0  1.377654  0  0  -0.226602  0  1.359208  0  0  -0.101832  -0.212164  0  1.390467  0
F  F68  1  0.34567423  0.41852126  0.07774376  1  0  -0.23613  0  1.227849  0  0  -0.203227  0  1.408562  0  0  -0.212944  0  1.396023  0  0  -0.134208  -0.196204  0  1.417201  0
F  F69  1  0.65432382  0.58147620  0.92225829  1  0  -0.23627  0  1.227816  0  0  -0.203226  0  1.408502  0  0  -0.212946  0  1.39596  0  0  -0.134192  -0.196202  0  1.417141  0
F  F70  1  0.13427565  0.37971780  0.00895759  1  0  -0.262303  0  1.201594  0  0  -0.230873  0  1.37916  0  0  -0.239794  0  1.36559  0  0  -0.143089  -0.224423  0  1.388542  0
F  F71  1  0.86572582  0.62027968  0.99104243  1  0  -0.262249  0  1.201515  0  0  -0.230854  0  1.379249  0  0  -0.239779  0  1.365678  0  0  -0.14307  -0.224404  0  1.388632  0
F  F72  1  0.48877486  0.16600212  0.98911951  1  0  -0.247654  0  1.214128  0  0  -0.212165  0  1.390723  0  0  -0.221955  0  1.373739  0  0  -0.098971  -0.205142  0  1.402498  0
F  F73  1  0.51123097  0.83399876  0.01087954  1  0  -0.247579  0  1.21383  0  0  -0.212119  0  1.390689  0  0  -0.221909  0  1.373708  0  0  -0.098925  -0.205095  0  1.402463  0
F  F74  1  0.28023676  0.15277822  0.91180503  1  0  -0.225855  0  1.197267  0  0  -0.18918  0  1.363625  0  0  -0.198448  0  1.346648  0  0  -0.082501  -0.182569  0  1.375427  0
F  F75  1  0.71976472  0.84721922  0.08820004  1  0  -0.226327  0  1.197182  0  0  -0.189162  0  1.363638  0  0  -0.19843  0  1.346662  0  0  -0.082493  -0.182551  0  1.375441  0
F  F76  1  0.40005581  0.36375186  0.87136130  1  0  -0.240294  0  1.160261  0  0  -0.203077  0  1.32121  0  0  -0.211906  0  1.304195  0  0  -0.085567  -0.196783  0  1.333063  0
F  F77  1  0.59994672  0.63624676  0.12863760  1  0  -0.240221  0  1.160023  0  0  -0.203045  0  1.321265  0  0  -0.211874  0  1.30425  0  0  -0.085529  -0.196751  0  1.333119  0
