# generated using pymatgen
data_AlH9C14NO7
_symmetry_space_group_name_H-M   'P 1'
_cell_length_a   6.66124219
_cell_length_b   15.33752444
_cell_length_c   16.86674056
_cell_angle_alpha   87.35721244
_cell_angle_beta   83.42718725
_cell_angle_gamma   76.14296309
_symmetry_Int_Tables_number   1
_chemical_formula_structural   AlH9C14NO7
_chemical_formula_sum   'Al2 H18 C28 N2 O14'
_cell_volume   1661.76257580
_cell_formula_units_Z   2
loop_
 _symmetry_equiv_pos_site_id
 _symmetry_equiv_pos_as_xyz
  1  'x, y, z'
loop_
 _atom_site_type_symbol
 _atom_site_label
 _atom_site_symmetry_multiplicity
 _atom_site_fract_x
 _atom_site_fract_y
 _atom_site_fract_z
 _atom_site_occupancy
 _atom_site_pbe_bader_charge
 _atom_site_pbe_bader_spin_density
 _atom_site_pbe_cm5_charge
 _atom_site_pbe_ddec_charge
 _atom_site_pbe_ddec_spin_density
 _atom_site_pbe_ddec_sum_bond_order
 _atom_site_pbe_magmom
Al  Al0  1  0.50000195  0.50000134  0.50000254  1  2.503857  0  0.402217  1.651257  0  2.573602  0
Al  Al1  1  0.00000569  0.50000440  0.50000000  1  2.505613  0  0.401642  1.652735  0  2.571111  0
H  H2  1  0.21606372  0.59762384  0.43504660  1  0.614492  0  0.359577  0.438516  0  0.840764  0
H  H3  1  0.78396950  0.40238004  0.56494572  1  0.614605  0  0.359593  0.438585  0  0.840606  0
H  H4  1  0.89053533  0.45744403  0.73694358  1  0.122912  0  0.106899  0.110831  0  1.008359  0
H  H5  1  0.82224190  0.46159165  0.88555948  1  0.116716  0  0.105566  0.111999  0  1.027536  0
H  H6  1  0.39347373  0.54428486  0.89597620  1  0.108677  0  0.117435  0.14004  0  0.985879  0
H  H7  1  0.60651066  0.45569447  0.10403379  1  0.107734  0  0.117449  0.140064  0  0.985883  0
H  H8  1  0.17773913  0.53839374  0.11444212  1  0.11624  0  0.10556  0.112004  0  1.027549  0
H  H9  1  0.10944976  0.54255675  0.26305597  1  0.123041  0  0.106913  0.110849  0  1.008341  0
H  H10  1  0.16287449  0.06555037  0.46240329  1  0.082086  0  0.10779  0.123941  0  1.015084  0
H  H11  1  0.83714518  0.93446164  0.53757868  1  0.081398  0  0.107788  0.123958  0  1.014996  0
H  H12  1  0.30097177  0.77325176  0.49108800  1  0.117817  0  0.104352  0.108379  0  1.029045  0
H  H13  1  0.21861502  0.93672881  0.47811511  1  0.041007  0  0.099019  0.098961  0  1.032109  0
H  H14  1  0.69902919  0.22675630  0.50891106  1  0.118051  0  0.104396  0.108424  0  1.028848  0
H  H15  1  0.78138764  0.06327923  0.52189099  1  0.041131  0  0.099017  0.099006  0  1.032157  0
H  H16  1  0.50377505  0.53540966  0.68486810  1  0.638759  0  0.315647  0.358155  0  0.958576  0
H  H17  1  0.49622786  0.46458632  0.31513968  1  0.63862  0  0.31572  0.358329  0  0.958325  0
H  H18  1  0.03823487  0.29931030  0.44780573  1  0.630269  0  0.315582  0.357877  0  0.958433  0
H  H19  1  0.96177779  0.70069772  0.55217616  1  0.630289  0  0.315485  0.357705  0  0.958475  0
C  C20  1  0.66415564  0.66151234  0.51749202  1  1.453197  0  0.263331  0.653428  0  4.082169  0
C  C21  1  0.78394608  0.50705560  0.35511563  1  1.458949  0  0.262466  0.652456  0  4.076832  0
C  C22  1  0.33585601  0.33849233  0.48250074  1  1.453059  0  0.263297  0.653475  0  4.082052  0
C  C23  1  0.21605106  0.49294845  0.64488972  1  1.458563  0  0.262482  0.652573  0  4.076603  0
C  C24  1  0.18179798  0.49598962  0.73223471  1  0.091442  0  -0.036336  -0.208822  0  3.981525  0
C  C25  1  0.00074417  0.47508419  0.77254678  1  -0.093912  0  -0.077503  -0.038526  0  3.99646  0
C  C26  1  0.96140632  0.47774723  0.85452584  1  0.015264  0  -0.095815  -0.177612  0  3.97227  0
C  C27  1  0.10550310  0.50293013  0.89882544  1  0.338397  0  0.095625  0.204456  0  4.049325  0
C  C28  1  0.28529500  0.52435307  0.86070598  1  0.038708  0  -0.088113  -0.261117  0  3.884488  0
C  C29  1  0.32639180  0.52087910  0.77738309  1  0.489504  0  0.099047  0.330343  0  4.048293  0
C  C30  1  0.71469217  0.47563228  0.13929828  1  0.039707  0  -0.08801  -0.260932  0  3.884462  0
C  C31  1  0.89448093  0.49705256  0.10117909  1  0.341158  0  0.095522  0.204224  0  4.049286  0
C  C32  1  0.03857292  0.52224152  0.14547392  1  0.012837  0  -0.095786  -0.177433  0  3.971914  0
C  C33  1  0.99924270  0.52491322  0.22745402  1  -0.094034  0  -0.077544  -0.038717  0  3.996279  0
C  C34  1  0.81818499  0.50401250  0.26776845  1  0.091426  0  -0.036335  -0.208618  0  3.981291  0
C  C35  1  0.67359334  0.47911899  0.22262310  1  0.488749  0  0.09895  0.330044  0  4.048712  0
C  C36  1  0.38521230  0.24014313  0.48208137  1  0.049512  0  -0.039641  -0.209955  0  3.999105  0
C  C37  1  0.61479853  0.75986289  0.51790663  1  0.049577  0  -0.039721  -0.20995  0  3.998989  0
C  C38  1  0.23567747  0.19220018  0.46754479  1  0.548871  0  0.097634  0.329861  0  4.055118  0
C  C39  1  0.28396292  0.09836885  0.47425605  1  -0.068885  0  -0.102076  -0.255584  0  3.914805  0
C  C40  1  0.76433391  0.80781052  0.53244179  1  0.548402  0  0.097632  0.329715  0  4.055114  0
C  C41  1  0.71604918  0.90164051  0.52573114  1  -0.067913  0  -0.102084  -0.255605  0  3.915039  0
C  C42  1  0.41848089  0.80946269  0.49954795  1  -0.023787  0  -0.079874  -0.046801  0  4.010426  0
C  C43  1  0.37262095  0.90201535  0.49288861  1  -0.016175  0  -0.102018  -0.161524  0  3.994221  0
C  C44  1  0.58152387  0.19054669  0.50044909  1  -0.024296  0  -0.079942  -0.046722  0  4.010258  0
C  C45  1  0.62738954  0.09799467  0.50710872  1  -0.015715  0  -0.102075  -0.161742  0  3.994615  0
C  C46  1  0.47728643  0.04962706  0.49530339  1  0.045904  0  0.006181  0.105988  0  3.989684  0
C  C47  1  0.52273417  0.95038358  0.50468749  1  -0.003823  0  0.006098  0.105905  0  3.989692  0
N  N48  1  0.08262864  0.50901027  0.98300855  1  -0.514515  0  -0.141838  -0.127554  0  3.2543  0
N  N49  1  0.91734888  0.49097044  0.01699757  1  -0.464631  0  -0.141708  -0.127313  0  3.254225  0
O  O50  1  0.52702197  0.62150682  0.50160616  1  -1.273063  0  -0.236067  -0.592297  0  2.348404  0
O  O51  1  0.92235108  0.52459209  0.39392598  1  -1.277433  0  -0.238238  -0.596995  0  2.347033  0
O  O52  1  0.14898706  0.38069448  0.46878659  1  -1.268633  0  -0.241698  -0.615253  0  2.368453  0
O  O53  1  0.38944294  0.50825820  0.61075794  1  -1.261023  0  -0.238736  -0.610357  0  2.375852  0
O  O54  1  0.47298606  0.37849651  0.49839572  1  -1.273179  0  -0.236019  -0.592275  0  2.34829  0
O  O55  1  0.07764783  0.47541999  0.60607479  1  -1.277483  0  -0.238239  -0.597115  0  2.346767  0
O  O56  1  0.85102255  0.61931421  0.53120846  1  -1.268537  0  -0.241652  -0.615048  0  2.368532  0
O  O57  1  0.61055480  0.49174183  0.38924815  1  -1.261307  0  -0.238703  -0.610392  0  2.375913  0
O  O58  1  0.23484799  0.54423010  0.46892783  1  -1.416473  0  -0.449191  -1.000928  0  2.203591  0
O  O59  1  0.76516222  0.45578059  0.53107245  1  -1.416813  0  -0.449218  -1.000987  0  2.203486  0
O  O60  1  0.50260444  0.54208679  0.74364420  1  -1.146876  0  -0.344404  -0.43317  0  2.27032  0
O  O61  1  0.49738370  0.45790859  0.25636552  1  -1.146289  0  -0.344425  -0.433247  0  2.270328  0
O  O62  1  0.04435423  0.23355855  0.44782787  1  -1.145908  0  -0.346513  -0.440865  0  2.278537  0
O  O63  1  0.95565281  0.76644883  0.55215788  1  -1.145835  0  -0.34639  -0.440627  0  2.278543  0
