# generated using pymatgen
data_Nd2H14C14N4O15
_symmetry_space_group_name_H-M   'P 1'
_cell_length_a   10.32796556
_cell_length_b   11.42464220
_cell_length_c   22.18461392
_cell_angle_alpha   90.00084974
_cell_angle_beta   97.76164121
_cell_angle_gamma   89.99992753
_symmetry_Int_Tables_number   1
_chemical_formula_structural   Nd2H14C14N4O15
_chemical_formula_sum   'Nd8 H56 C56 N16 O60'
_cell_volume   2593.65452466
_cell_formula_units_Z   4
loop_
 _symmetry_equiv_pos_site_id
 _symmetry_equiv_pos_as_xyz
  1  'x, y, z'
loop_
 _atom_site_type_symbol
 _atom_site_label
 _atom_site_symmetry_multiplicity
 _atom_site_fract_x
 _atom_site_fract_y
 _atom_site_fract_z
 _atom_site_occupancy
 _atom_site_pbe_bader_charge
 _atom_site_pbe_bader_spin_density
 _atom_site_pbe_cm5_charge
 _atom_site_pbe_ddec_charge
 _atom_site_pbe_ddec_spin_density
 _atom_site_pbe_ddec_sum_bond_order
 _atom_site_pbe_magmom
Nd  Nd0  1  0.88957571  0.30979017  0.77091703  1  2.227292  0  1.479073  1.97051  0  2.202073  0
Nd  Nd1  1  0.23646410  0.57013806  0.93610117  1  2.278784  0  1.517418  2.227134  0  2.075806  0
Nd  Nd2  1  0.61043194  0.80978962  0.72908202  1  2.227334  0  1.479021  1.970564  0  2.202142  0
Nd  Nd3  1  0.26354059  0.07013188  0.56389889  1  2.278741  0  1.517405  2.227095  0  2.07593  0
Nd  Nd4  1  0.11042429  0.69020955  0.22908389  1  2.227359  0  1.479063  1.970517  0  2.202111  0
Nd  Nd5  1  0.76353491  0.42986254  0.06389833  1  2.278807  0  1.517406  2.227172  0  2.075845  0
Nd  Nd6  1  0.38956902  0.19020922  0.27091716  1  2.227253  0  1.479049  1.970637  0  2.202004  0
Nd  Nd7  1  0.73645744  0.92986872  0.43610101  1  2.278718  0  1.517417  2.227093  0  2.075894  0
H  H8  1  0.03521123  0.36913846  0.93721380  1  0.650846  0  0.303837  0.397834  0  0.938404  0
H  H9  1  0.07101582  0.40374661  0.00626337  1  0.63591  0  0.314287  0.406527  0  0.907887  0
H  H10  1  0.94657189  0.58486542  0.87178854  1  0.666121  0  0.299381  0.403917  0  0.93185  0
H  H11  1  0.97664452  0.70972052  0.90217494  1  0.608425  0  0.339688  0.430304  0  0.849667  0
H  H12  1  0.26823321  0.82429540  0.97765347  1  0.609891  0  0.329352  0.412508  0  0.87437  0
H  H13  1  0.29419123  0.79602308  0.91118339  1  0.651705  0  0.299261  0.389469  0  0.942912  0
H  H14  1  0.37173516  0.38355219  0.83991135  1  0.542911  0  0.326405  0.292953  0  0.953996  0
H  H15  1  0.15424870  0.50925168  0.66012948  1  0.505631  0  0.347058  0.314062  0  0.882539  0
H  H16  1  0.54365812  0.30403601  0.70216005  1  0.115738  0  0.112309  0.169861  0  1.020132  0
H  H17  1  0.38189506  0.30981340  0.72327051  1  0.063341  0  0.097405  0.142415  0  1.008445  0
H  H18  1  0.46961222  0.44100767  0.71205081  1  0.086767  0  0.105658  0.16085  0  1.00134  0
H  H19  1  0.42744094  0.65065538  0.59014163  1  0.100643  0  0.117412  0.178168  0  0.973771  0
H  H20  1  0.28043564  0.56912264  0.56993580  1  0.046842  0  0.099322  0.144007  0  0.997006  0
H  H21  1  0.27536395  0.72488604  0.57688591  1  0.117658  0  0.110219  0.172451  0  0.9937  0
H  H22  1  0.46478974  0.86913533  0.56278380  1  0.650872  0  0.303822  0.397804  0  0.938449  0
H  H23  1  0.42898837  0.90374375  0.49373590  1  0.635886  0  0.314305  0.406539  0  0.907853  0
H  H24  1  0.55342977  0.08486396  0.62821294  1  0.666087  0  0.299407  0.403949  0  0.931803  0
H  H25  1  0.52335429  0.20971821  0.59782642  1  0.60843  0  0.339681  0.430303  0  0.849677  0
H  H26  1  0.23177854  0.32429768  0.52235031  1  0.61  0  0.329372  0.412528  0  0.874336  0
H  H27  1  0.20582539  0.29602293  0.58882137  1  0.651602  0  0.299296  0.389502  0  0.942865  0
H  H28  1  0.12826875  0.88355226  0.66008519  1  0.542757  0  0.326396  0.292931  0  0.954009  0
H  H29  1  0.34575497  0.00924639  0.83987051  1  0.505811  0  0.347069  0.314085  0  0.882528  0
H  H30  1  0.95634558  0.80403357  0.79783511  1  0.115834  0  0.112274  0.16981  0  1.020302  0
H  H31  1  0.11810879  0.80981247  0.77672502  1  0.063339  0  0.097412  0.142407  0  1.008427  0
H  H32  1  0.03039273  0.94100541  0.78794803  1  0.086582  0  0.105664  0.160834  0  1.001349  0
H  H33  1  0.07256774  0.15066293  0.90986064  1  0.100724  0  0.117416  0.178171  0  0.973725  0
H  H34  1  0.21957002  0.06912623  0.93006387  1  0.047241  0  0.099296  0.143992  0  0.997049  0
H  H35  1  0.22465356  0.22488856  0.92311566  1  0.117653  0  0.11027  0.172472  0  0.993704  0
H  H36  1  0.96479071  0.63086301  0.06278588  1  0.650878  0  0.303824  0.397802  0  0.938444  0
H  H37  1  0.92898514  0.59625398  0.99373625  1  0.635902  0  0.314268  0.406497  0  0.907891  0
H  H38  1  0.05343395  0.41513605  0.12821048  1  0.666014  0  0.299384  0.403914  0  0.931859  0
H  H39  1  0.02335644  0.29028095  0.09782424  1  0.608457  0  0.339691  0.430284  0  0.849696  0
H  H40  1  0.73178440  0.17569644  0.02235078  1  0.61005  0  0.329356  0.41246  0  0.874412  0
H  H41  1  0.70581758  0.20397664  0.08881987  1  0.651583  0  0.299274  0.38945  0  0.942923  0
H  H42  1  0.62826776  0.61644928  0.16008840  1  0.542886  0  0.326388  0.292924  0  0.954068  0
H  H43  1  0.84575031  0.49074629  0.33987003  1  0.505658  0  0.34706  0.314012  0  0.882645  0
H  H44  1  0.45634285  0.69596108  0.29784003  1  0.115758  0  0.112295  0.169877  0  1.020187  0
H  H45  1  0.61810690  0.69018457  0.27673053  1  0.063235  0  0.097408  0.142417  0  1.008441  0
H  H46  1  0.53038874  0.55899031  0.28794836  1  0.086597  0  0.10567  0.160884  0  1.001417  0
H  H47  1  0.57255121  0.34934434  0.40985611  1  0.100551  0  0.117411  0.178135  0  0.973781  0
H  H48  1  0.71955556  0.43088059  0.43006413  1  0.046907  0  0.099304  0.143997  0  0.996951  0
H  H49  1  0.72463116  0.27511543  0.42311471  1  0.117855  0  0.110211  0.172441  0  0.993613  0
H  H50  1  0.53520633  0.13086702  0.43721553  1  0.650814  0  0.303811  0.397805  0  0.938445  0
H  H51  1  0.57101162  0.09625685  0.50626367  1  0.635911  0  0.314288  0.406544  0  0.907851  0
H  H52  1  0.44656730  0.91513401  0.37178780  1  0.666019  0  0.299385  0.403883  0  0.931896  0
H  H53  1  0.47664668  0.79027976  0.40217456  1  0.608437  0  0.339665  0.43024  0  0.849763  0
H  H54  1  0.76821168  0.67569767  0.47764866  1  0.610053  0  0.329419  0.412503  0  0.874353  0
H  H55  1  0.79416874  0.70397679  0.41117874  1  0.651645  0  0.299178  0.389199  0  0.943217  0
H  H56  1  0.87172831  0.11644572  0.33991420  1  0.542803  0  0.326405  0.292949  0  0.953994  0
H  H57  1  0.65424501  0.99075070  0.16012905  1  0.505566  0  0.347074  0.314087  0  0.882522  0
H  H58  1  0.04365342  0.19596178  0.20216395  1  0.115868  0  0.112283  0.169857  0  1.020262  0
H  H59  1  0.88189119  0.19018375  0.22327410  1  0.063314  0  0.097401  0.14241  0  1.008502  0
H  H60  1  0.96960629  0.05898993  0.21205283  1  0.086681  0  0.105667  0.160865  0  1.00143  0
H  H61  1  0.92743421  0.84933767  0.09013949  1  0.1007  0  0.117416  0.178169  0  0.97375  0
H  H62  1  0.78043094  0.93087436  0.06993576  1  0.047246  0  0.099301  0.143985  0  0.99704  0
H  H63  1  0.77535032  0.77511029  0.07688324  1  0.117687  0  0.110231  0.172433  0  0.993798  0
C  C64  1  0.67710747  0.34531942  0.87762852  1  0.54346  0  0.091617  0.008001  0  3.995534  0
C  C65  1  0.55383735  0.36286953  0.89525584  1  0.345292  0  0.095506  -0.007398  0  3.911562  0
C  C66  1  0.53824860  0.34942520  0.79401064  1  0.989056  0  0.243074  0.44408  0  3.921018  0
C  C67  1  0.80954725  0.34519032  0.91303745  1  1.578083  0  0.243849  0.638933  0  4.166792  0
C  C68  1  0.49948959  0.37768575  0.95327516  1  1.637552  0  0.241163  0.646863  0  4.229565  0
C  C69  1  0.47902018  0.35065847  0.72922456  1  -0.056883  0  -0.23089  -0.480635  0  3.896423  0
C  C70  1  0.73371165  0.54557367  0.71752393  1  1.614426  0  0.209819  0.49559  0  4.263825  0
C  C71  1  0.79979459  0.59067530  0.78038781  1  1.585331  0  0.217622  0.483153  0  4.210536  0
C  C72  1  0.34318699  0.64560303  0.76038942  1  0.428145  0  0.08426  -0.007931  0  4.040285  0
C  C73  1  0.24034555  0.56741487  0.74624260  1  0.375979  0  0.082844  -0.015389  0  3.950609  0
C  C74  1  0.31234434  0.63164056  0.66130520  1  1.009614  0  0.24279  0.442149  0  3.948634  0
C  C75  1  0.40733828  0.69133745  0.81957393  1  1.630368  0  0.230436  0.628845  0  4.22526  0
C  C76  1  0.16228800  0.48818667  0.77997770  1  1.631022  0  0.227084  0.614285  0  4.253347  0
C  C77  1  0.32381997  0.64459493  0.59579814  1  -0.068147  0  -0.222781  -0.47807  0  3.895716  0
C  C78  1  0.82289433  0.84532518  0.62236864  1  0.543465  0  0.091649  0.008025  0  3.995515  0
C  C79  1  0.94615958  0.86287201  0.60474161  1  0.345048  0  0.09535  -0.007535  0  3.911516  0
C  C80  1  0.96175514  0.84942622  0.70598576  1  0.988378  0  0.243166  0.44401  0  3.921076  0
C  C81  1  0.69045554  0.84520044  0.58696112  1  1.57796  0  0.243801  0.638911  0  4.166527  0
C  C82  1  0.00050550  0.87768617  0.54671944  1  1.638091  0  0.241106  0.646825  0  4.229714  0
C  C83  1  0.02098370  0.85065661  0.77077218  1  -0.05669  0  -0.230897  -0.48052  0  3.896478  0
C  C84  1  0.76629580  0.04558607  0.78247446  1  1.614449  0  0.209838  0.495582  0  4.26357  0
C  C85  1  0.70021093  0.09067720  0.71960944  1  1.585767  0  0.217601  0.483136  0  4.210601  0
C  C86  1  0.15682070  0.14559943  0.73961185  1  0.427809  0  0.084287  -0.007914  0  4.040226  0
C  C87  1  0.25965913  0.06740807  0.75375745  1  0.375964  0  0.082875  -0.015357  0  3.950681  0
C  C88  1  0.18766628  0.13163979  0.83869704  1  1.009233  0  0.242661  0.44191  0  3.948751  0
C  C89  1  0.09267627  0.19133658  0.68042630  1  1.630729  0  0.230617  0.62899  0  4.225056  0
C  C90  1  0.33771699  0.98817773  0.72002196  1  1.630943  0  0.227025  0.614308  0  4.253438  0
C  C91  1  0.17619065  0.14459870  0.90420285  1  -0.068642  0  -0.222816  -0.478062  0  3.895668  0
C  C92  1  0.32289351  0.65468730  0.12237246  1  0.543502  0  0.091615  0.008017  0  3.995415  0
C  C93  1  0.44616361  0.63713194  0.10474379  1  0.345296  0  0.095518  -0.007395  0  3.911471  0
C  C94  1  0.46175334  0.65057715  0.20598904  1  0.989053  0  0.243059  0.444138  0  3.920876  0
C  C95  1  0.19045273  0.65481203  0.08696167  1  1.578069  0  0.243844  0.63899  0  4.166715  0
C  C96  1  0.50050843  0.62231573  0.04672338  1  1.637602  0  0.241061  0.646716  0  4.229893  0
C  C97  1  0.52098176  0.64934037  0.27077603  1  -0.056673  0  -0.23086  -0.480667  0  3.896419  0
C  C98  1  0.26629224  0.45442080  0.28247543  1  1.614638  0  0.209826  0.495657  0  4.263731  0
C  C99  1  0.20020928  0.40932442  0.21960928  1  1.585713  0  0.217603  0.483099  0  4.210768  0
C  C100  1  0.65681299  0.35439407  0.23961015  1  0.42802  0  0.084276  -0.007923  0  4.040231  0
C  C101  1  0.75965639  0.43258222  0.25375709  1  0.376083  0  0.082851  -0.015361  0  3.950503  0
C  C102  1  0.68765467  0.36835829  0.33869430  1  1.009604  0  0.242778  0.44213  0  3.94876  0
C  C103  1  0.59266268  0.30865965  0.18042479  1  1.630988  0  0.230413  0.628949  0  4.225313  0
C  C104  1  0.83771493  0.51181043  0.22002295  1  1.631265  0  0.227074  0.614358  0  4.253164  0
C  C105  1  0.67617415  0.35540654  0.40420107  1  -0.0683  0  -0.222765  -0.47804  0  3.895564  0
C  C106  1  0.17710176  0.15468242  0.37763159  1  0.543478  0  0.091582  0.007908  0  3.995455  0
C  C107  1  0.05383553  0.13713209  0.39525857  1  0.34507  0  0.095462  -0.007343  0  3.911484  0
C  C108  1  0.03824386  0.15057438  0.29401374  1  0.988373  0  0.243172  0.444122  0  3.920944  0
C  C109  1  0.30954348  0.15480628  0.41303974  1  1.577899  0  0.24387  0.639042  0  4.166484  0
C  C110  1  0.99948959  0.12231443  0.45327938  1  1.638077  0  0.241057  0.646645  0  4.229867  0
C  C111  1  0.97901628  0.14934049  0.22922693  1  -0.056818  0  -0.230898  -0.480645  0  3.89665  0
C  C112  1  0.23370615  0.95441803  0.21752613  1  1.614558  0  0.209845  0.495651  0  4.263688  0
C  C113  1  0.29978906  0.90932340  0.28039013  1  1.585668  0  0.217532  0.482983  0  4.210722  0
C  C114  1  0.84317637  0.85439592  0.26038844  1  0.427461  0  0.084256  -0.007989  0  4.04027  0
C  C115  1  0.74033987  0.93258815  0.24624206  1  0.376118  0  0.082834  -0.015366  0  3.950689  0
C  C116  1  0.81233274  0.86835905  0.16130337  1  1.009231  0  0.242683  0.441964  0  3.948703  0
C  C117  1  0.90732177  0.80866226  0.31957405  1  1.630867  0  0.230595  0.628929  0  4.225116  0
C  C118  1  0.66228299  0.01181849  0.27997716  1  1.631066  0  0.227065  0.614375  0  4.253272  0
C  C119  1  0.82381131  0.85540102  0.09579819  1  -0.068634  0  -0.222772  -0.478024  0  3.895798  0
N  N120  1  0.66485359  0.33631693  0.81511630  1  -1.237041  0  -0.389353  -0.467987  0  3.392162  0
N  N121  1  0.46947806  0.36532665  0.84154065  1  -1.303039  0  -0.365319  -0.277309  0  3.598841  0
N  N122  1  0.38655530  0.68392291  0.70760209  1  -1.176413  0  -0.37884  -0.463228  0  3.366228  0
N  N123  1  0.22299756  0.56187770  0.68351676  1  -1.302406  0  -0.368985  -0.287396  0  3.615382  0
N  N124  1  0.83515016  0.83631835  0.68488136  1  -1.236841  0  -0.389375  -0.467917  0  3.391975  0
N  N125  1  0.03052389  0.86532765  0.65845698  1  -1.302435  0  -0.365335  -0.277289  0  3.598861  0
N  N126  1  0.11345633  0.18392177  0.79239971  1  -1.175674  0  -0.378892  -0.463205  0  3.366155  0
N  N127  1  0.27700809  0.06187094  0.81648240  1  -1.302328  0  -0.368915  -0.287318  0  3.615388  0
N  N128  1  0.33514934  0.66368717  0.18488479  1  -1.237068  0  -0.389418  -0.468125  0  3.392165  0
N  N129  1  0.53052389  0.63467658  0.15845994  1  -1.303036  0  -0.365325  -0.277316  0  3.598884  0
N  N130  1  0.61344665  0.31607681  0.29239804  1  -1.176447  0  -0.378836  -0.463254  0  3.366395  0
N  N131  1  0.77700242  0.43812115  0.31648281  1  -1.302486  0  -0.368977  -0.287321  0  3.615374  0
N  N132  1  0.16484788  0.16368575  0.31511899  1  -1.236823  0  -0.389401  -0.468022  0  3.391897  0
N  N133  1  0.96947414  0.13467295  0.34154246  1  -1.302532  0  -0.36536  -0.277378  0  3.598898  0
N  N134  1  0.88654366  0.81607533  0.20760031  1  -1.175692  0  -0.378827  -0.463161  0  3.366164  0
N  N135  1  0.72299093  0.93812703  0.18351801  1  -1.30208  0  -0.368949  -0.287332  0  3.615342  0
O  O136  1  0.90653741  0.32134053  0.88489917  1  -1.180633  0  -0.353315  -0.599357  0  2.248696  0
O  O137  1  0.82413576  0.37191056  0.96902930  1  -1.209779  0  -0.418366  -0.695473  0  2.338144  0
O  O138  1  0.56936592  0.35794442  0.00348992  1  -1.206529  0  -0.402341  -0.68227  0  2.311564  0
O  O139  1  0.37943277  0.40765429  0.94771520  1  -1.202683  0  -0.416607  -0.683009  0  2.290704  0
O  O140  1  0.76730366  0.44586963  0.70046105  1  -1.177892  0  -0.38279  -0.57724  0  2.252744  0
O  O141  1  0.65057057  0.61332072  0.68865361  1  -1.182621  0  -0.378317  -0.603673  0  2.301954  0
O  O142  1  0.87458064  0.51945599  0.81292706  1  -1.191627  0  -0.340011  -0.580727  0  2.369898  0
O  O143  1  0.77681177  0.69420000  0.79529182  1  -1.176521  0  -0.358727  -0.566256  0  2.322431  0
O  O144  1  0.51762296  0.73820451  0.82062571  1  -1.15983  0  -0.355719  -0.572521  0  2.201052  0
O  O145  1  0.34443484  0.68381319  0.86557583  1  -1.230432  0  -0.413251  -0.713222  0  2.348653  0
O  O146  1  0.19287225  0.47342378  0.83735777  1  -1.236338  0  -0.400124  -0.71112  0  2.295418  0
O  O147  1  0.07150902  0.43499333  0.74704056  1  -1.184288  0  -0.374125  -0.623553  0  2.298586  0
O  O148  1  0.10567824  0.40404673  0.96720778  1  -1.278942  0  -0.639261  -0.853678  0  2.051671  0
O  O149  1  0.99954472  0.62733551  0.90753610  1  -1.267275  0  -0.616329  -0.861292  0  2.023187  0
O  O150  1  0.22386893  0.80677131  0.93709986  1  -1.24749  0  -0.602688  -0.806187  0  1.927163  0
O  O151  1  0.59346147  0.82134195  0.61510124  1  -1.180577  0  -0.353321  -0.599398  0  2.248369  0
O  O152  1  0.67586024  0.87192170  0.53097221  1  -1.209865  0  -0.418295  -0.695435  0  2.33837  0
O  O153  1  0.93063027  0.85794426  0.49650820  1  -1.206707  0  -0.402239  -0.682173  0  2.311954  0
O  O154  1  0.12056724  0.90765036  0.55228129  1  -1.202708  0  -0.416598  -0.68304  0  2.290555  0
O  O155  1  0.73269628  0.94587098  0.79953857  1  -1.177693  0  -0.38284  -0.577358  0  2.252324  0
O  O156  1  0.84944083  0.11331810  0.81134372  1  -1.182846  0  -0.37831  -0.603581  0  2.302161  0
O  O157  1  0.62541506  0.01945353  0.68707041  1  -1.191611  0  -0.340038  -0.580777  0  2.369638  0
O  O158  1  0.72319678  0.19419093  0.70470865  1  -1.176975  0  -0.358659  -0.566165  0  2.322837  0
O  O159  1  0.98239637  0.23820230  0.67937530  1  -1.160638  0  -0.355688  -0.572438  0  2.201118  0
O  O160  1  0.15558947  0.18381529  0.63442449  1  -1.230067  0  -0.413365  -0.713307  0  2.348487  0
O  O161  1  0.30712588  0.97341146  0.66264090  1  -1.236321  0  -0.400066  -0.711152  0  2.295379  0
O  O162  1  0.42849688  0.93498962  0.75295604  1  -1.184386  0  -0.374104  -0.623569  0  2.298768  0
O  O163  1  0.39432082  0.90403931  0.53279088  1  -1.279002  0  -0.639291  -0.853639  0  2.0517  0
O  O164  1  0.50045501  0.12733132  0.59246559  1  -1.267263  0  -0.616358  -0.861323  0  2.023184  0
O  O165  1  0.27614573  0.30677121  0.56290351  1  -1.2475  0  -0.602728  -0.806209  0  1.92717  0
O  O166  1  0.09346454  0.67866182  0.11510187  1  -1.180697  0  -0.353294  -0.599356  0  2.248663  0
O  O167  1  0.17586620  0.62809179  0.03097264  1  -1.209761  0  -0.418309  -0.69546  0  2.338196  0
O  O168  1  0.43063506  0.64205968  0.99651151  1  -1.206589  0  -0.402245  -0.682104  0  2.311894  0
O  O169  1  0.62056721  0.59234894  0.05228437  1  -1.202652  0  -0.416571  -0.683006  0  2.290672  0
O  O170  1  0.23269438  0.55413009  0.29953885  1  -1.17782  0  -0.382805  -0.577306  0  2.252496  0
O  O171  1  0.34943429  0.38668250  0.31134535  1  -1.182835  0  -0.378332  -0.603677  0  2.302114  0
O  O172  1  0.12542225  0.48054810  0.18707043  1  -1.19157  0  -0.34003  -0.580731  0  2.369815  0
O  O173  1  0.22319407  0.30580410  0.20470810  1  -1.176875  0  -0.358674  -0.566183  0  2.322721  0
O  O174  1  0.48238094  0.26179258  0.17937499  1  -1.160293  0  -0.355683  -0.572587  0  2.201204  0
O  O175  1  0.65556611  0.31618391  0.13442290  1  -1.230499  0  -0.413267  -0.713294  0  2.348757  0
O  O176  1  0.80712677  0.52657769  0.16264264  1  -1.236302  0  -0.400106  -0.711203  0  2.295332  0
O  O177  1  0.92849486  0.56500377  0.25295789  1  -1.184586  0  -0.374126  -0.623564  0  2.29855  0
O  O178  1  0.89432273  0.59595474  0.03279275  1  -1.278988  0  -0.639244  -0.85362  0  2.051643  0
O  O179  1  0.00045722  0.37266684  0.09246359  1  -1.267209  0  -0.616347  -0.861297  0  2.023254  0
O  O180  1  0.77614380  0.19323103  0.06290454  1  -1.247525  0  -0.602696  -0.806098  0  1.927275  0
O  O181  1  0.40653267  0.17866477  0.38489978  1  -1.180431  0  -0.353286  -0.599394  0  2.248504  0
O  O182  1  0.32413390  0.12808152  0.46902835  1  -1.209868  0  -0.418351  -0.695476  0  2.33826  0
O  O183  1  0.06936777  0.14205809  0.50349260  1  -1.206653  0  -0.402263  -0.682147  0  2.31187  0
O  O184  1  0.87942981  0.09235199  0.44771855  1  -1.202818  0  -0.416559  -0.682931  0  2.290675  0
O  O185  1  0.26730078  0.05412786  0.20046173  1  -1.177747  0  -0.382838  -0.577341  0  2.252498  0
O  O186  1  0.15056600  0.88667987  0.18865716  1  -1.182806  0  -0.378287  -0.603583  0  2.302117  0
O  O187  1  0.37458298  0.98054706  0.31293039  1  -1.191525  0  -0.34004  -0.580734  0  2.369683  0
O  O188  1  0.27680517  0.80580441  0.29529284  1  -1.177016  0  -0.358613  -0.566111  0  2.322739  0
O  O189  1  0.01760362  0.76179742  0.32062517  1  -1.160626  0  -0.355692  -0.572432  0  2.201104  0
O  O190  1  0.84440758  0.81618180  0.36557354  1  -1.230074  0  -0.413355  -0.713265  0  2.348494  0
O  O191  1  0.69287312  0.02658826  0.33735815  1  -1.236269  0  -0.400094  -0.711203  0  2.295349  0
O  O192  1  0.57150409  0.06501011  0.24704404  1  -1.18455  0  -0.374111  -0.623588  0  2.298679  0
O  O193  1  0.60567428  0.09595954  0.46720794  1  -1.278987  0  -0.639254  -0.853661  0  2.051667  0
O  O194  1  0.49954303  0.87266665  0.40753476  1  -1.267156  0  -0.616336  -0.861222  0  2.023363  0
O  O195  1  0.72384741  0.69323026  0.43709564  1  -1.247588  0  -0.602636  -0.805835  0  1.927533  0
