# generated using pymatgen
data_AgH2C2N7O4
_symmetry_space_group_name_H-M   'P 1'
_cell_length_a   5.66911955
_cell_length_b   8.55043991
_cell_length_c   15.37535350
_cell_angle_alpha   89.99940739
_cell_angle_beta   90.00072726
_cell_angle_gamma   90.00013111
_symmetry_Int_Tables_number   1
_chemical_formula_structural   AgH2C2N7O4
_chemical_formula_sum   'Ag4 H8 C8 N28 O16'
_cell_volume   745.29667506
_cell_formula_units_Z   4
loop_
 _symmetry_equiv_pos_site_id
 _symmetry_equiv_pos_as_xyz
  1  'x, y, z'
loop_
 _atom_site_type_symbol
 _atom_site_label
 _atom_site_symmetry_multiplicity
 _atom_site_fract_x
 _atom_site_fract_y
 _atom_site_fract_z
 _atom_site_occupancy
 _atom_site_hle17_bader_spin_density
 _atom_site_hle17_ddec_charge
 _atom_site_hle17_ddec_spin_density
 _atom_site_hle17_ddec_sum_bond_order
 _atom_site_hle17_magmom
 _atom_site_hse06_10hf_bader_spin_density
 _atom_site_hse06_10hf_ddec_charge
 _atom_site_hse06_10hf_ddec_spin_density
 _atom_site_hse06_10hf_ddec_sum_bond_order
 _atom_site_hse06_10hf_magmom
 _atom_site_hse06_bader_spin_density
 _atom_site_hse06_ddec_charge
 _atom_site_hse06_ddec_spin_density
 _atom_site_hse06_ddec_sum_bond_order
 _atom_site_hse06_magmom
 _atom_site_pbe_bader_spin_density
 _atom_site_pbe_cm5_charge
 _atom_site_pbe_ddec_charge
 _atom_site_pbe_ddec_spin_density
 _atom_site_pbe_ddec_sum_bond_order
 _atom_site_pbe_magmom
Ag  Ag0  1  0.75917074  0.41857732  0.56870813  1  0  0.608895  0  1.371771  0  0  0.46908  0  1.836162  0  0  0.491199  0  1.788891  0  0  0.504189  0.454231  0  1.868804  0
Ag  Ag1  1  0.74081917  0.58142966  0.06870675  1  0  0.608972  0  1.371815  0  0  0.46917  0  1.836212  0  0  0.491284  0  1.788966  0  0  0.504233  0.454325  0  1.868877  0
Ag  Ag2  1  0.25916245  0.08143064  0.43129452  1  0  0.608917  0  1.37187  0  0  0.469135  0  1.836286  0  0  0.491256  0  1.789018  0  0  0.504224  0.45429  0  1.868924  0
Ag  Ag3  1  0.24082753  0.91857594  0.93129615  1  0  0.608932  0  1.371744  0  0  0.469118  0  1.836129  0  0  0.491241  0  1.788879  0  0  0.504197  0.454269  0  1.868799  0
H  H4  1  0.13283010  0.68018865  0.74707839  1  0  0.161304  0  0.944936  0  0  0.160519  0  1.014834  0  0  0.165651  0  1.009247  0  0  0.141404  0.156673  0  1.019173  0
H  H5  1  0.36713766  0.31981196  0.24708888  1  0  0.161206  0  0.945093  0  0  0.160473  0  1.014946  0  0  0.165609  0  1.009351  0  0  0.141367  0.156631  0  1.01927  0
H  H6  1  0.63286949  0.81980743  0.25290905  1  0  0.161257  0  0.945063  0  0  0.160523  0  1.014913  0  0  0.165657  0  1.009324  0  0  0.141351  0.15667  0  1.019244  0
H  H7  1  0.86716558  0.18018914  0.75291818  1  0  0.161269  0  0.945059  0  0  0.160529  0  1.014913  0  0  0.165663  0  1.009321  0  0  0.141423  0.15669  0  1.01924  0
H  H8  1  0.16727558  0.97992131  0.67126341  1  0  0.166375  0  0.933066  0  0  0.169555  0  0.996162  0  0  0.174119  0  0.991841  0  0  0.1444  0.166163  0  0.999535  0
H  H9  1  0.33269310  0.02008419  0.17127613  1  0  0.166425  0  0.933117  0  0  0.169656  0  0.996097  0  0  0.174222  0  0.991782  0  0  0.144372  0.166255  0  0.999491  0
H  H10  1  0.66732536  0.52007715  0.32872225  1  0  0.166264  0  0.933447  0  0  0.169535  0  0.996366  0  0  0.174097  0  0.992047  0  0  0.144326  0.166137  0  0.999748  0
H  H11  1  0.83272291  0.47991335  0.82873142  1  0  0.166383  0  0.933248  0  0  0.169524  0  0.996299  0  0  0.174085  0  0.99199  0  0  0.144365  0.166126  0  0.999688  0
C  C12  1  0.23010711  0.72257184  0.69153506  1  0  -0.013374  0  3.560412  0  0  -0.073322  0  3.829604  0  0  -0.070136  0  3.839234  0  0  0.046761  -0.075796  0  3.823948  0
C  C13  1  0.26987109  0.27742978  0.19154599  1  0  -0.013135  0  3.560135  0  0  -0.073302  0  3.829532  0  0  -0.07009  0  3.839106  0  0  0.046719  -0.075753  0  3.823819  0
C  C14  1  0.73012710  0.77743023  0.30845154  1  0  -0.013034  0  3.559641  0  0  -0.073202  0  3.829037  0  0  -0.070011  0  3.838658  0  0  0.046776  -0.075662  0  3.823368  0
C  C15  1  0.76988695  0.22256064  0.80845931  1  0  -0.013177  0  3.559906  0  0  -0.073268  0  3.829256  0  0  -0.070056  0  3.838833  0  0  0.046761  -0.075724  0  3.823545  0
C  C16  1  0.24802839  0.86891671  0.65524217  1  0  -0.010611  0  3.549291  0  0  -0.060823  0  3.827779  0  0  -0.057621  0  3.839545  0  0  0.052979  -0.063316  0  3.820601  0
C  C17  1  0.25195561  0.13108675  0.15524997  1  0  -0.010768  0  3.549258  0  0  -0.060961  0  3.827778  0  0  -0.057751  0  3.839522  0  0  0.053045  -0.063444  0  3.820597  0
C  C18  1  0.74805265  0.63107370  0.34474776  1  0  -0.010696  0  3.549215  0  0  -0.060865  0  3.827647  0  0  -0.057661  0  3.839413  0  0  0.053047  -0.063349  0  3.820462  0
C  C19  1  0.75198029  0.36892703  0.84475004  1  0  -0.010816  0  3.548725  0  0  -0.060883  0  3.827192  0  0  -0.057669  0  3.838928  0  0  0.052911  -0.06339  0  3.820058  0
N  N20  1  0.37653448  0.63024031  0.64267370  1  0  0.200721  0  3.671687  0  0  0.290086  0  3.885794  0  0  0.289969  0  3.907143  0  0  -0.000278  0.289711  0  3.872245  0
N  N21  1  0.12345613  0.36976923  0.14267105  1  0  0.200422  0  3.671922  0  0  0.289856  0  3.886457  0  0  0.289876  0  3.907218  0  0  -0.000237  0.289621  0  3.872319  0
N  N22  1  0.87654766  0.86976783  0.35733114  1  0  0.200422  0  3.67193  0  0  0.289988  0  3.88594  0  0  0.289873  0  3.907281  0  0  -0.000252  0.289611  0  3.872394  0
N  N23  1  0.62345925  0.13023735  0.85732771  1  0  0.200581  0  3.672061  0  0  0.28984  0  3.886798  0  0  0.289862  0  3.907556  0  0  -0.000248  0.289607  0  3.872658  0
N  N24  1  0.48392939  0.70769196  0.57895422  1  0  -0.148285  0  2.71412  0  0  -0.167773  0  2.990348  0  0  -0.164208  0  2.995762  0  0  -0.072143  -0.170258  0  2.987152  0
N  N25  1  0.01607138  0.29231173  0.07895542  1  0  -0.148161  0  2.714443  0  0  -0.167686  0  2.990586  0  0  -0.164114  0  2.996033  0  0  -0.072089  -0.170171  0  2.987428  0
N  N26  1  0.98392333  0.79231400  0.42104722  1  0  -0.148227  0  2.714565  0  0  -0.167748  0  2.990754  0  0  -0.164177  0  2.996165  0  0  -0.07212  -0.170237  0  2.987559  0
N  N27  1  0.51607697  0.20768884  0.92104284  1  0  -0.148153  0  2.714524  0  0  -0.167635  0  2.990715  0  0  -0.164067  0  2.996164  0  0  -0.072082  -0.170116  0  2.987554  0
N  N28  1  0.40359811  0.85332175  0.58846363  1  0  0.22657  0  3.665024  0  0  0.271754  0  3.951249  0  0  0.270032  0  3.971976  0  0  -0.012904  0.272474  0  3.937409  0
N  N29  1  0.09639770  0.14668060  0.08846671  1  0  0.22676  0  3.66509  0  0  0.271934  0  3.951272  0  0  0.270218  0  3.972014  0  0  -0.012781  0.272652  0  3.93745  0
N  N30  1  0.90361061  0.64667824  0.41153548  1  0  0.226597  0  3.664841  0  0  0.271756  0  3.951051  0  0  0.27003  0  3.971775  0  0  -0.012851  0.272475  0  3.937215  0
N  N31  1  0.59640699  0.35331892  0.91153323  1  0  0.226638  0  3.664727  0  0  0.271804  0  3.950919  0  0  0.270085  0  3.971663  0  0  -0.012823  0.272524  0  3.937093  0
N  N32  1  0.48060929  0.96787550  0.53206282  1  0  -0.343766  0  2.881289  0  0  -0.341324  0  3.225991  0  0  -0.356086  0  3.229629  0  0  -0.185951  -0.330519  0  3.223132  0
N  N33  1  0.01938810  0.03213257  0.03206556  1  0  -0.344  0  2.881348  0  0  -0.34152  0  3.226034  0  0  -0.356303  0  3.229708  0  0  -0.186025  -0.33072  0  3.223214  0
N  N34  1  0.98061452  0.53213163  0.46793535  1  0  -0.343743  0  2.881445  0  0  -0.341233  0  3.226094  0  0  -0.355996  0  3.229736  0  0  -0.185881  -0.330433  0  3.223238  0
N  N35  1  0.51940150  0.46787268  0.96793662  1  0  -0.344011  0  2.88125  0  0  -0.341542  0  3.225977  0  0  -0.356325  0  3.229654  0  0  -0.186008  -0.330743  0  3.223156  0
N  N36  1  0.67222003  0.04249253  0.56598843  1  0  0.578723  0  4.0821  0  0  0.613359  0  4.370613  0  0  0.636831  0  4.381136  0  0  0.110678  0.596073  0  4.363404  0
N  N37  1  0.82778743  0.95751566  0.06598918  1  0  0.579095  0  4.081693  0  0  0.61363  0  4.370239  0  0  0.637144  0  4.380793  0  0  0.110648  0.596344  0  4.363072  0
N  N38  1  0.17220609  0.45751412  0.43401511  1  0  0.578881  0  4.081726  0  0  0.613483  0  4.370282  0  0  0.636966  0  4.380805  0  0  0.110646  0.596199  0  4.363074  0
N  N39  1  0.32779281  0.54248188  0.93400958  1  0  0.579252  0  4.081293  0  0  0.61375  0  4.369908  0  0  0.637268  0  4.380465  0  0  0.110727  0.596469  0  4.362734  0
N  N40  1  0.45412494  0.47829253  0.65384740  1  0  -0.304282  0  2.868736  0  0  -0.309277  0  3.185569  0  0  -0.326535  0  3.192088  0  0  -0.16596  -0.301821  0  3.177047  0
N  N41  1  0.04587135  0.52171447  0.15384741  1  0  -0.304265  0  2.868842  0  0  -0.313645  0  3.18152  0  0  -0.326527  0  3.192244  0  0  -0.166018  -0.301821  0  3.177211  0
N  N42  1  0.95411889  0.02171338  0.34615226  1  0  -0.304023  0  2.868994  0  0  -0.309198  0  3.185807  0  0  -0.326445  0  3.192313  0  0  -0.165995  -0.301783  0  3.177259  0
N  N43  1  0.54587353  0.97828616  0.84615328  1  0  -0.304284  0  2.868774  0  0  -0.313606  0  3.18148  0  0  -0.326485  0  3.192197  0  0  -0.166001  -0.301781  0  3.177171  0
N  N44  1  0.27877337  0.37649511  0.67414015  1  0  0.592226  0  4.068601  0  0  0.621563  0  4.365005  0  0  0.647627  0  4.375296  0  0  0.113766  0.617539  0  4.337685  0
N  N45  1  0.22123068  0.62350333  0.17413779  1  0  0.592529  0  4.06805  0  0  0.635496  0  4.344154  0  0  0.647689  0  4.375068  0  0  0.11381  0.617606  0  4.337488  0
N  N46  1  0.77875815  0.12349884  0.32586194  1  0  0.591619  0  4.068899  0  0  0.621174  0  4.365066  0  0  0.64724  0  4.375361  0  0  0.113655  0.617266  0  4.337617  0
N  N47  1  0.72122651  0.87649639  0.82586307  1  0  0.592407  0  4.067999  0  0  0.635386  0  4.344084  0  0  0.647579  0  4.374986  0  0  0.113774  0.617498  0  4.33742  0
O  O48  1  0.07013809  0.42194396  0.68631551  1  0  -0.452081  0  1.889316  0  0  -0.418424  0  2.138418  0  0  -0.434992  0  2.129324  0  0  -0.169557  -0.411466  0  2.138608  0
O  O49  1  0.42986991  0.57804723  0.18631374  1  0  -0.452196  0  1.888951  0  0  -0.423131  0  2.132073  0  0  -0.434995  0  2.129029  0  0  -0.169573  -0.411491  0  2.138357  0
O  O50  1  0.57011171  0.07804031  0.31368885  1  0  -0.451885  0  1.889162  0  0  -0.418219  0  2.138092  0  0  -0.434833  0  2.129061  0  0  -0.169482  -0.411304  0  2.138246  0
O  O51  1  0.92987078  0.92194929  0.81368810  1  0  -0.452146  0  1.888967  0  0  -0.423084  0  2.132068  0  0  -0.434969  0  2.129064  0  0  -0.16954  -0.411436  0  2.138338  0
O  O52  1  0.34257328  0.23741102  0.68121242  1  0  -0.404755  0  1.75476  0  0  -0.398494  0  1.975844  0  0  -0.413128  0  1.972078  0  0  -0.164303  -0.392808  0  1.972288  0
O  O53  1  0.15744336  0.76259430  0.18120764  1  0  -0.404911  0  1.754617  0  0  -0.403253  0  1.969593  0  0  -0.413202  0  1.972024  0  0  -0.16432  -0.392883  0  1.972247  0
O  O54  1  0.84253890  0.26259121  0.31878737  1  0  -0.404506  0  1.754952  0  0  -0.39837  0  1.975977  0  0  -0.412993  0  1.972205  0  0  -0.164266  -0.392722  0  1.972377  0
O  O55  1  0.65742788  0.73740883  0.81879162  1  0  -0.404851  0  1.754557  0  0  -0.403163  0  1.969484  0  0  -0.413109  0  1.971911  0  0  -0.164297  -0.392792  0  1.972137  0
O  O56  1  0.75895953  0.00476406  0.63733475  1  0  -0.406551  0  1.818441  0  0  -0.3941  0  2.037267  0  0  -0.407014  0  2.034045  0  0  -0.156139  -0.384306  0  2.039319  0
O  O57  1  0.74104157  0.99523464  0.13733682  1  0  -0.40671  0  1.818385  0  0  -0.394232  0  2.037179  0  0  -0.407173  0  2.03402  0  0  -0.156135  -0.384426  0  2.039278  0
O  O58  1  0.25896619  0.49522986  0.36266790  1  0  -0.406576  0  1.818269  0  0  -0.39412  0  2.03708  0  0  -0.407049  0  2.033868  0  0  -0.156077  -0.384323  0  2.039132  0
O  O59  1  0.24104435  0.50476277  0.86266024  1  0  -0.406797  0  1.818269  0  0  -0.394278  0  2.037041  0  0  -0.40722  0  2.033877  0  0  -0.156158  -0.384474  0  2.039144  0
O  O60  1  0.75276629  0.14977757  0.51805445  1  0  -0.45109  0  1.906187  0  0  -0.432391  0  2.183897  0  0  -0.44574  0  2.170627  0  0  -0.186961  -0.422611  0  2.19327  0
O  O61  1  0.74722717  0.85022683  0.01805609  1  0  -0.451251  0  1.90597  0  0  -0.432505  0  2.183769  0  0  -0.445868  0  2.170413  0  0  -0.186983  -0.422719  0  2.193056  0
O  O62  1  0.25276245  0.35021283  0.48195142  1  0  -0.451241  0  1.905909  0  0  -0.432553  0  2.183665  0  0  -0.44591  0  2.170393  0  0  -0.187077  -0.422769  0  2.193039  0
O  O63  1  0.24723457  0.64976942  0.98194489  1  0  -0.451283  0  1.905673  0  0  -0.432547  0  2.183541  0  0  -0.445914  0  2.170186  0  0  -0.18704  -0.422763  0  2.192827  0
