# generated using pymatgen
data_LiH7C6O7
_symmetry_space_group_name_H-M   'P 1'
_cell_length_a   7.44422520
_cell_length_b   9.14317958
_cell_length_c   11.22584414
_cell_angle_alpha   90.00001935
_cell_angle_beta   90.00028559
_cell_angle_gamma   108.24237332
_symmetry_Int_Tables_number   1
_chemical_formula_structural   LiH7C6O7
_chemical_formula_sum   'Li4 H28 C24 O28'
_cell_volume   725.67282080
_cell_formula_units_Z   4
loop_
 _symmetry_equiv_pos_site_id
 _symmetry_equiv_pos_as_xyz
  1  'x, y, z'
loop_
 _atom_site_type_symbol
 _atom_site_label
 _atom_site_symmetry_multiplicity
 _atom_site_fract_x
 _atom_site_fract_y
 _atom_site_fract_z
 _atom_site_occupancy
 _atom_site_hle17_bader_spin_density
 _atom_site_hle17_ddec_charge
 _atom_site_hle17_ddec_spin_density
 _atom_site_hle17_ddec_sum_bond_order
 _atom_site_hle17_magmom
 _atom_site_hse06_10hf_bader_spin_density
 _atom_site_hse06_10hf_ddec_charge
 _atom_site_hse06_10hf_ddec_spin_density
 _atom_site_hse06_10hf_ddec_sum_bond_order
 _atom_site_hse06_10hf_magmom
 _atom_site_hse06_bader_spin_density
 _atom_site_hse06_ddec_charge
 _atom_site_hse06_ddec_spin_density
 _atom_site_hse06_ddec_sum_bond_order
 _atom_site_hse06_magmom
 _atom_site_pbe_bader_spin_density
 _atom_site_pbe_cm5_charge
 _atom_site_pbe_ddec_charge
 _atom_site_pbe_ddec_spin_density
 _atom_site_pbe_ddec_sum_bond_order
 _atom_site_pbe_magmom
Li  Li0  1  0.10631996  0.09395583  0.12389109  1  0  0.870433  0  0.343024  0  0  0.822202  0  0.456083  0  0  0.832669  0  0.439019  0  0  0.456473  0.814565  0  0.468428  0
Li  Li1  1  0.89367948  0.40604234  0.62389047  1  0  0.870444  0  0.343003  0  0  0.822207  0  0.456069  0  0  0.832673  0  0.439005  0  0  0.456471  0.814573  0  0.468417  0
Li  Li2  1  0.89367842  0.90604300  0.87610765  1  0  0.870432  0  0.343015  0  0  0.822202  0  0.456081  0  0  0.832667  0  0.43902  0  0  0.456483  0.814569  0  0.468429  0
Li  Li3  1  0.10632202  0.59395765  0.37611095  1  0  0.870444  0  0.343004  0  0  0.822208  0  0.456069  0  0  0.832674  0  0.439006  0  0  0.456473  0.814574  0  0.468419  0
H  H4  1  0.71951027  0.18153417  0.18375042  1  0  0.144715  0  0.918691  0  0  0.155164  0  0.977546  0  0  0.158495  0  0.975607  0  0  0.117492  0.152524  0  0.97943  0
H  H5  1  0.28049048  0.31847336  0.68375488  1  0  0.144732  0  0.918657  0  0  0.155158  0  0.977512  0  0  0.158487  0  0.975586  0  0  0.117522  0.152531  0  0.979386  0
H  H6  1  0.28049124  0.81846582  0.81624922  1  0  0.144764  0  0.918685  0  0  0.155193  0  0.977525  0  0  0.158523  0  0.975587  0  0  0.11751  0.152556  0  0.979409  0
H  H7  1  0.71950742  0.68152777  0.31624654  1  0  0.144719  0  0.918689  0  0  0.155149  0  0.977537  0  0  0.158481  0  0.975606  0  0  0.117503  0.152522  0  0.979411  0
H  H8  1  0.79900852  0.38472552  0.18706882  1  0  0.150904  0  0.943435  0  0  0.155982  0  1.015043  0  0  0.159933  0  1.012309  0  0  0.116358  0.153136  0  1.017064  0
H  H9  1  0.20098869  0.11527970  0.68706850  1  0  0.150924  0  0.943501  0  0  0.155982  0  1.01509  0  0  0.159929  0  1.012352  0  0  0.116374  0.153142  0  1.017107  0
H  H10  1  0.20099389  0.61527332  0.81292993  1  0  0.150925  0  0.943455  0  0  0.155961  0  1.015089  0  0  0.159908  0  1.012353  0  0  0.116356  0.153121  0  1.017106  0
H  H11  1  0.79900921  0.88472143  0.31293203  1  0  0.150959  0  0.943441  0  0  0.156004  0  1.015053  0  0  0.159951  0  1.012314  0  0  0.116369  0.153166  0  1.017068  0
H  H12  1  0.71183215  0.44255249  0.41412243  1  0  0.397851  0  0.848876  0  0  0.379605  0  0.907061  0  0  0.389035  0  0.896051  0  0  0.327591  0.372728  0  0.915324  0
H  H13  1  0.28816976  0.05744643  0.91412239  1  0  0.397884  0  0.848816  0  0  0.379622  0  0.907019  0  0  0.389062  0  0.895994  0  0  0.32759  0.372748  0  0.915275  0
H  H14  1  0.28816935  0.55744750  0.58587721  1  0  0.397859  0  0.848871  0  0  0.379613  0  0.907053  0  0  0.389044  0  0.89604  0  0  0.327591  0.372735  0  0.915313  0
H  H15  1  0.71183309  0.94255356  0.08587814  1  0  0.397844  0  0.848892  0  0  0.379583  0  0.907091  0  0  0.389022  0  0.896068  0  0  0.327591  0.372711  0  0.915342  0
H  H16  1  0.63406321  0.04130283  0.37397738  1  0  0.127591  0  0.944852  0  0  0.138574  0  1.007978  0  0  0.140684  0  1.007893  0  0  0.107381  0.137013  0  1.008174  0
H  H17  1  0.36593745  0.45869713  0.87398216  1  0  0.127618  0  0.94481  0  0  0.138612  0  1.007907  0  0  0.14072  0  1.007825  0  0  0.107403  0.137054  0  1.008108  0
H  H18  1  0.36593652  0.95869600  0.62602137  1  0  0.127611  0  0.944831  0  0  0.138576  0  1.007971  0  0  0.140685  0  1.007885  0  0  0.107378  0.137015  0  1.00817  0
H  H19  1  0.63406270  0.54130285  0.12601926  1  0  0.127583  0  0.944826  0  0  0.138574  0  1.00794  0  0  0.140682  0  1.007859  0  0  0.107394  0.137018  0  1.008139  0
H  H20  1  0.57332658  0.16895538  0.47180781  1  0  0.147261  0  0.94009  0  0  0.15569  0  1.006004  0  0  0.159292  0  1.004054  0  0  0.116989  0.153169  0  1.007385  0
H  H21  1  0.42667448  0.33104369  0.97181186  1  0  0.147276  0  0.940034  0  0  0.155703  0  1.00594  0  0  0.159305  0  1.003987  0  0  0.11699  0.153189  0  1.00732  0
H  H22  1  0.42667358  0.83104461  0.52819005  1  0  0.147268  0  0.940066  0  0  0.155708  0  1.005954  0  0  0.15931  0  1.004003  0  0  0.11699  0.15319  0  1.007333  0
H  H23  1  0.57332389  0.66895514  0.02818868  1  0  0.147299  0  0.939992  0  0  0.155728  0  1.005893  0  0  0.159333  0  1.003943  0  0  0.117006  0.153212  0  1.007276  0
H  H24  1  0.84560397  0.92693544  0.61612268  1  0  0.411587  0  0.871829  0  0  0.377807  0  0.954075  0  0  0.390266  0  0.940907  0  0  0.313596  0.369067  0  0.96325  0
H  H25  1  0.15439291  0.57306453  0.11612434  1  0  0.411603  0  0.871769  0  0  0.377772  0  0.954092  0  0  0.390269  0  0.940864  0  0  0.313601  0.369034  0  0.963263  0
H  H26  1  0.15439350  0.07306453  0.38387607  1  0  0.411604  0  0.871759  0  0  0.377776  0  0.95408  0  0  0.390273  0  0.940852  0  0  0.313591  0.369037  0  0.963248  0
H  H27  1  0.84560681  0.42693430  0.88387708  1  0  0.411598  0  0.871797  0  0  0.37775  0  0.954139  0  0  0.390246  0  0.940915  0  0  0.31358  0.369015  0  0.963303  0
H  H28  1  0.33921723  0.37637434  0.32684552  1  0  0.416371  0  0.870142  0  0  0.381071  0  0.952165  0  0  0.395036  0  0.937542  0  0  0.308808  0.371334  0  0.962242  0
H  H29  1  0.66078125  0.12362434  0.82684583  1  0  0.416368  0  0.870163  0  0  0.381034  0  0.952229  0  0  0.395016  0  0.937588  0  0  0.308798  0.3713  0  0.9623  0
H  H30  1  0.66078205  0.62362334  0.67315234  1  0  0.416324  0  0.870233  0  0  0.381059  0  0.952194  0  0  0.395027  0  0.937568  0  0  0.308805  0.371319  0  0.962277  0
H  H31  1  0.33921444  0.87637448  0.17315470  1  0  0.416346  0  0.870147  0  0  0.381043  0  0.952159  0  0  0.395025  0  0.93752  0  0  0.308781  0.371309  0  0.962233  0
C  C32  1  0.51286578  0.28199345  0.24060105  1  0  0.736946  0  3.736166  0  0  0.690454  0  4.038857  0  0  0.722784  0  4.030114  0  0  0.240719  0.66837  0  4.044313  0
C  C33  1  0.48713149  0.21800731  0.74060260  1  0  0.736927  0  3.736242  0  0  0.690414  0  4.038877  0  0  0.722776  0  4.030123  0  0  0.240671  0.668347  0  4.04432  0
C  C34  1  0.48713573  0.71800654  0.75939858  1  0  0.736887  0  3.736225  0  0  0.690408  0  4.038854  0  0  0.722741  0  4.030112  0  0  0.240704  0.668327  0  4.044311  0
C  C35  1  0.51286507  0.78199381  0.25939704  1  0  0.736999  0  3.736234  0  0  0.690446  0  4.038944  0  0  0.722807  0  4.030187  0  0  0.240694  0.668373  0  4.044396  0
C  C36  1  0.71542675  0.28147232  0.23578304  1  0  -0.373994  0  3.617254  0  0  -0.417607  0  3.856423  0  0  -0.424891  0  3.861602  0  0  -0.16084  -0.412289  0  3.852788  0
C  C37  1  0.28457361  0.21852959  0.73578570  1  0  -0.374105  0  3.61743  0  0  -0.417617  0  3.85648  0  0  -0.424896  0  3.861645  0  0  -0.160877  -0.412311  0  3.852838  0
C  C38  1  0.28457432  0.71852652  0.76421571  1  0  -0.374156  0  3.61742  0  0  -0.417658  0  3.856453  0  0  -0.424934  0  3.861625  0  0  -0.160861  -0.412337  0  3.852819  0
C  C39  1  0.71542429  0.78147153  0.26421394  1  0  -0.374121  0  3.617359  0  0  -0.417649  0  3.856479  0  0  -0.424925  0  3.861643  0  0  -0.160844  -0.412347  0  3.852837  0
C  C40  1  0.80989066  0.28044306  0.35780431  1  0  0.265201  0  3.563072  0  0  0.264423  0  3.808739  0  0  0.267937  0  3.820109  0  0  0.082566  0.261923  0  3.800884  0
C  C41  1  0.19010851  0.21955686  0.85780666  1  0  0.265243  0  3.56305  0  0  0.264408  0  3.808752  0  0  0.267927  0  3.820115  0  0  0.082571  0.261904  0  3.800906  0
C  C42  1  0.19010949  0.71955693  0.64219533  1  0  0.265293  0  3.56297  0  0  0.264463  0  3.808654  0  0  0.267978  0  3.820019  0  0  0.082537  0.261952  0  3.800812  0
C  C43  1  0.80988939  0.78044427  0.14219387  1  0  0.265258  0  3.562987  0  0  0.264413  0  3.808676  0  0  0.26793  0  3.82004  0  0  0.08253  0.261911  0  3.800829  0
C  C44  1  0.69319432  0.14114093  0.43156247  1  0  -0.380034  0  3.650349  0  0  -0.426134  0  3.890585  0  0  -0.433838  0  3.897791  0  0  -0.167264  -0.420748  0  3.885822  0
C  C45  1  0.30680727  0.35886033  0.93156435  1  0  -0.380051  0  3.650182  0  0  -0.426129  0  3.890399  0  0  -0.433829  0  3.8976  0  0  -0.167281  -0.420757  0  3.885657  0
C  C46  1  0.30680537  0.85886135  0.56843806  1  0  -0.380062  0  3.650296  0  0  -0.426127  0  3.890536  0  0  -0.433829  0  3.897739  0  0  -0.167249  -0.420746  0  3.885783  0
C  C47  1  0.69319423  0.64113965  0.06843529  1  0  -0.380049  0  3.650157  0  0  -0.426129  0  3.890384  0  0  -0.433836  0  3.897595  0  0  -0.167281  -0.420759  0  3.885641  0
C  C48  1  0.80822371  0.10160537  0.52942612  1  0  0.741696  0  3.74496  0  0  0.691845  0  4.048039  0  0  0.725115  0  4.038199  0  0  0.242793  0.669084  0  4.054269  0
C  C49  1  0.19177670  0.39839371  0.02942800  1  0  0.741636  0  3.744971  0  0  0.691793  0  4.048033  0  0  0.725065  0  4.038193  0  0  0.242795  0.669033  0  4.054262  0
C  C50  1  0.19177466  0.89839346  0.47057441  1  0  0.741697  0  3.745055  0  0  0.691832  0  4.048141  0  0  0.725108  0  4.038301  0  0  0.242782  0.669072  0  4.054369  0
C  C51  1  0.80822345  0.60160627  0.97057253  1  0  0.741741  0  3.74496  0  0  0.691886  0  4.048018  0  0  0.72515  0  4.038187  0  0  0.242836  0.669134  0  4.054244  0
C  C52  1  0.00929212  0.26750150  0.33518821  1  0  0.653184  0  3.800194  0  0  0.60341  0  4.095137  0  0  0.635482  0  4.08733  0  0  0.241476  0.581599  0  4.099896  0
C  C53  1  0.99071268  0.23249953  0.83518875  1  0  0.653223  0  3.799985  0  0  0.603425  0  4.094979  0  0  0.635496  0  4.087171  0  0  0.241519  0.581621  0  4.099733  0
C  C54  1  0.99071251  0.73249965  0.66481143  1  0  0.6532  0  3.800013  0  0  0.603438  0  4.094975  0  0  0.635511  0  4.087165  0  0  0.241525  0.581635  0  4.099732  0
C  C55  1  0.00928569  0.76749930  0.16481178  1  0  0.65317  0  3.800086  0  0  0.603438  0  4.094995  0  0  0.635509  0  4.087189  0  0  0.241503  0.581633  0  4.099752  0
O  O56  1  0.48239804  0.37719633  0.32263048  1  0  -0.579358  0  2.071709  0  0  -0.514167  0  2.282391  0  0  -0.538123  0  2.266857  0  0  -0.316518  -0.497676  0  2.293035  0
O  O57  1  0.51760218  0.12280349  0.82263121  1  0  -0.579351  0  2.071733  0  0  -0.514071  0  2.282356  0  0  -0.538124  0  2.266876  0  0  -0.316489  -0.497612  0  2.293022  0
O  O58  1  0.51760302  0.62280250  0.67736826  1  0  -0.579313  0  2.071701  0  0  -0.51416  0  2.282365  0  0  -0.538129  0  2.266838  0  0  -0.316514  -0.497663  0  2.293015  0
O  O59  1  0.48239663  0.87719648  0.17737021  1  0  -0.579371  0  2.071737  0  0  -0.514084  0  2.282339  0  0  -0.538136  0  2.266861  0  0  -0.316485  -0.497621  0  2.293003  0
O  O60  1  0.39095781  0.20537006  0.17144435  1  0  -0.611257  0  1.958588  0  0  -0.575844  0  2.196097  0  0  -0.595104  0  2.186065  0  0  -0.315141  -0.562565  0  2.202797  0
O  O61  1  0.60904022  0.29463053  0.67144454  1  0  -0.611281  0  1.958542  0  0  -0.575864  0  2.196024  0  0  -0.595116  0  2.185976  0  0  -0.315149  -0.562584  0  2.202718  0
O  O62  1  0.60904370  0.79462993  0.82855351  1  0  -0.611194  0  1.958612  0  0  -0.575794  0  2.196113  0  0  -0.595054  0  2.18608  0  0  -0.315133  -0.562512  0  2.202814  0
O  O63  1  0.39095859  0.70536945  0.32855510  1  0  -0.611272  0  1.958557  0  0  -0.575857  0  2.196086  0  0  -0.595111  0  2.186037  0  0  -0.315146  -0.562576  0  2.202782  0
O  O64  1  0.76057275  0.95232723  0.55258077  1  0  -0.545598  0  2.078242  0  0  -0.484246  0  2.291416  0  0  -0.507547  0  2.278574  0  0  -0.319017  -0.467927  0  2.299735  0
O  O65  1  0.23942628  0.54767259  0.05258271  1  0  -0.545603  0  2.078244  0  0  -0.484242  0  2.291502  0  0  -0.507571  0  2.2786  0  0  -0.319031  -0.467922  0  2.299815  0
O  O66  1  0.23942784  0.04767391  0.44741976  1  0  -0.545614  0  2.078108  0  0  -0.484251  0  2.291377  0  0  -0.507583  0  2.278478  0  0  -0.319028  -0.467933  0  2.299693  0
O  O67  1  0.76057479  0.45232625  0.94741871  1  0  -0.545625  0  2.078177  0  0  -0.484247  0  2.291468  0  0  -0.507575  0  2.278566  0  0  -0.319025  -0.467931  0  2.29978  0
O  O68  1  0.93551352  0.20084133  0.58181350  1  0  -0.624193  0  1.980008  0  0  -0.582436  0  2.217081  0  0  -0.603216  0  2.207976  0  0  -0.324085  -0.568069  0  2.223054  0
O  O69  1  0.06448599  0.29915789  0.08181404  1  0  -0.624176  0  1.980001  0  0  -0.582408  0  2.217044  0  0  -0.603192  0  2.207941  0  0  -0.324091  -0.568038  0  2.22301  0
O  O70  1  0.06448394  0.79915864  0.41818703  1  0  -0.624185  0  1.980104  0  0  -0.582416  0  2.21718  0  0  -0.603204  0  2.208081  0  0  -0.324064  -0.568051  0  2.223151  0
O  O71  1  0.93551238  0.70084094  0.91818560  1  0  -0.624223  0  1.980023  0  0  -0.582462  0  2.217097  0  0  -0.603233  0  2.20799  0  0  -0.324105  -0.568097  0  2.223064  0
O  O72  1  0.01670986  0.13471054  0.30791809  1  0  -0.669132  0  2.041645  0  0  -0.62095  0  2.28625  0  0  -0.644133  0  2.275495  0  0  -0.325984  -0.604845  0  2.293376  0
O  O73  1  0.98328976  0.36529154  0.80791775  1  0  -0.669174  0  2.041505  0  0  -0.620973  0  2.286138  0  0  -0.644157  0  2.275385  0  0  -0.326024  -0.604872  0  2.293267  0
O  O74  1  0.98328895  0.86528943  0.69208244  1  0  -0.669148  0  2.04156  0  0  -0.621001  0  2.286171  0  0  -0.644166  0  2.275426  0  0  -0.326006  -0.604898  0  2.293305  0
O  O75  1  0.01670905  0.63470843  0.19208189  1  0  -0.669124  0  2.04169  0  0  -0.620947  0  2.286281  0  0  -0.64413  0  2.27553  0  0  -0.325975  -0.604844  0  2.293412  0
O  O76  1  0.14968856  0.38893678  0.34536498  1  0  -0.635014  0  2.051574  0  0  -0.583656  0  2.284751  0  0  -0.606792  0  2.273474  0  0  -0.334062  -0.567587  0  2.292135  0
O  O77  1  0.85031094  0.11106426  0.84536502  1  0  -0.635002  0  2.05151  0  0  -0.583647  0  2.284734  0  0  -0.60678  0  2.273443  0  0  -0.334055  -0.567575  0  2.29211  0
O  O78  1  0.85031025  0.61106320  0.65463377  1  0  -0.634981  0  2.051499  0  0  -0.583664  0  2.284689  0  0  -0.606802  0  2.273411  0  0  -0.334069  -0.567591  0  2.292073  0
O  O79  1  0.14968830  0.88893687  0.15463373  1  0  -0.634985  0  2.051419  0  0  -0.583681  0  2.284617  0  0  -0.606813  0  2.273324  0  0  -0.334062  -0.567607  0  2.291993  0
O  O80  1  0.83375657  0.42237524  0.42170692  1  0  -0.645169  0  2.072452  0  0  -0.611174  0  2.308933  0  0  -0.62307  0  2.293923  0  0  -0.409348  -0.602805  0  2.31966  0
O  O81  1  0.16624224  0.07762599  0.92170647  1  0  -0.645166  0  2.072499  0  0  -0.611171  0  2.309019  0  0  -0.623064  0  2.293992  0  0  -0.409312  -0.602797  0  2.319737  0
O  O82  1  0.16624402  0.57762590  0.57829272  1  0  -0.645201  0  2.072517  0  0  -0.611195  0  2.309006  0  0  -0.623091  0  2.293991  0  0  -0.409323  -0.60282  0  2.319732  0
O  O83  1  0.83375388  0.92237398  0.07829406  1  0  -0.645159  0  2.072542  0  0  -0.61115  0  2.309051  0  0  -0.623042  0  2.294025  0  0  -0.409327  -0.602778  0  2.319767  0
