# generated using pymatgen
data_HgH16C22(N2Cl)2
_symmetry_space_group_name_H-M   'P 1'
_cell_length_a   5.07719183
_cell_length_b   7.41835939
_cell_length_c   26.59949631
_cell_angle_alpha   91.90190599
_cell_angle_beta   89.99921861
_cell_angle_gamma   89.99963337
_symmetry_Int_Tables_number   1
_chemical_formula_structural   HgH16C22(N2Cl)2
_chemical_formula_sum   'Hg2 H32 C44 N8 Cl4'
_cell_volume   1001.30305583
_cell_formula_units_Z   2
loop_
 _symmetry_equiv_pos_site_id
 _symmetry_equiv_pos_as_xyz
  1  'x, y, z'
loop_
 _atom_site_type_symbol
 _atom_site_label
 _atom_site_symmetry_multiplicity
 _atom_site_fract_x
 _atom_site_fract_y
 _atom_site_fract_z
 _atom_site_occupancy
 _atom_site_hle17_bader_spin_density
 _atom_site_hle17_ddec_charge
 _atom_site_hle17_ddec_spin_density
 _atom_site_hle17_ddec_sum_bond_order
 _atom_site_hle17_magmom
 _atom_site_hse06_10hf_bader_spin_density
 _atom_site_hse06_10hf_ddec_charge
 _atom_site_hse06_10hf_ddec_spin_density
 _atom_site_hse06_10hf_ddec_sum_bond_order
 _atom_site_hse06_10hf_magmom
 _atom_site_hse06_bader_spin_density
 _atom_site_hse06_ddec_charge
 _atom_site_hse06_ddec_spin_density
 _atom_site_hse06_ddec_sum_bond_order
 _atom_site_hse06_magmom
 _atom_site_pbe_bader_spin_density
 _atom_site_pbe_cm5_charge
 _atom_site_pbe_ddec_charge
 _atom_site_pbe_ddec_spin_density
 _atom_site_pbe_ddec_sum_bond_order
 _atom_site_pbe_magmom
Hg  Hg0  1  0.89436960  0.75000010  0.74999694  1  0  0.750675  0  2.093226  0  0  0.584701  0  2.595954  0  0  0.632393  0  2.565502  0  0  0.51796  0.55216  0  2.616073  0
Hg  Hg1  1  0.10563096  0.24999458  0.25000390  1  0  0.750658  0  2.093303  0  0  0.58469  0  2.596014  0  0  0.632378  0  2.565568  0  0  0.51799  0.552145  0  2.616152  0
H  H2  1  0.61566291  0.36953647  0.78764705  1  0  0.080299  0  0.955025  0  0  0.083737  0  1.027797  0  0  0.086786  0  1.024689  0  0  0.103176  0.081513  0  1.030047  0
H  H3  1  0.61565297  0.13045194  0.71235083  1  0  0.080324  0  0.955014  0  0  0.083742  0  1.027791  0  0  0.086789  0  1.024689  0  0  0.103181  0.081517  0  1.030039  0
H  H4  1  0.38433568  0.63044583  0.21235583  1  0  0.08037  0  0.955116  0  0  0.083807  0  1.02788  0  0  0.086853  0  1.024779  0  0  0.103181  0.08158  0  1.030131  0
H  H5  1  0.38438107  0.86954427  0.28764815  1  0  0.080297  0  0.955084  0  0  0.083712  0  1.027873  0  0  0.086756  0  1.024772  0  0  0.103149  0.081487  0  1.030123  0
H  H6  1  0.25955713  0.25810444  0.84380516  1  0  0.106313  0  0.974236  0  0  0.11604  0  1.034917  0  0  0.119373  0  1.033694  0  0  0.09557  0.113617  0  1.036078  0
H  H7  1  0.25954221  0.24188533  0.65619592  1  0  0.106325  0  0.974307  0  0  0.116007  0  1.035029  0  0  0.119347  0  1.033795  0  0  0.095561  0.113587  0  1.036187  0
H  H8  1  0.74043555  0.74188310  0.15619932  1  0  0.106341  0  0.974233  0  0  0.116046  0  1.034937  0  0  0.11938  0  1.033713  0  0  0.09557  0.11362  0  1.0361  0
H  H9  1  0.74050168  0.75811504  0.34380200  1  0  0.106282  0  0.974342  0  0  0.115998  0  1.035022  0  0  0.119358  0  1.033767  0  0  0.095532  0.113572  0  1.036189  0
H  H10  1  0.01562588  0.48463095  0.89987790  1  0  0.10324  0  0.944235  0  0  0.113225  0  1.006949  0  0  0.116456  0  1.004243  0  0  0.109975  0.11092  0  1.008801  0
H  H11  1  0.01560732  0.01536789  0.60012509  1  0  0.10319  0  0.944228  0  0  0.113178  0  1.006944  0  0  0.116409  0  1.004239  0  0  0.109958  0.110875  0  1.008796  0
H  H12  1  0.98437271  0.51536741  0.10012638  1  0  0.103206  0  0.944265  0  0  0.113244  0  1.00693  0  0  0.116472  0  1.00423  0  0  0.109995  0.110938  0  1.008784  0
H  H13  1  0.98440900  0.98464574  0.39987532  1  0  0.103223  0  0.944294  0  0  0.113193  0  1.007  0  0  0.11642  0  1.004302  0  0  0.109978  0.110888  0  1.008855  0
H  H14  1  0.51788982  0.89604007  0.84095515  1  0  0.07877  0  0.951361  0  0  0.082737  0  1.025278  0  0  0.085569  0  1.022755  0  0  0.104841  0.080657  0  1.027173  0
H  H15  1  0.51788984  0.60395241  0.65903919  1  0  0.078805  0  0.951342  0  0  0.08275  0  1.025289  0  0  0.085586  0  1.022759  0  0  0.104841  0.080673  0  1.027181  0
H  H16  1  0.48210483  0.10394544  0.15904290  1  0  0.078738  0  0.951288  0  0  0.08267  0  1.025287  0  0  0.085503  0  1.022763  0  0  0.104783  0.080588  0  1.027186  0
H  H17  1  0.48209890  0.39604634  0.34096134  1  0  0.078813  0  0.951266  0  0  0.082759  0  1.025204  0  0  0.085598  0  1.022667  0  0  0.104845  0.080679  0  1.027101  0
H  H18  1  0.20696328  0.98279414  0.90494255  1  0  0.054908  0  0.950237  0  0  0.063528  0  1.022605  0  0  0.065941  0  1.020156  0  0  0.104952  0.061747  0  1.02447  0
H  H19  1  0.20695491  0.51720470  0.59505684  1  0  0.05496  0  0.950257  0  0  0.063612  0  1.022563  0  0  0.066014  0  1.020125  0  0  0.104972  0.061822  0  1.024452  0
H  H20  1  0.79302744  0.01719934  0.09505676  1  0  0.054902  0  0.95017  0  0  0.063492  0  1.022604  0  0  0.065919  0  1.020141  0  0  0.10492  0.061728  0  1.024412  0
H  H21  1  0.79302005  0.48281163  0.40494362  1  0  0.054847  0  0.95015  0  0  0.063469  0  1.022534  0  0  0.065881  0  1.020087  0  0  0.104876  0.061687  0  1.024399  0
H  H22  1  0.87594570  0.16200579  0.89580370  1  0  0.095315  0  0.976999  0  0  0.10476  0  1.043436  0  0  0.107362  0  1.04262  0  0  0.095203  0.102911  0  1.044083  0
H  H23  1  0.87592171  0.33799463  0.60419673  1  0  0.095185  0  0.97723  0  0  0.104674  0  1.043609  0  0  0.107276  0  1.042795  0  0  0.095143  0.102825  0  1.044255  0
H  H24  1  0.12405289  0.83797671  0.10419730  1  0  0.095254  0  0.977174  0  0  0.104713  0  1.043589  0  0  0.107314  0  1.042778  0  0  0.095222  0.102863  0  1.044234  0
H  H25  1  0.12405718  0.66202871  0.39580122  1  0  0.095334  0  0.977025  0  0  0.104735  0  1.043534  0  0  0.107336  0  1.042721  0  0  0.095216  0.102887  0  1.044186  0
H  H26  1  0.61360120  0.41165282  0.93535331  1  0  0.084678  0  0.971367  0  0  0.095849  0  1.033346  0  0  0.098138  0  1.032787  0  0  0.096362  0.094208  0  1.033764  0
H  H27  1  0.61357460  0.08835285  0.56464750  1  0  0.084613  0  0.971366  0  0  0.095744  0  1.03339  0  0  0.098035  0  1.032824  0  0  0.096312  0.094105  0  1.03381  0
H  H28  1  0.38639148  0.58832975  0.06464694  1  0  0.084656  0  0.971304  0  0  0.095786  0  1.033377  0  0  0.0981  0  1.032745  0  0  0.096348  0.094146  0  1.033794  0
H  H29  1  0.38642006  0.91166798  0.43534852  1  0  0.084529  0  0.971394  0  0  0.095685  0  1.033434  0  0  0.097997  0  1.032812  0  0  0.096306  0.094045  0  1.033857  0
H  H30  1  0.31606249  0.35336651  0.00716162  1  0  0.096777  0  0.96801  0  0  0.104246  0  1.035599  0  0  0.107599  0  1.033957  0  0  0.099723  0.101916  0  1.036716  0
H  H31  1  0.31604034  0.14663862  0.49283877  1  0  0.096798  0  0.968023  0  0  0.104255  0  1.03564  0  0  0.10761  0  1.033993  0  0  0.099704  0.101907  0  1.036775  0
H  H32  1  0.68394398  0.64661337  0.99283859  1  0  0.096695  0  0.968052  0  0  0.104167  0  1.035651  0  0  0.107524  0  1.033998  0  0  0.099669  0.101833  0  1.036772  0
H  H33  1  0.68394840  0.85337694  0.50715604  1  0  0.096722  0  0.968135  0  0  0.104189  0  1.035732  0  0  0.10754  0  1.034079  0  0  0.099702  0.101834  0  1.036875  0
C  C34  1  0.50736744  0.46165513  0.81296507  1  0  0.130607  0  3.691158  0  0  0.099856  0  3.942705  0  0  0.10777  0  3.960636  0  0  0.046108  0.094849  0  3.93035  0
C  C35  1  0.50735233  0.03834063  0.68703209  1  0  0.130468  0  3.691325  0  0  0.099732  0  3.942841  0  0  0.107648  0  3.960773  0  0  0.046079  0.094735  0  3.930478  0
C  C36  1  0.49262721  0.53833527  0.18703796  1  0  0.13046  0  3.691086  0  0  0.099724  0  3.9426  0  0  0.107639  0  3.960526  0  0  0.046082  0.094719  0  3.930248  0
C  C37  1  0.49266596  0.96165978  0.31296546  1  0  0.130507  0  3.691308  0  0  0.099771  0  3.942859  0  0  0.107687  0  3.960792  0  0  0.046082  0.094778  0  3.930478  0
C  C38  1  0.30842397  0.40103700  0.84439263  1  0  -0.115497  0  3.742601  0  0  -0.125729  0  3.99124  0  0  -0.133905  0  4.013195  0  0  -0.085523  -0.12055  0  3.976567  0
C  C39  1  0.30840262  0.09896088  0.65560621  1  0  -0.115478  0  3.742835  0  0  -0.125664  0  3.991452  0  0  -0.133846  0  4.013405  0  0  -0.085549  -0.12049  0  3.97678  0
C  C40  1  0.69157265  0.59895871  0.15561124  1  0  -0.115495  0  3.742593  0  0  -0.125715  0  3.991265  0  0  -0.133895  0  4.013225  0  0  -0.085527  -0.120538  0  3.976592  0
C  C41  1  0.69161961  0.90105163  0.34439193  1  0  -0.115568  0  3.742854  0  0  -0.125792  0  3.991444  0  0  -0.133995  0  4.0134  0  0  -0.085616  -0.120608  0  3.976769  0
C  C42  1  0.17440921  0.52524176  0.87512656  1  0  -0.026375  0  3.665842  0  0  -0.052323  0  3.9105  0  0  -0.047655  0  3.927163  0  0  -0.058933  -0.055027  0  3.89908  0
C  C43  1  0.17439620  0.97475985  0.62487372  1  0  -0.026254  0  3.66572  0  0  -0.052226  0  3.910358  0  0  -0.04756  0  3.927024  0  0  -0.058876  -0.054934  0  3.898946  0
C  C44  1  0.82559332  0.47476339  0.12487747  1  0  -0.026266  0  3.665767  0  0  -0.052294  0  3.910441  0  0  -0.047634  0  3.927114  0  0  -0.058954  -0.055003  0  3.89903  0
C  C45  1  0.82562405  0.02525120  0.37512553  1  0  -0.026248  0  3.665767  0  0  -0.052154  0  3.910369  0  0  -0.047496  0  3.927052  0  0  -0.058809  -0.054863  0  3.89896  0
C  C46  1  0.24673375  0.70773373  0.87465090  1  0  -0.012087  0  3.801622  0  0  0.009918  0  4.038534  0  0  0.002965  0  4.061056  0  0  -0.009512  0.014155  0  4.023517  0
C  C47  1  0.24672053  0.79226077  0.62534944  1  0  -0.012054  0  3.801604  0  0  0.009991  0  4.038471  0  0  0.003038  0  4.060993  0  0  -0.009455  0.014227  0  4.023454  0
C  C48  1  0.75327075  0.29226360  0.12535036  1  0  -0.012173  0  3.801619  0  0  0.009917  0  4.038429  0  0  0.002964  0  4.06096  0  0  -0.009472  0.014146  0  4.023417  0
C  C49  1  0.75327412  0.20774184  0.37465304  1  0  -0.011959  0  3.80141  0  0  0.010051  0  4.038288  0  0  0.003101  0  4.060811  0  0  -0.009432  0.014284  0  4.023272  0
C  C50  1  0.45339810  0.75596029  0.84277872  1  0  0.091071  0  3.70335  0  0  0.05195  0  3.958765  0  0  0.059213  0  3.976845  0  0  0.046745  0.04733  0  3.946505  0
C  C51  1  0.45339884  0.74403625  0.65721850  1  0  0.090906  0  3.70342  0  0  0.05177  0  3.958836  0  0  0.059031  0  3.976919  0  0  0.046635  0.047158  0  3.946563  0
C  C52  1  0.54660443  0.24403438  0.15722212  1  0  0.091044  0  3.703431  0  0  0.051917  0  3.958815  0  0  0.059178  0  3.976899  0  0  0.04677  0.0473  0  3.946555  0
C  C53  1  0.54660566  0.25596120  0.34278164  1  0  0.090925  0  3.703374  0  0  0.051807  0  3.958792  0  0  0.059068  0  3.976873  0  0  0.046687  0.047195  0  3.946525  0
C  C54  1  0.11152932  0.84924837  0.90394092  1  0  0.138745  0  3.714375  0  0  0.103794  0  3.975403  0  0  0.114967  0  3.988407  0  0  0.078157  0.096386  0  3.966651  0
C  C55  1  0.11152745  0.65074438  0.59605636  1  0  0.138665  0  3.714189  0  0  0.103688  0  3.975248  0  0  0.114869  0  3.988258  0  0  0.078115  0.096283  0  3.96649  0
C  C56  1  0.88848896  0.15074630  0.09605992  1  0  0.138667  0  3.714527  0  0  0.103703  0  3.975521  0  0  0.114864  0  3.988526  0  0  0.078175  0.096305  0  3.966774  0
C  C57  1  0.88848690  0.34925718  0.40394310  1  0  0.138678  0  3.71469  0  0  0.10371  0  3.975739  0  0  0.114881  0  3.988747  0  0  0.078231  0.096304  0  3.966988  0
C  C58  1  0.75169799  0.96503627  0.94820124  1  0  0.169406  0  3.808891  0  0  0.168472  0  4.057524  0  0  0.173008  0  4.081216  0  0  0.092009  0.165431  0  4.04146  0
C  C59  1  0.75168661  0.53496401  0.55179828  1  0  0.169233  0  3.809251  0  0  0.168327  0  4.057881  0  0  0.172865  0  4.081567  0  0  0.091945  0.16529  0  4.041823  0
C  C60  1  0.24831045  0.03495011  0.05180134  1  0  0.169369  0  3.808788  0  0  0.168469  0  4.057328  0  0  0.173005  0  4.08102  0  0  0.091964  0.165428  0  4.041272  0
C  C61  1  0.24830016  0.46505925  0.44820042  1  0  0.169343  0  3.808751  0  0  0.168434  0  4.057277  0  0  0.172955  0  4.080995  0  0  0.091937  0.165403  0  4.041201  0
C  C62  1  0.75784194  0.13770053  0.92913491  1  0  -0.162925  0  3.743681  0  0  -0.182125  0  3.993641  0  0  -0.187314  0  4.016531  0  0  -0.098776  -0.178585  0  3.978156  0
C  C63  1  0.75782994  0.36230331  0.57086400  1  0  -0.16283  0  3.743734  0  0  -0.182067  0  3.993633  0  0  -0.187255  0  4.016517  0  0  -0.098741  -0.178523  0  3.978136  0
C  C64  1  0.24214877  0.86229271  0.07086666  1  0  -0.162921  0  3.743692  0  0  -0.182145  0  3.993649  0  0  -0.187338  0  4.016543  0  0  -0.098846  -0.178615  0  3.978172  0
C  C65  1  0.24216077  0.63771618  0.42913200  1  0  -0.163048  0  3.74368  0  0  -0.18225  0  3.993694  0  0  -0.187442  0  4.016601  0  0  -0.098832  -0.178706  0  3.978193  0
C  C66  1  0.60459042  0.27768956  0.95088129  1  0  -0.06848  0  3.819534  0  0  -0.079634  0  4.069256  0  0  -0.081642  0  4.092958  0  0  -0.098755  -0.078077  0  4.05293  0
C  C67  1  0.60456754  0.22231227  0.54911798  1  0  -0.068279  0  3.819276  0  0  -0.079396  0  4.069013  0  0  -0.081403  0  4.092721  0  0  -0.098663  -0.077838  0  4.052684  0
C  C68  1  0.39540620  0.72229143  0.04912119  1  0  -0.068448  0  3.819299  0  0  -0.079586  0  4.069023  0  0  -0.08159  0  4.09274  0  0  -0.098748  -0.078031  0  4.052702  0
C  C69  1  0.39541135  0.77770745  0.45087577  1  0  -0.068231  0  3.819424  0  0  -0.079381  0  4.069121  0  0  -0.081383  0  4.092832  0  0  -0.098691  -0.077824  0  4.052796  0
C  C70  1  0.43815266  0.24620364  0.99070865  1  0  -0.101475  0  3.740408  0  0  -0.126851  0  3.993628  0  0  -0.130113  0  4.015723  0  0  -0.093734  -0.124586  0  3.978481  0
C  C71  1  0.43813231  0.25380302  0.50929075  1  0  -0.101509  0  3.740514  0  0  -0.126901  0  3.993724  0  0  -0.130166  0  4.015823  0  0  -0.093681  -0.124625  0  3.978589  0
C  C72  1  0.56185184  0.75378560  0.00929247  1  0  -0.101389  0  3.740221  0  0  -0.126751  0  3.993445  0  0  -0.130014  0  4.015545  0  0  -0.093606  -0.124482  0  3.978303  0
C  C73  1  0.56185643  0.74622332  0.49070424  1  0  -0.101498  0  3.740229  0  0  -0.126838  0  3.993463  0  0  -0.130087  0  4.015537  0  0  -0.093642  -0.124545  0  3.978346  0
C  C74  1  0.57908160  0.92809830  0.98941332  1  0  -0.006604  0  3.746053  0  0  0.007427  0  3.97051  0  0  0.005794  0  3.994907  0  0  -0.005993  0.008524  0  3.954028  0
C  C75  1  0.57908264  0.57191497  0.51058612  1  0  -0.006512  0  3.745955  0  0  0.00745  0  3.970449  0  0  0.005815  0  3.994847  0  0  -0.006051  0.008524  0  3.953991  0
C  C76  1  0.42092093  0.07189618  0.01058940  1  0  -0.006811  0  3.746334  0  0  0.007273  0  3.970728  0  0  0.005638  0  3.99513  0  0  -0.005947  0.008375  0  3.954244  0
C  C77  1  0.42091792  0.42811514  0.48941157  1  0  -0.00685  0  3.746391  0  0  0.007295  0  3.97075  0  0  0.005663  0  3.99516  0  0  -0.00593  0.008411  0  3.954254  0
N  N78  1  0.57716897  0.63638082  0.81233597  1  0  -0.308378  0  3.274807  0  0  -0.232819  0  3.542961  0  0  -0.25349  0  3.564241  0  0  -0.315982  -0.218749  0  3.528041  0
N  N79  1  0.57716441  0.86361508  0.68766166  1  0  -0.308239  0  3.274618  0  0  -0.232648  0  3.542704  0  0  -0.253318  0  3.563983  0  0  -0.315896  -0.218582  0  3.527776  0
N  N80  1  0.42282568  0.36360437  0.18766508  1  0  -0.308272  0  3.274751  0  0  -0.232701  0  3.542845  0  0  -0.253369  0  3.564121  0  0  -0.315937  -0.218635  0  3.527929  0
N  N81  1  0.42284600  0.13638633  0.31233929  1  0  -0.308218  0  3.274599  0  0  -0.232629  0  3.542684  0  0  -0.253298  0  3.563963  0  0  -0.315886  -0.218564  0  3.527766  0
N  N82  1  0.89117816  0.82065182  0.92621356  1  0  -0.333854  0  3.114244  0  0  -0.29301  0  3.385365  0  0  -0.308791  0  3.403048  0  0  -0.307195  -0.282283  0  3.373179  0
N  N83  1  0.89115986  0.67934268  0.57378324  1  0  -0.333784  0  3.114261  0  0  -0.29296  0  3.385415  0  0  -0.308743  0  3.403094  0  0  -0.307155  -0.282234  0  3.373225  0
N  N84  1  0.10883028  0.17933452  0.07378939  1  0  -0.333654  0  3.114257  0  0  -0.292828  0  3.385367  0  0  -0.30861  0  3.403058  0  0  -0.30718  -0.282106  0  3.373184  0
N  N85  1  0.10881116  0.32067423  0.42621159  1  0  -0.333672  0  3.114559  0  0  -0.292837  0  3.385676  0  0  -0.308613  0  3.403366  0  0  -0.30721  -0.282115  0  3.373486  0
Cl  Cl86  1  0.97869388  0.03815647  0.78973576  1  0  -0.469709  0  1.001751  0  0  -0.405354  0  1.2818  0  0  -0.424186  0  1.265675  0  0  -0.257431  -0.392344  0  1.292759  0
Cl  Cl87  1  0.97867099  0.46183187  0.71025930  1  0  -0.469691  0  1.001702  0  0  -0.405319  0  1.281724  0  0  -0.424155  0  1.265601  0  0  -0.257402  -0.392317  0  1.292688  0
Cl  Cl88  1  0.02131850  0.96182992  0.21026681  1  0  -0.469712  0  1.00167  0  0  -0.405354  0  1.281736  0  0  -0.424185  0  1.265611  0  0  -0.257447  -0.392336  0  1.292683  0
Cl  Cl89  1  0.02130003  0.53815638  0.28973842  1  0  -0.469689  0  1.001808  0  0  -0.405311  0  1.281825  0  0  -0.424146  0  1.265704  0  0  -0.257423  -0.392307  0  1.292795  0
