# generated using pymatgen
data_Cu3H22C26S2(NO9)2
_symmetry_space_group_name_H-M   'P 1'
_cell_length_a   11.00605138
_cell_length_b   11.70328472
_cell_length_c   12.16785741
_cell_angle_alpha   89.99648954
_cell_angle_beta   108.88426318
_cell_angle_gamma   89.99677203
_symmetry_Int_Tables_number   1
_chemical_formula_structural   Cu3H22C26S2(NO9)2
_chemical_formula_sum   'Cu6 H44 C52 S4 N4 O36'
_cell_volume   1482.94334433
_cell_formula_units_Z   2
loop_
 _symmetry_equiv_pos_site_id
 _symmetry_equiv_pos_as_xyz
  1  'x, y, z'
loop_
 _atom_site_type_symbol
 _atom_site_label
 _atom_site_symmetry_multiplicity
 _atom_site_fract_x
 _atom_site_fract_y
 _atom_site_fract_z
 _atom_site_occupancy
 _atom_site_pbe_cm5_charge
 _atom_site_pbe_ddec_charge
 _atom_site_pbe_ddec_spin_density
 _atom_site_pbe_ddec_sum_bond_order
 _atom_site_pbe_magmom
Cu  Cu0  1  0.68241235  0.86343322  0.49751192  1  0.717706  1.01117  0.805389  1.979061  0.623
Cu  Cu1  1  0.31757676  0.36352283  0.00248536  1  0.718171  1.011799  -0.787869  1.979347  -0.626
Cu  Cu2  1  0.31756661  0.13649633  0.50248029  1  0.716887  1.009662  -0.779117  1.980855  -0.62
Cu  Cu3  1  0.68242256  0.63652122  0.99749240  1  0.718026  1.011804  -0.78624  1.978748  -0.625
Cu  Cu4  1  0.49999108  0.00001674  0.00000139  1  0.77793  0.84419  -0.754546  2.229203  -0.598
Cu  Cu5  1  0.50001296  0.49994170  0.50000848  1  0.777806  0.844013  0.772304  2.228174  0.595
H  H6  1  0.62419084  0.72575498  0.32410837  1  0.30418  0.407062  0.000758  0.914916  0.001
H  H7  1  0.37576336  0.22573055  0.17582323  1  0.304303  0.407526  -0.00074  0.914352  -0.001
H  H8  1  0.37583096  0.27421729  0.67583256  1  0.30419  0.407049  -0.000732  0.915075  -0.001
H  H9  1  0.62418250  0.77420926  0.82410401  1  0.304252  0.407114  -0.000719  0.914849  -0.001
H  H10  1  0.76646578  0.75867750  0.33619727  1  0.308327  0.423281  0.000942  0.888924  0.002
H  H11  1  0.23352924  0.25875361  0.16378243  1  0.308388  0.423431  -0.001039  0.888649  -0.002
H  H12  1  0.23357345  0.24123410  0.66373245  1  0.30829  0.42322  -0.001002  0.88897  -0.002
H  H13  1  0.76648270  0.74132120  0.83618348  1  0.308326  0.423153  -0.000913  0.889131  -0.002
H  H14  1  0.59811488  0.90872865  0.66076223  1  0.297393  0.384912  0.000407  0.950754  0.0
H  H15  1  0.40197583  0.40860787  0.83927507  1  0.297409  0.385038  -0.000494  0.950673  0.0
H  H16  1  0.40196944  0.09142220  0.33939630  1  0.297337  0.385042  -0.000472  0.950625  0.0
H  H17  1  0.59808963  0.59140627  0.16073400  1  0.297419  0.384951  -0.000378  0.950792  0.0
H  H18  1  0.60233173  0.02723434  0.60045114  1  0.296091  0.388869  0.000763  0.946223  0.001
H  H19  1  0.39772593  0.52712664  0.89955092  1  0.296253  0.389439  -0.00122  0.945452  -0.001
H  H20  1  0.39770384  0.97286951  0.39966814  1  0.295967  0.388903  -0.000383  0.946269  -0.001
H  H21  1  0.60233846  0.47289604  0.10047016  1  0.29636  0.389877  -0.00122  0.944781  -0.001
H  H22  1  0.01349178  0.69297585  0.86699571  1  0.111967  0.118536  -2.4e-05  0.989137  0.0
H  H23  1  0.98656359  0.19309371  0.63296226  1  0.111993  0.118671  2.5e-05  0.988993  0.0
H  H24  1  0.98652275  0.30692635  0.13300304  1  0.11183  0.118364  -3e-06  0.989176  0.0
H  H25  1  0.01343912  0.80699647  0.36695980  1  0.111922  0.118573  1.8e-05  0.989102  0.0
H  H26  1  0.10562006  0.91205990  0.62099150  1  0.116105  0.135305  0.00034  0.985415  0.0
H  H27  1  0.89428360  0.41198414  0.87904055  1  0.115994  0.135341  -0.000461  0.985459  0.0
H  H28  1  0.89427661  0.08799184  0.37904921  1  0.115968  0.135256  -0.000432  0.985732  0.0
H  H29  1  0.10568142  0.58793259  0.12100337  1  0.116084  0.135427  -0.000361  0.985504  0.0
H  H30  1  0.24574138  0.65894019  0.96776126  1  0.1077  0.129819  0.000102  1.044388  0.0
H  H31  1  0.75433849  0.15902115  0.53217563  1  0.107917  0.130117  -0.000141  1.044447  0.0
H  H32  1  0.75428240  0.34096971  0.03217451  1  0.107784  0.130028  -0.000136  1.044353  0.0
H  H33  1  0.24566342  0.84108613  0.46772729  1  0.10775  0.129962  -0.000104  1.044279  0.0
H  H34  1  0.26479090  0.09666857  0.85746947  1  0.121399  0.104038  -0.001274  1.028763  -0.002
H  H35  1  0.73525037  0.59671834  0.64257457  1  0.121414  0.103964  0.001326  1.028696  0.002
H  H36  1  0.73518783  0.90334472  0.14254733  1  0.121378  0.103947  -0.001287  1.028782  -0.002
H  H37  1  0.26488707  0.40321035  0.35756700  1  0.121425  0.103967  0.001351  1.02863  0.002
H  H38  1  0.36619983  0.89894670  0.15605263  1  0.122036  0.107607  -0.001164  0.995904  -0.002
H  H39  1  0.63385634  0.39892790  0.34404731  1  0.121967  0.107687  0.00096  0.995831  0.002
H  H40  1  0.63379628  0.10105975  0.84395951  1  0.122009  0.107545  -0.00098  0.995791  -0.002
H  H41  1  0.36622268  0.60105975  0.65605951  1  0.122045  0.107658  0.000971  0.99565  0.002
H  H42  1  0.14427256  0.90034340  0.16257747  1  0.105828  0.110265  -0.000606  1.041053  -0.001
H  H43  1  0.85574948  0.40037143  0.33744971  1  0.105828  0.110363  0.000591  1.041043  0.001
H  H44  1  0.85571976  0.09963913  0.83742861  1  0.105775  0.110187  -0.000559  1.041229  -0.001
H  H45  1  0.14428156  0.59971619  0.66253262  1  0.105909  0.110355  0.000578  1.040964  0.001
H  H46  1  0.03730244  0.09776015  0.84394591  1  0.106949  0.106533  -0.00051  1.048468  -0.001
H  H47  1  0.96273145  0.59780905  0.65605230  1  0.106846  0.106353  0.000511  1.048608  0.001
H  H48  1  0.96268316  0.90222664  0.15605733  1  0.107012  0.106533  -0.000486  1.048513  -0.001
H  H49  1  0.03738586  0.40222816  0.34397311  1  0.106988  0.106505  0.000536  1.048209  0.001
C  C50  1  0.90192314  0.81500629  0.67641181  1  0.205654  0.567294  5.9e-05  4.218599  -0.004
C  C51  1  0.09808577  0.31498283  0.82361305  1  0.205797  0.567926  -0.000313  4.217922  0.003
C  C52  1  0.09804325  0.18502323  0.32369252  1  0.20556  0.566999  -0.000281  4.218544  0.003
C  C53  1  0.90192032  0.68499628  0.17636016  1  0.205619  0.567219  9.8e-05  4.218372  0.004
C  C54  1  0.04420851  0.80445468  0.73782514  1  -0.016735  -0.039398  0.00558  3.976199  0.006
C  C55  1  0.95578407  0.30445574  0.76219709  1  -0.01687  -0.039689  -0.008258  3.975701  -0.009
C  C56  1  0.95575555  0.19554749  0.26221767  1  -0.016998  -0.039804  -0.007721  3.976296  -0.009
C  C57  1  0.04420739  0.69554559  0.23779721  1  -0.016914  -0.039552  -0.005458  3.975758  -0.006
C  C58  1  0.08510300  0.73433256  0.83616583  1  -0.076923  -0.08259  0.000764  3.960978  0.001
C  C59  1  0.91493776  0.23439414  0.66381822  1  -0.076554  -0.082121  -0.000402  3.960904  -0.001
C  C60  1  0.91488750  0.26560809  0.16382901  1  -0.076655  -0.082046  -0.000574  3.960303  -0.001
C  C61  1  0.08506470  0.76565760  0.33613089  1  -0.076463  -0.082331  -0.000678  3.960465  -0.001
C  C62  1  0.13593335  0.85790092  0.69789212  1  -0.074573  -0.097927  -0.000313  3.930196  -0.001
C  C63  1  0.86401776  0.35785301  0.80212773  1  -0.074451  -0.097983  -0.000183  3.929894  0.0
C  C64  1  0.86399621  0.14212689  0.30213215  1  -0.074402  -0.098015  -0.000294  3.930858  0.0
C  C65  1  0.13596004  0.64210047  0.19788715  1  -0.074612  -0.098074  0.000311  3.930265  0.001
C  C66  1  0.21506377  0.71589918  0.89300339  1  -0.083863  -0.092387  -0.000321  3.926746  0.0
C  C67  1  0.78499327  0.21593105  0.60696278  1  -0.084459  -0.093581  -0.002101  3.927927  -0.002
C  C68  1  0.78493281  0.28404404  0.10695711  1  -0.084099  -0.092903  -0.001717  3.926868  -0.002
C  C69  1  0.21501317  0.78413265  0.39297190  1  -0.084044  -0.09262  0.000358  3.926044  0.0
C  C70  1  0.26670752  0.84272207  0.75759814  1  -0.016571  -0.120097  -0.000891  3.957034  -0.001
C  C71  1  0.73325098  0.34264040  0.74239769  1  -0.016632  -0.120426  -0.001739  3.956993  -0.002
C  C72  1  0.73322902  0.15731173  0.24240027  1  -0.016643  -0.120212  -0.001256  3.956845  -0.001
C  C73  1  0.26672226  0.65731137  0.25758870  1  -0.016493  -0.120265  0.001094  3.957296  0.001
C  C74  1  0.30745233  0.77086028  0.85546505  1  -0.005141  -0.0344  -0.004323  3.950572  -0.005
C  C75  1  0.69258331  0.27082713  0.64450136  1  -0.005081  -0.033839  -0.002668  3.951105  -0.003
C  C76  1  0.69252300  0.22913250  0.14450306  1  -0.005127  -0.034276  -0.003544  3.950865  -0.004
C  C77  1  0.30741068  0.72919641  0.35542631  1  -0.005055  -0.033941  0.004424  3.950549  0.005
C  C78  1  0.44566590  0.75097111  0.92553826  1  0.22606  0.596689  -0.001293  4.151189  0.002
C  C79  1  0.55444191  0.25085057  0.57442216  1  0.225842  0.596236  0.00061  4.150773  0.001
C  C80  1  0.55431502  0.24904559  0.07444960  1  0.226138  0.596876  -0.001292  4.151041  0.002
C  C81  1  0.44560806  0.74908923  0.42549104  1  0.22575  0.595959  0.001461  4.151296  -0.002
C  C82  1  0.23310936  0.05204485  0.92160046  1  0.048488  0.100499  -0.000202  3.938335  0.0
C  C83  1  0.76692159  0.55208165  0.57844064  1  0.048663  0.100786  0.000168  3.937434  0.0
C  C84  1  0.76687326  0.94795733  0.07841257  1  0.048464  0.100567  -3.3e-05  3.938441  0.0
C  C85  1  0.23320462  0.44787438  0.42166552  1  0.048676  0.10068  0.000308  3.937338  0.0
C  C86  1  0.28956270  0.94266334  0.08952890  1  0.049158  0.10229  -0.000972  3.912498  0.0
C  C87  1  0.71048591  0.44267132  0.41053827  1  0.049188  0.101995  0.000596  3.912026  0.0
C  C88  1  0.71043245  0.05733798  0.91048295  1  0.049164  0.102426  -0.000519  3.912136  0.0
C  C89  1  0.28961163  0.55731206  0.58954369  1  0.04909  0.102311  0.000531  3.911268  0.0
C  C90  1  0.16414778  0.94373211  0.09121665  1  -0.076067  -0.148699  -0.004102  3.898031  -0.005
C  C91  1  0.83588853  0.44375922  0.40881554  1  -0.07585  -0.148362  0.003819  3.897871  0.005
C  C92  1  0.83584549  0.05625726  0.90879052  1  -0.075971  -0.148697  -0.003738  3.898135  -0.005
C  C93  1  0.16417882  0.55629252  0.59119738  1  -0.076064  -0.148784  0.003782  3.897509  0.005
C  C94  1  0.10563145  0.05342748  0.91614497  1  -0.077496  -0.149484  -0.003994  3.916037  -0.005
C  C95  1  0.89439964  0.55346405  0.58386814  1  -0.077419  -0.149462  0.004005  3.915474  0.005
C  C96  1  0.89435214  0.94656701  0.08386835  1  -0.077505  -0.149455  -0.003919  3.915946  -0.005
C  C97  1  0.10570987  0.44655607  0.41616890  1  -0.077564  -0.149341  0.004093  3.914782  0.005
C  C98  1  0.06771963  0.99912620  0.00211137  1  0.017473  0.109293  0.001936  3.951261  0.002
C  C99  1  0.93230992  0.49916991  0.49789336  1  0.017717  0.109472  -0.001956  3.951131  -0.002
C  C100  1  0.93226595  0.00085804  0.99789350  1  0.017474  0.10946  0.002074  3.951131  0.002
C  C101  1  0.06776718  0.50088695  0.50210604  1  0.017549  0.10941  -0.002029  3.950845  -0.002
S  S102  1  0.38097273  0.92185726  0.71205781  1  0.513716  1.170653  0.000279  6.169009  0.0
S  S103  1  0.61891470  0.42176420  0.78786033  1  0.513696  1.170954  0.00013  6.16779  0.0
S  S104  1  0.61894562  0.07817568  0.28792858  1  0.513553  1.170412  -0.000463  6.168158  0.0
S  S105  1  0.38102616  0.57816877  0.21208678  1  0.513528  1.17043  0.000311  6.168654  0.0
N  N106  1  0.32321051  0.99607235  0.00575128  1  -0.355771  -0.23532  -0.057518  3.642468  -0.075
N  N107  1  0.67682268  0.49609044  0.49430897  1  -0.355729  -0.235254  0.058793  3.641467  0.074
N  N108  1  0.67677982  0.00393667  0.99426160  1  -0.355806  -0.235517  -0.057482  3.642295  -0.075
N  N109  1  0.32329196  0.50386473  0.50579865  1  -0.355734  -0.235177  0.05872  3.641967  0.074
O  O110  1  0.70586266  0.75149678  0.38108175  1  -0.577833  -0.769903  0.042954  2.169983  0.057
O  O111  1  0.29408420  0.25150078  0.11886670  1  -0.577919  -0.770373  -0.042363  2.169325  -0.058
O  O112  1  0.29414749  0.24851650  0.61886884  1  -0.578424  -0.770458  -0.041758  2.170744  -0.057
O  O113  1  0.70586071  0.74844245  0.88105861  1  -0.577994  -0.769891  -0.041908  2.170142  -0.057
O  O114  1  0.65150138  0.95507433  0.62541847  1  -0.574653  -0.74377  0.053475  2.211631  0.071
O  O115  1  0.34852920  0.45499941  0.87451757  1  -0.574977  -0.744574  -0.053383  2.210618  -0.073
O  O116  1  0.34855008  0.04501585  0.37464804  1  -0.57501  -0.744358  -0.051323  2.212187  -0.07
O  O117  1  0.65154775  0.54501644  0.12549987  1  -0.575034  -0.744855  -0.053158  2.210183  -0.073
O  O118  1  0.86824170  0.86597979  0.57687065  1  -0.323745  -0.529469  0.077528  2.25173  0.106
O  O119  1  0.13174282  0.36607213  0.92309873  1  -0.324184  -0.530102  -0.07713  2.251291  -0.109
O  O120  1  0.13168585  0.13390533  0.42316370  1  -0.323935  -0.529429  -0.07612  2.25118  -0.107
O  O121  1  0.86827809  0.63400268  0.07683372  1  -0.323759  -0.529578  -0.075718  2.251129  -0.107
O  O122  1  0.82528558  0.77066976  0.72136380  1  -0.311377  -0.565584  -0.000712  2.229217  0.0
O  O123  1  0.17469604  0.27052378  0.77872288  1  -0.311306  -0.565734  -0.001563  2.228764  -0.003
O  O124  1  0.17466864  0.22949562  0.27880756  1  -0.311768  -0.565912  -0.00139  2.228936  -0.003
O  O125  1  0.82526732  0.72933571  0.22129178  1  -0.311197  -0.565324  0.00074  2.229062  0.0
O  O126  1  0.49042385  0.65028983  0.91988340  1  -0.304466  -0.547862  -0.055673  2.364154  -0.079
O  O127  1  0.50953506  0.15028151  0.58020763  1  -0.30365  -0.546085  -0.037374  2.364306  -0.054
O  O128  1  0.50956439  0.34971747  0.08014693  1  -0.304528  -0.548145  -0.055788  2.364551  -0.079
O  O129  1  0.49040790  0.84976510  0.41982639  1  -0.303663  -0.546875  0.05489  2.363922  0.075
O  O130  1  0.51362129  0.82710744  0.98982575  1  -0.293431  -0.525712  -0.050424  2.414378  -0.073
O  O131  1  0.48647821  0.32690058  0.50996418  1  -0.293004  -0.525139  0.051453  2.41085  0.07
O  O132  1  0.48634837  0.17293319  0.01013079  1  -0.293414  -0.525535  -0.050384  2.413556  -0.073
O  O133  1  0.51359091  0.67299650  0.48985532  1  -0.292712  -0.524773  0.051619  2.412767  0.072
O  O134  1  0.42358912  0.01702381  0.79381988  1  -0.331797  -0.606368  -0.001556  2.326912  -0.003
O  O135  1  0.57633864  0.51693009  0.70606498  1  -0.331595  -0.606444  0.001311  2.326945  0.002
O  O136  1  0.57636108  0.98301340  0.20615879  1  -0.331726  -0.606461  -0.001965  2.326974  -0.003
O  O137  1  0.42369909  0.48305414  0.29392345  1  -0.331704  -0.606393  0.001728  2.327391  0.003
O  O138  1  0.48561007  0.84005596  0.71649030  1  -0.329792  -0.591034  0.000151  2.208039  0.0
O  O139  1  0.51427199  0.33997040  0.78336116  1  -0.3297  -0.590709  -0.00103  2.20746  -0.001
O  O140  1  0.51429214  0.15996673  0.28347153  1  -0.329782  -0.590872  -0.001013  2.207763  -0.001
O  O141  1  0.48560734  0.65999504  0.21646973  1  -0.32978  -0.590645  -4.9e-05  2.207789  0.0
O  O142  1  0.31250261  0.96064083  0.59356144  1  -0.335208  -0.616656  0.000292  2.347659  -0.001
O  O143  1  0.68723768  0.46057936  0.90636873  1  -0.335195  -0.616985  0.001474  2.348064  0.001
O  O144  1  0.68738777  0.03938186  0.40643055  1  -0.335212  -0.616598  -0.00176  2.347461  -0.001
O  O145  1  0.31258534  0.53930491  0.09361953  1  -0.335046  -0.616617  0.001909  2.347802  0.001
