# generated using pymatgen
data_ZnH24C24SN4O7
_symmetry_space_group_name_H-M   'P 1'
_cell_length_a   9.83366205
_cell_length_b   12.64043408
_cell_length_c   21.67198224
_cell_angle_alpha   90.00191984
_cell_angle_beta   107.16998681
_cell_angle_gamma   89.99750885
_symmetry_Int_Tables_number   1
_chemical_formula_structural   ZnH24C24SN4O7
_chemical_formula_sum   'Zn4 H96 C96 S4 N16 O28'
_cell_volume   2573.80831649
_cell_formula_units_Z   4
loop_
 _symmetry_equiv_pos_site_id
 _symmetry_equiv_pos_as_xyz
  1  'x, y, z'
loop_
 _atom_site_type_symbol
 _atom_site_label
 _atom_site_symmetry_multiplicity
 _atom_site_fract_x
 _atom_site_fract_y
 _atom_site_fract_z
 _atom_site_occupancy
 _atom_site_pbe_bader_charge
 _atom_site_pbe_bader_spin_density
 _atom_site_pbe_cm5_charge
 _atom_site_pbe_ddec_charge
 _atom_site_pbe_ddec_spin_density
 _atom_site_pbe_ddec_sum_bond_order
 _atom_site_pbe_magmom
Zn  Zn0  1  0.74513914  0.23474368  0.96758972  1  1.293656  0  0.683111  0.82545  0  2.332429  0
Zn  Zn1  1  0.24513426  0.26524214  0.46759235  1  1.293532  0  0.68307  0.825337  0  2.332473  0
Zn  Zn2  1  0.75485834  0.73474982  0.53240463  1  1.293674  0  0.683163  0.825613  0  2.332293  0
Zn  Zn3  1  0.25484125  0.76524590  0.03240387  1  1.293456  0  0.683149  0.825486  0  2.332501  0
H  H4  1  0.46663549  0.54990258  0.76663321  1  0.533864  0  0.307495  0.264901  0  0.971484  0
H  H5  1  0.57661223  0.99899821  0.76293044  1  0.087896  0  0.112989  0.134357  0  0.999977  0
H  H6  1  0.58391064  0.16273810  0.83176590  1  0.100753  0  0.117968  0.09433  0  0.992469  0
H  H7  1  0.89431710  0.03155871  0.98430793  1  0.110918  0  0.117235  0.081589  0  1.024088  0
H  H8  1  0.90251752  0.86597629  0.92285307  1  0.109451  0  0.108042  0.119798  0  1.030206  0
H  H9  1  0.80594099  0.76015427  0.82956952  1  0.012345  0  0.096572  0.071357  0  0.98127  0
H  H10  1  0.78189629  0.84085444  0.75945690  1  0.09845  0  0.11371  0.1048  0  1.013306  0
H  H11  1  0.62489870  0.74190783  0.68174358  1  0.151202  0  0.116842  0.121844  0  0.984758  0
H  H12  1  0.66486769  0.63768933  0.74021184  1  0.021588  0  0.09495  0.070528  0  0.99583  0
H  H13  1  0.36681848  0.72348618  0.66876806  1  0.071423  0  0.119244  0.106679  0  0.952574  0
H  H14  1  0.44295153  0.60199490  0.65406052  1  0.102212  0  0.117162  0.112385  0  0.986796  0
H  H15  1  0.61028077  0.67747216  0.84856284  1  0.053439  0  0.095642  0.06557  0  1.047363  0
H  H16  1  0.53133792  0.80135700  0.85458915  1  0.056402  0  0.107666  0.096007  0  0.969049  0
H  H17  1  0.31266175  0.75213291  0.76867509  1  0.067874  0  0.109574  0.085106  0  0.990834  0
H  H18  1  0.35544271  0.65426639  0.83166636  1  0.135315  0  0.118753  0.114802  0  0.989495  0
H  H19  1  0.23191792  0.51290685  0.75828907  1  0.097196  0  0.131367  0.127659  0  0.932059  0
H  H20  1  0.16898593  0.62098518  0.70428189  1  0.074057  0  0.119922  0.102836  0  0.976397  0
H  H21  1  0.10292803  0.59326079  0.59021311  1  0.12424  0  0.112868  0.12635  0  1.006654  0
H  H22  1  0.11879408  0.48361573  0.49693634  1  0.124573  0  0.115246  0.076398  0  1.020281  0
H  H23  1  0.38850834  0.36966695  0.71534597  1  0.133753  0  0.110835  0.133516  0  1.010514  0
H  H24  1  0.51891402  0.49563602  0.09226333  1  0.120818  0  0.10767  0.114331  0  1.007115  0
H  H25  1  0.29181550  0.25364873  0.96301645  1  0.114091  0  0.099016  0.101596  0  1.035244  0
H  H26  1  0.07281944  0.44043892  0.06929551  1  0.147315  0  0.114152  0.131182  0  0.993451  0
H  H27  1  0.38488507  0.26572675  0.61522136  1  0.138445  0  0.126385  0.105282  0  0.978024  0
H  H28  1  0.96662150  0.95010270  0.26664050  1  0.534  0  0.307497  0.264885  0  0.971527  0
H  H29  1  0.07657420  0.50105042  0.26296125  1  0.088119  0  0.112996  0.134221  0  1.000034  0
H  H30  1  0.08387488  0.33729965  0.33177827  1  0.100638  0  0.118042  0.094352  0  0.992718  0
H  H31  1  0.39433997  0.46840714  0.48431731  1  0.110532  0  0.117255  0.081566  0  1.024016  0
H  H32  1  0.40255942  0.63399800  0.42287488  1  0.109177  0  0.108022  0.119651  0  1.03031  0
H  H33  1  0.30594227  0.73986255  0.32960782  1  0.040739  0  0.096411  0.070963  0  0.981342  0
H  H34  1  0.28193486  0.65915766  0.25949386  1  0.097593  0  0.113576  0.10453  0  1.013177  0
H  H35  1  0.12491719  0.75809112  0.18176075  1  0.151248  0  0.116886  0.121925  0  0.984709  0
H  H36  1  0.16486194  0.86231957  0.24022280  1  0.021293  0  0.094936  0.070504  0  0.995858  0
H  H37  1  0.86682902  0.77651072  0.16877426  1  0.071651  0  0.119237  0.106623  0  0.952619  0
H  H38  1  0.94294872  0.89799686  0.15406480  1  0.102492  0  0.117186  0.112414  0  0.986892  0
H  H39  1  0.11024449  0.82254184  0.34857555  1  0.053742  0  0.095717  0.065636  0  1.047387  0
H  H40  1  0.03131280  0.69865671  0.35459430  1  0.056146  0  0.10764  0.095851  0  0.969162  0
H  H41  1  0.81265087  0.74787935  0.26867045  1  0.067673  0  0.109628  0.085181  0  0.990743  0
H  H42  1  0.85540289  0.84574503  0.33166109  1  0.134796  0  0.118767  0.114882  0  0.989387  0
H  H43  1  0.73188639  0.98710364  0.25828388  1  0.096853  0  0.131376  0.127599  0  0.931909  0
H  H44  1  0.66897932  0.87903195  0.20427228  1  0.074275  0  0.11986  0.10276  0  0.97638  0
H  H45  1  0.60293736  0.90673921  0.09021293  1  0.124268  0  0.112945  0.126479  0  1.006517  0
H  H46  1  0.61877769  0.01639097  0.99693487  1  0.124581  0  0.115213  0.076296  0  1.020215  0
H  H47  1  0.88854645  0.13032970  0.21534546  1  0.133853  0  0.110843  0.133507  0  1.010324  0
H  H48  1  0.01894750  0.00433381  0.59226261  1  0.12038  0  0.107759  0.114338  0  1.007065  0
H  H49  1  0.79183331  0.24633437  0.46301895  1  0.110551  0  0.099018  0.101608  0  1.035353  0
H  H50  1  0.57286002  0.05956405  0.56929926  1  0.147394  0  0.114217  0.131507  0  0.993268  0
H  H51  1  0.88490236  0.23425973  0.11521586  1  0.13866  0  0.126371  0.105295  0  0.97781  0
H  H52  1  0.03338066  0.04990429  0.73336614  1  0.534011  0  0.307457  0.264876  0  0.971421  0
H  H53  1  0.92341737  0.49899692  0.73705745  1  0.087956  0  0.113012  0.134422  0  0.999843  0
H  H54  1  0.91612029  0.66272712  0.66822079  1  0.100796  0  0.117964  0.094277  0  0.992627  0
H  H55  1  0.60566135  0.53158482  0.51569018  1  0.110885  0  0.117243  0.081575  0  1.024056  0
H  H56  1  0.59747161  0.36599554  0.57713985  1  0.109459  0  0.108088  0.119771  0  1.030094  0
H  H57  1  0.69408078  0.26016264  0.67041689  1  0.041476  0  0.096499  0.071171  0  0.981267  0
H  H58  1  0.71810585  0.34086437  0.74053100  1  0.09691  0  0.113686  0.104674  0  1.013165  0
H  H59  1  0.87512855  0.24192853  0.81825480  1  0.151789  0  0.1169  0.121947  0  0.98461  0
H  H60  1  0.83515790  0.13770087  0.75979281  1  0.021753  0  0.094976  0.070591  0  0.995768  0
H  H61  1  0.13320349  0.22348836  0.83123364  1  0.071106  0  0.119276  0.1067  0  0.952805  0
H  H62  1  0.05707309  0.10200934  0.84594170  1  0.102278  0  0.11724  0.112511  0  0.986629  0
H  H63  1  0.88976636  0.17748334  0.65143277  1  0.053746  0  0.09576  0.065758  0  1.047528  0
H  H64  1  0.96870909  0.30136136  0.64541685  1  0.055799  0  0.107694  0.095976  0  0.96959  0
H  H65  1  0.18737322  0.25212210  0.73133254  1  0.067527  0  0.1096  0.085118  0  0.990804  0
H  H66  1  0.14459897  0.15425879  0.66833995  1  0.134984  0  0.118774  0.114871  0  0.98941  0
H  H67  1  0.26810470  0.01289070  0.74171111  1  0.096761  0  0.131332  0.127594  0  0.931867  0
H  H68  1  0.33103634  0.12095289  0.79572579  1  0.074428  0  0.11988  0.102739  0  0.976442  0
H  H69  1  0.39705826  0.09324643  0.90978803  1  0.124431  0  0.112954  0.126431  0  1.00671  0
H  H70  1  0.38121067  0.98358358  0.00306174  1  0.124499  0  0.115216  0.0764  0  1.020275  0
H  H71  1  0.11145575  0.86966543  0.78464401  1  0.133927  0  0.110821  0.13351  0  1.010243  0
H  H72  1  0.98106278  0.99565419  0.40774334  1  0.120393  0  0.107693  0.114147  0  1.007053  0
H  H73  1  0.20817161  0.75365364  0.53698189  1  0.114276  0  0.099028  0.101683  0  1.035298  0
H  H74  1  0.42715779  0.94043504  0.43070782  1  0.147329  0  0.114233  0.131454  0  0.993227  0
H  H75  1  0.11508847  0.76572827  0.88476936  1  0.139476  0  0.126361  0.105329  0  0.97784  0
H  H76  1  0.53337136  0.45009175  0.23336270  1  0.533891  0  0.30747  0.264821  0  0.971641  0
H  H77  1  0.42340101  0.00101828  0.23704885  1  0.08796  0  0.113  0.13426  0  1.000055  0
H  H78  1  0.41608805  0.83726968  0.16822187  1  0.100725  0  0.118037  0.094327  0  0.992558  0
H  H79  1  0.10566616  0.96842771  0.01568034  1  0.110521  0  0.117266  0.081513  0  1.024014  0
H  H80  1  0.09747169  0.13401725  0.07712969  1  0.109082  0  0.108044  0.119716  0  1.030202  0
H  H81  1  0.19406269  0.23985905  0.17041312  1  0.041388  0  0.096418  0.071029  0  0.981377  0
H  H82  1  0.21808895  0.15914622  0.24052226  1  0.097307  0  0.113683  0.104743  0  1.013118  0
H  H83  1  0.37510876  0.25808413  0.31825052  1  0.151253  0  0.116878  0.121873  0  0.984725  0
H  H84  1  0.33513572  0.36230264  0.25978701  1  0.021362  0  0.094979  0.070571  0  0.99582  0
H  H85  1  0.63318652  0.27650341  0.33122443  1  0.071458  0  0.119219  0.106721  0  0.952425  0
H  H86  1  0.55705426  0.39799152  0.34593529  1  0.102487  0  0.117193  0.112429  0  0.986824  0
H  H87  1  0.38972552  0.32251901  0.15143070  1  0.053249  0  0.095663  0.065565  0  1.047464  0
H  H88  1  0.46867222  0.19863575  0.14540751  1  0.056192  0  0.107672  0.095971  0  0.969338  0
H  H89  1  0.68734778  0.24786222  0.23132337  1  0.067781  0  0.109581  0.085109  0  0.990676  0
H  H90  1  0.64456554  0.34572716  0.16833106  1  0.135033  0  0.1188  0.114859  0  0.989456  0
H  H91  1  0.76808602  0.48709540  0.24171633  1  0.096895  0  0.131386  0.12771  0  0.932007  0
H  H92  1  0.83101669  0.37900441  0.29571364  1  0.073905  0  0.119936  0.102849  0  0.976429  0
H  H93  1  0.89704889  0.40671456  0.40978760  1  0.124207  0  0.113012  0.126481  0  1.006447  0
H  H94  1  0.88122176  0.51636990  0.50306686  1  0.124153  0  0.11518  0.076266  0  1.020187  0
H  H95  1  0.61149643  0.63031552  0.28465857  1  0.133889  0  0.110905  0.133579  0  1.010547  0
H  H96  1  0.48105816  0.50433220  0.90773929  1  0.120267  0  0.10774  0.114277  0  1.007112  0
H  H97  1  0.70813941  0.74633927  0.03698326  1  0.110325  0  0.099067  0.101623  0  1.035407  0
H  H98  1  0.92714492  0.55957440  0.93070039  1  0.147516  0  0.114187  0.131484  0  0.99321  0
H  H99  1  0.61512030  0.73426284  0.38478138  1  0.13849  0  0.126387  0.105327  0  0.978006  0
C  C100  1  0.64673931  0.00410737  0.81221609  1  -0.027932  0  -0.081613  -0.18029  0  3.93583  0
C  C101  1  0.64947015  0.09335683  0.84988182  1  0.47382  0  0.044316  0.088013  0  3.958584  0
C  C102  1  0.82592763  0.02152753  0.93509892  1  0.439757  0  0.048536  0.104183  0  3.968999  0
C  C103  1  0.83014042  0.92979206  0.90053165  1  -0.020061  0  -0.087166  -0.190222  0  3.934619  0
C  C104  1  0.73846836  0.91970623  0.83790894  1  0.005247  0  0.018371  0.160228  0  3.937009  0
C  C105  1  0.73724885  0.82154163  0.79893972  1  0.313543  0  -0.063149  -0.117088  0  3.951164  0
C  C106  1  0.59089874  0.70427810  0.72043516  1  0.29537  0  -0.069076  -0.086997  0  3.91604  0
C  C107  1  0.44288143  0.66075256  0.69104702  1  0.203279  0  -0.05776  -0.078588  0  3.799817  0
C  C108  1  0.53775068  0.73864375  0.82036184  1  0.292876  0  -0.072838  -0.090213  0  3.946494  0
C  C109  1  0.39038089  0.69168487  0.79307225  1  0.172072  0  -0.058031  -0.089387  0  3.807987  0
C  C110  1  0.24901345  0.55792273  0.71783563  1  0.222463  0  -0.044509  -0.113932  0  3.807088  0
C  C111  1  0.24318249  0.48862664  0.66069852  1  -0.062461  0  0.005207  0.126044  0  3.974687  0
C  C112  1  0.16549868  0.52042750  0.59847288  1  -0.012221  0  -0.079952  -0.182516  0  3.936676  0
C  C113  1  0.17436646  0.45962545  0.54627035  1  0.436356  0  0.05182  0.103393  0  3.955208  0
C  C114  1  0.32341966  0.39542330  0.66772034  1  -0.038744  0  -0.083056  -0.183615  0  3.912875  0
C  C115  1  0.29510648  0.47879915  0.08409912  1  -0.220103  0  -0.021586  -0.096073  0  3.983615  0
C  C116  1  0.41950201  0.45508177  0.06859439  1  -0.019676  0  -0.076695  -0.099656  0  3.961365  0
C  C117  1  0.41909613  0.37342111  0.02492593  1  0.038476  0  -0.018842  -0.026888  0  3.968285  0
C  C118  1  0.55822410  0.33800553  0.01650356  1  1.537808  0  0.190714  0.558764  0  4.236936  0
C  C119  1  0.29288153  0.31887114  0.99595469  1  -0.060359  0  -0.076098  -0.099064  0  3.923906  0
C  C120  1  0.16780984  0.34329475  0.01118975  1  -0.043652  0  -0.017501  -0.02832  0  3.957072  0
C  C121  1  0.03719013  0.27597720  0.98361706  1  1.572671  0  0.196932  0.563244  0  4.238762  0
C  C122  1  0.16861957  0.42410261  0.05552933  1  5.8e-05  0  -0.07034  -0.087353  0  3.914531  0
C  C123  1  0.32496041  0.33904837  0.61266315  1  0.47774  0  0.058894  0.114297  0  3.92935  0
C  C124  1  0.14672033  0.49592227  0.31223587  1  -0.028107  0  -0.081573  -0.179943  0  3.935618  0
C  C125  1  0.14945027  0.40666124  0.34989548  1  0.474086  0  0.044204  0.087979  0  3.95864  0
C  C126  1  0.32594337  0.47845597  0.43511005  1  0.440055  0  0.048574  0.104309  0  3.969666  0
C  C127  1  0.33016605  0.57019157  0.40055123  1  -0.019763  0  -0.08736  -0.190246  0  3.934855  0
C  C128  1  0.23847897  0.58030442  0.33793189  1  0.00594  0  0.01866  0.159998  0  3.9371  0
C  C129  1  0.23725961  0.67847406  0.29897110  1  0.285597  0  -0.062987  -0.116072  0  3.950785  0
C  C130  1  0.09091241  0.79572621  0.22044978  1  0.295777  0  -0.069065  -0.086929  0  3.916366  0
C  C131  1  0.94288288  0.83924589  0.19105322  1  0.202781  0  -0.057774  -0.078491  0  3.799684  0
C  C132  1  0.03773631  0.76137112  0.32037197  1  0.29384  0  -0.072779  -0.089808  0  3.946724  0
C  C133  1  0.89035220  0.80832511  0.29307426  1  0.172802  0  -0.058177  -0.089619  0  3.807714  0
C  C134  1  0.74899860  0.94208938  0.21783399  1  0.222926  0  -0.044466  -0.113665  0  3.806344  0
C  C135  1  0.74319239  0.01138063  0.16069537  1  -0.062861  0  0.00519  0.125869  0  3.975032  0
C  C136  1  0.66550916  0.97957338  0.09847783  1  -0.01195  0  -0.079962  -0.182525  0  3.936748  0
C  C137  1  0.67436499  0.04037587  0.04627517  1  0.436107  0  0.051821  0.103451  0  3.95519  0
C  C138  1  0.82342972  0.10457120  0.16771631  1  -0.038587  0  -0.083095  -0.183575  0  3.913256  0
C  C139  1  0.79514487  0.02119036  0.58410201  1  -0.235021  0  -0.021231  -0.095775  0  3.983051  0
C  C140  1  0.91953764  0.04490410  0.56859298  1  -0.00376  0  -0.076984  -0.099867  0  3.961686  0
C  C141  1  0.91912540  0.12655745  0.52492533  1  0.038898  0  -0.018865  -0.02693  0  3.968287  0
C  C142  1  0.05825554  0.16198046  0.51650071  1  1.538475  0  0.190889  0.559124  0  4.236768  0
C  C143  1  0.79290995  0.18111268  0.49595452  1  -0.057336  0  -0.076146  -0.099113  0  3.924207  0
C  C144  1  0.66783462  0.15670671  0.51118706  1  -0.042452  0  -0.017502  -0.028453  0  3.957275  0
C  C145  1  0.53723647  0.22404253  0.48361916  1  1.571762  0  0.197058  0.563638  0  4.239251  0
C  C146  1  0.66864596  0.07590620  0.55552775  1  -0.00023  0  -0.070615  -0.087841  0  3.914338  0
C  C147  1  0.82496201  0.16093765  0.11266099  1  0.477404  0  0.058961  0.11433  0  3.92986  0
C  C148  1  0.85327767  0.50410846  0.68777504  1  -0.027267  0  -0.081715  -0.180496  0  3.935489  0
C  C149  1  0.85054346  0.59335762  0.65010624  1  0.493504  0  0.044312  0.088107  0  3.958773  0
C  C150  1  0.67406359  0.52154311  0.56489933  1  0.439356  0  0.048425  0.10411  0  3.969427  0
C  C151  1  0.66986237  0.42981146  0.59946559  1  -0.019947  0  -0.087256  -0.19022  0  3.934764  0
C  C152  1  0.76153770  0.41971049  0.66208343  1  0.004946  0  0.018535  0.160159  0  3.937046  0
C  C153  1  0.76276832  0.32155113  0.70104800  1  0.286118  0  -0.063054  -0.116477  0  3.950675  0
C  C154  1  0.90911628  0.20428790  0.77956382  1  0.294152  0  -0.069151  -0.087044  0  3.915955  0
C  C155  1  0.05714234  0.16076268  0.80895451  1  0.203498  0  -0.05783  -0.078587  0  3.799851  0
C  C156  1  0.96227821  0.23865011  0.67963435  1  0.294059  0  -0.072917  -0.090267  0  3.947432  0
C  C157  1  0.10965540  0.19168426  0.70692914  1  0.17244  0  -0.05814  -0.089363  0  3.807783  0
C  C158  1  0.25101244  0.05790337  0.78216646  1  0.222974  0  -0.044488  -0.113514  0  3.806521  0
C  C159  1  0.25680671  0.98861450  0.83929847  1  -0.062806  0  0.005195  0.125772  0  3.975487  0
C  C160  1  0.33448983  0.02042175  0.90151554  1  -0.013094  0  -0.079957  -0.182301  0  3.936853  0
C  C161  1  0.32562482  0.95960581  0.95371878  1  0.437172  0  0.051582  0.102892  0  3.955076  0
C  C162  1  0.17656061  0.89542708  0.83227119  1  -0.039083  0  -0.08302  -0.183421  0  3.912779  0
C  C163  1  0.20486560  0.97881189  0.41590907  1  -0.219272  0  -0.0214  -0.096174  0  3.983146  0
C  C164  1  0.08048909  0.95508707  0.43141673  1  -0.019577  0  -0.076884  -0.099518  0  3.961871  0
C  C165  1  0.08088341  0.87343847  0.47507446  1  0.038433  0  -0.018881  -0.026748  0  3.968262  0
C  C166  1  0.94175593  0.83801308  0.48349281  1  1.537604  0  0.190753  0.558779  0  4.236968  0
C  C167  1  0.20710400  0.81887533  0.50404943  1  -0.060285  0  -0.076106  -0.099202  0  3.923908  0
C  C168  1  0.33217934  0.84329474  0.48881689  1  -0.043233  0  -0.01759  -0.028621  0  3.957641  0
C  C169  1  0.46278799  0.77597079  0.51638107  1  1.57156  0  0.197086  0.563672  0  4.23831  0
C  C170  1  0.33136852  0.92409763  0.44448275  1  -0.000322  0  -0.070457  -0.087561  0  3.914221  0
C  C171  1  0.17502338  0.83904956  0.88732746  1  0.477313  0  0.058777  0.113934  0  3.929353  0
C  C172  1  0.35326010  0.99590358  0.18777035  1  -0.027294  0  -0.081596  -0.1802  0  3.935127  0
C  C173  1  0.35052551  0.90664384  0.15010197  1  0.473656  0  0.044361  0.088312  0  3.958093  0
C  C174  1  0.17405575  0.97846680  0.06488983  1  0.440211  0  0.048657  0.104516  0  3.969556  0
C  C175  1  0.16983854  0.07019674  0.09945160  1  -0.019998  0  -0.087394  -0.19037  0  3.93498  0
C  C176  1  0.26150980  0.08029997  0.16207100  1  0.005571  0  0.018498  0.160044  0  3.936926  0
C  C177  1  0.26274565  0.17846615  0.20104351  1  0.285502  0  -0.063  -0.116385  0  3.950724  0
C  C178  1  0.40909484  0.29571544  0.27955726  1  0.295615  0  -0.069137  -0.087069  0  3.916383  0
C  C179  1  0.55712047  0.33923940  0.30894985  1  0.202742  0  -0.057775  -0.078549  0  3.799486  0
C  C180  1  0.46225572  0.26135137  0.17963217  1  0.293525  0  -0.072851  -0.09016  0  3.946924  0
C  C181  1  0.60962479  0.30831026  0.20692309  1  0.172386  0  -0.05811  -0.089318  0  3.807723  0
C  C182  1  0.75099498  0.44207556  0.28216691  1  0.222943  0  -0.044561  -0.114031  0  3.806923  0
C  C183  1  0.75681498  0.51137006  0.33930585  1  -0.062444  0  0.005141  0.126129  0  3.975093  0
C  C184  1  0.83449612  0.47955892  0.40152894  1  -0.011796  0  -0.079982  -0.182675  0  3.93638  0
C  C185  1  0.82563279  0.54036492  0.45373278  1  0.436068  0  0.0519  0.103663  0  3.954893  0
C  C186  1  0.67659263  0.60456470  0.33228532  1  -0.038733  0  -0.083059  -0.183649  0  3.91317  0
C  C187  1  0.70486336  0.52119202  0.91590237  1  -0.236019  0  -0.021334  -0.095867  0  3.983294  0
C  C188  1  0.58047335  0.54490149  0.93140851  1  -0.003705  0  -0.07695  -0.099692  0  3.961386  0
C  C189  1  0.58086581  0.62656057  0.97507719  1  0.038443  0  -0.018792  -0.026855  0  3.968154  0
C  C190  1  0.44173611  0.66198485  0.98349661  1  1.538671  0  0.190777  0.558818  0  4.237242  0
C  C191  1  0.70707667  0.68111608  0.00404578  1  -0.056807  0  -0.076203  -0.099078  0  3.924514  0
C  C192  1  0.83215199  0.65671304  0.98881288  1  -0.041733  0  -0.017471  -0.02856  0  3.957627  0
C  C193  1  0.96274423  0.72404562  0.01637899  1  1.572131  0  0.197045  0.563699  0  4.239076  0
C  C194  1  0.83135016  0.57590596  0.94447168  1  -0.000649  0  -0.070556  -0.087741  0  3.91432  0
C  C195  1  0.67504420  0.66094597  0.38734509  1  0.477316  0  0.058973  0.114415  0  3.929311  0
S  S196  1  0.30331773  0.56500563  0.15027204  1  3.160095  0  0.508577  1.175619  0  6.164751  0
S  S197  1  0.80334062  0.93498709  0.65026973  1  3.159636  0  0.508538  1.175612  0  6.165531  0
S  S198  1  0.19665712  0.06500804  0.34973141  1  3.159733  0  0.508754  1.175905  0  6.164565  0
S  S199  1  0.69668152  0.43498712  0.84973109  1  3.160632  0  0.508472  1.175603  0  6.16531  0
N  N200  1  0.73646294  0.10173151  0.91074392  1  -1.254234  0  -0.329749  -0.239061  0  3.587983  0
N  N201  1  0.59234736  0.78299688  0.77003789  1  -1.02052  0  -0.344471  -0.146302  0  3.466584  0
N  N202  1  0.39208812  0.61010376  0.74305162  1  -1.018693  0  -0.344722  -0.016706  0  3.53533  0
N  N203  1  0.25313009  0.37138952  0.55284528  1  -1.225142  0  -0.309913  -0.241858  0  3.505928  0
N  N204  1  0.23646061  0.39827384  0.41075630  1  -1.254843  0  -0.329817  -0.239233  0  3.588391  0
N  N205  1  0.09236057  0.71701605  0.27005391  1  -1.021156  0  -0.344527  -0.146868  0  3.46754  0
N  N206  1  0.89207870  0.88990374  0.24305760  1  -1.019561  0  -0.344697  -0.016766  0  3.535113  0
N  N207  1  0.75312539  0.12861014  0.05284750  1  -1.225069  0  -0.309967  -0.241994  0  3.506587  0
N  N208  1  0.76354166  0.60173473  0.58925081  1  -1.274194  0  -0.329711  -0.239082  0  3.588484  0
N  N209  1  0.90766968  0.28300280  0.72995751  1  -1.02038  0  -0.344448  -0.146475  0  3.466949  0
N  N210  1  0.10793265  0.11010009  0.75694845  1  -1.019482  0  -0.344689  -0.017146  0  3.535244  0
N  N211  1  0.24685995  0.87137075  0.94714513  1  -1.225486  0  -0.309613  -0.241389  0  3.50602  0
N  N212  1  0.26352483  0.89827548  0.08924149  1  -1.254694  0  -0.329958  -0.2395  0  3.588472  0
N  N213  1  0.40764846  0.21700062  0.22995520  1  -1.020475  0  -0.344429  -0.146443  0  3.467076  0
N  N214  1  0.60791216  0.38988979  0.25694278  1  -1.018812  0  -0.344687  -0.016883  0  3.535443  0
N  N215  1  0.74686799  0.62860402  0.44715729  1  -1.224679  0  -0.310092  -0.242248  0  3.506304  0
O  O216  1  0.93117459  0.29941251  0.00547719  1  -1.165936  0  -0.335708  -0.565377  0  2.366827  0
O  O217  1  0.03988105  0.20285597  0.94519126  1  -1.18189  0  -0.332325  -0.560829  0  2.136689  0
O  O218  1  0.55047006  0.28010442  0.96585386  1  -1.161834  0  -0.348619  -0.577616  0  2.287753  0
O  O219  1  0.67165541  0.36208936  0.05857301  1  -1.172276  0  -0.329033  -0.55066  0  2.109233  0
O  O220  1  0.28374100  0.67522037  0.12719146  1  -1.338229  0  -0.337628  -0.606986  0  2.338785  0
O  O221  1  0.19272283  0.52795949  0.17733494  1  -1.328857  0  -0.34215  -0.588722  0  2.171414  0
O  O222  1  0.45002547  0.55165416  0.19543521  1  -1.349897  0  -0.365267  -0.638051  0  2.221532  0
O  O223  1  0.43120934  0.20061581  0.50546695  1  -1.165955  0  -0.335955  -0.565643  0  2.367256  0
O  O224  1  0.53995469  0.29717103  0.44520820  1  -1.181201  0  -0.332147  -0.560822  0  2.136835  0
O  O225  1  0.05046483  0.21987657  0.46584508  1  -1.161938  0  -0.348661  -0.577604  0  2.28745  0
O  O226  1  0.17168112  0.13791484  0.55856489  1  -1.173183  0  -0.329071  -0.550835  0  2.109627  0
O  O227  1  0.78378271  0.82478218  0.62718929  1  -1.338411  0  -0.337401  -0.606793  0  2.339344  0
O  O228  1  0.69273041  0.97204283  0.67732082  1  -1.328974  0  -0.342267  -0.588827  0  2.171445  0
O  O229  1  0.95003029  0.94834515  0.69543696  1  -1.350131  0  -0.365307  -0.63812  0  2.221727  0
O  O230  1  0.56880734  0.79939989  0.49452239  1  -1.16605  0  -0.335958  -0.565692  0  2.366654  0
O  O231  1  0.46010617  0.70284467  0.55480126  1  -1.180757  0  -0.332196  -0.560808  0  2.136653  0
O  O232  1  0.94952403  0.78011935  0.53414925  1  -1.161737  0  -0.348608  -0.577618  0  2.287659  0
O  O233  1  0.82833133  0.86208661  0.44142408  1  -1.172731  0  -0.329077  -0.550745  0  2.109439  0
O  O234  1  0.21622682  0.17521769  0.37280917  1  -1.33822  0  -0.33743  -0.60683  0  2.339132  0
O  O235  1  0.30726046  0.02794201  0.32267323  1  -1.32841  0  -0.342344  -0.588902  0  2.170994  0
O  O236  1  0.04996363  0.05165156  0.30456988  1  -1.350177  0  -0.365337  -0.638116  0  2.221612  0
O  O237  1  0.06878130  0.70061426  0.99453096  1  -1.166035  0  -0.335972  -0.565685  0  2.36722  0
O  O238  1  0.96002072  0.79718425  0.05478988  1  -1.181543  0  -0.332118  -0.560842  0  2.136555  0
O  O239  1  0.44950882  0.71987805  0.03415073  1  -1.161902  0  -0.348638  -0.577567  0  2.287791  0
O  O240  1  0.32830891  0.63791763  0.94142707  1  -1.173384  0  -0.32906  -0.550737  0  2.109501  0
O  O241  1  0.71624521  0.32478108  0.87280913  1  -1.33846  0  -0.3375  -0.60696  0  2.339229  0
O  O242  1  0.80730053  0.47203564  0.82268236  1  -1.328956  0  -0.342223  -0.588747  0  2.171346  0
O  O243  1  0.54999691  0.44834966  0.80456066  1  -1.350083  0  -0.365183  -0.638052  0  2.221825  0
