# generated using pymatgen
data_CoH20(C3O2)4
_symmetry_space_group_name_H-M   'P 1'
_cell_length_a   7.23677544
_cell_length_b   10.59503745
_cell_length_c   10.59490508
_cell_angle_alpha   76.25406687
_cell_angle_beta   75.87574622
_cell_angle_gamma   75.87566440
_symmetry_Int_Tables_number   1
_chemical_formula_structural   CoH20(C3O2)4
_chemical_formula_sum   'Co2 H40 C24 O16'
_cell_volume   750.15848990
_cell_formula_units_Z   2
loop_
 _symmetry_equiv_pos_site_id
 _symmetry_equiv_pos_as_xyz
  1  'x, y, z'
loop_
 _atom_site_type_symbol
 _atom_site_label
 _atom_site_symmetry_multiplicity
 _atom_site_fract_x
 _atom_site_fract_y
 _atom_site_fract_z
 _atom_site_occupancy
 _atom_site_hle17_ddec_charge
 _atom_site_hle17_ddec_spin_density
 _atom_site_hle17_ddec_sum_bond_order
 _atom_site_hle17_magmom
 _atom_site_hse06_10hf_ddec_charge
 _atom_site_hse06_10hf_ddec_spin_density
 _atom_site_hse06_10hf_ddec_sum_bond_order
 _atom_site_hse06_10hf_magmom
 _atom_site_hse06_ddec_charge
 _atom_site_hse06_ddec_spin_density
 _atom_site_hse06_ddec_sum_bond_order
 _atom_site_hse06_magmom
 _atom_site_pbe_cm5_charge
 _atom_site_pbe_ddec_charge
 _atom_site_pbe_ddec_spin_density
 _atom_site_pbe_ddec_sum_bond_order
 _atom_site_pbe_magmom
Co  Co0  1  0.50000142  0.49999804  0.99999993  1  1.070995  2.852706  1.898011  2.618  1.039978  2.856226  2.284411  2.679  1.112379  2.889175  2.214965  2.744  0.657141  0.980525  2.826476  2.336738  2.616
Co  Co1  1  0.99999879  0.00000250  0.49999911  1  1.070994  2.852707  1.898069  2.618  1.039932  2.856226  2.284494  2.679  1.112364  2.88918  2.215018  2.744  0.65713  0.980505  2.826479  2.336799  2.616
H  H2  1  0.22152448  0.28179013  0.98319589  1  0.100914  -0.000123  0.959997  0.0  0.107876  -0.000207  1.027987  0.0  0.111698  -0.000204  1.024728  0.0  0.107791  0.104907  -0.000233  1.030436  0.0
H  H3  1  0.27848810  0.01679575  0.71820650  1  0.101159  -0.000122  0.960216  0.0  0.108071  -0.000207  1.028198  0.0  0.111893  -0.000204  1.024938  0.0  0.107861  0.105103  -0.000233  1.030642  0.0
H  H4  1  0.77847388  0.71820962  0.01680418  1  0.101145  -0.000122  0.960171  0.0  0.108047  -0.000207  1.028163  0.0  0.111869  -0.000204  1.024905  0.0  0.107853  0.105082  -0.000233  1.030606  0.0
H  H5  1  0.72151341  0.98319806  0.28179542  1  0.101086  -0.000124  0.960167  0.0  0.108035  -0.000207  1.028102  0.0  0.111855  -0.000204  1.024845  0.0  0.107849  0.105064  -0.000233  1.030548  0.0
H  H6  1  0.25001209  0.24303145  0.75695677  1  0.07928  0.000107  0.966284  0.0  0.095559  0.000143  1.020681  0.0  0.097633  9.9e-05  1.021558  0.0  0.101349  0.093701  0.000191  1.020594  0.0
H  H7  1  0.74997517  0.75696730  0.24304067  1  0.079399  0.000109  0.966416  0.0  0.095745  0.000143  1.020703  0.0  0.097821  9.9e-05  1.021574  0.0  0.101409  0.093893  0.000191  1.02061  0.0
H  H8  1  0.25002346  0.86464310  0.13535487  1  0.100658  0.000265  0.959362  0.0  0.108651  0.000102  1.026947  0.0  0.112859  3.7e-05  1.022991  0.0  0.105156  0.105266  0.000158  1.030226  0.0
H  H9  1  0.74999315  0.13535269  0.86464783  1  0.100704  0.000266  0.959257  0.0  0.108688  0.000102  1.026865  0.0  0.112896  3.7e-05  1.02291  0.0  0.105184  0.105322  0.000158  1.030134  0.0
H  H10  1  0.25891776  0.33953899  0.16293309  1  0.386208  0.000441  0.913294  0.001  0.360344  0.000576  0.984927  0.002  0.371298  0.000416  0.972664  0.001  0.299634  0.352573  0.000719  0.993035  0.002
H  H11  1  0.24108268  0.83706665  0.66046091  1  0.386065  0.000441  0.91341  0.001  0.360211  0.000576  0.985009  0.002  0.371166  0.000415  0.97281  0.001  0.299587  0.35244  0.00072  0.993101  0.002
H  H12  1  0.74108431  0.66046274  0.83706495  1  0.386048  0.000441  0.913397  0.001  0.360198  0.000577  0.984996  0.002  0.371153  0.000416  0.972822  0.001  0.299585  0.352431  0.00072  0.993083  0.002
H  H13  1  0.75891883  0.16293210  0.33953604  1  0.386047  0.000441  0.913413  0.001  0.360204  0.000577  0.985012  0.002  0.371157  0.000416  0.972832  0.001  0.299596  0.352437  0.00072  0.993104  0.002
H  H14  1  0.07915667  0.61758505  0.13243140  1  0.083709  -6.9e-05  0.966948  0.0  0.099536  8e-06  1.034325  0.001  0.099134  -7e-05  1.035891  0.0  0.098264  0.100102  0.000101  1.033142  0.001
H  H15  1  0.42084976  0.86756713  0.38241396  1  0.083686  -6.8e-05  0.966965  0.0  0.099537  8e-06  1.034326  0.001  0.099134  -7e-05  1.035892  0.0  0.098264  0.100103  0.000101  1.033147  0.001
H  H16  1  0.92084711  0.38241569  0.86756753  1  0.083722  -6.9e-05  0.966957  0.0  0.099579  8e-06  1.034304  0.001  0.099175  -6.9e-05  1.035871  0.0  0.098284  0.100144  0.000101  1.033123  0.001
H  H17  1  0.57914946  0.13243460  0.61758360  1  0.083702  -6.9e-05  0.967016  0.0  0.099515  8e-06  1.034402  0.001  0.099113  -7e-05  1.035968  0.0  0.098286  0.100088  0.000101  1.033218  0.001
H  H18  1  0.03123938  0.49713002  0.28044947  1  0.051685  0.00088  0.949052  0.001  0.069484  0.000801  1.019512  0.001  0.069525  0.000538  1.019233  0.001  0.084434  0.069611  0.001088  1.019697  0.001
H  H19  1  0.46876643  0.71955174  0.50287205  1  0.051677  0.000882  0.949041  0.001  0.069462  0.000801  1.019525  0.001  0.069502  0.000537  1.019247  0.001  0.084432  0.069587  0.001088  1.01971  0.001
H  H20  1  0.96876269  0.50287171  0.71955045  1  0.051694  0.00088  0.949002  0.001  0.069498  0.000801  1.019461  0.001  0.069539  0.000538  1.019182  0.001  0.084443  0.069626  0.001088  1.019648  0.001
H  H21  1  0.53124249  0.28045098  0.49712272  1  0.051691  0.000881  0.949001  0.001  0.069488  0.000801  1.019461  0.001  0.069528  0.000538  1.019184  0.001  0.084448  0.069615  0.001088  1.019648  0.001
H  H22  1  0.96296873  0.48642072  0.13255598  1  0.083406  0.000559  0.957959  0.001  0.099769  0.000403  1.020906  0.001  0.100856  0.000199  1.020141  0.0  0.094939  0.099244  0.000694  1.021397  0.001
H  H23  1  0.53703015  0.86744595  0.51358280  1  0.083349  0.000559  0.957965  0.001  0.099717  0.000403  1.020914  0.001  0.100803  0.000199  1.020152  0.0  0.094919  0.099191  0.000694  1.02141  0.001
H  H24  1  0.03703334  0.51358101  0.86744300  1  0.083357  0.000557  0.957971  0.001  0.099728  0.000403  1.020913  0.001  0.100813  0.000199  1.020153  0.0  0.094913  0.099206  0.000694  1.021397  0.001
H  H25  1  0.46296621  0.13256074  0.48641594  1  0.083395  0.000559  0.957958  0.001  0.099768  0.000403  1.02089  0.001  0.100855  0.0002  1.020132  0.0  0.09493  0.09925  0.000694  1.021368  0.001
H  H26  1  0.33490695  0.60529045  0.81117453  1  0.365185  -0.000802  0.929742  -0.001  0.338749  -0.000201  1.00169  0.0  0.350664  -0.00032  0.989432  0.0  0.294135  0.330199  -6.5e-05  1.010402  0.0
H  H27  1  0.16509232  0.18882821  0.39471315  1  0.365234  -0.000802  0.929693  -0.001  0.338819  -0.000201  1.001609  0.0  0.350731  -0.000318  0.98935  0.0  0.294161  0.330269  -6.5e-05  1.010333  0.0
H  H28  1  0.66509142  0.39470930  0.18882931  1  0.365148  -0.000802  0.929746  -0.001  0.338746  -0.000201  1.001645  0.0  0.350657  -0.00032  0.989389  0.0  0.294139  0.330196  -6.5e-05  1.010375  0.0
H  H29  1  0.83490462  0.81117650  0.60528597  1  0.365231  -0.000802  0.929641  -0.001  0.338795  -0.000201  1.001584  0.0  0.350707  -0.000318  0.989327  0.0  0.294177  0.330244  -6.5e-05  1.010317  0.0
H  H30  1  0.40491817  0.45986078  0.65023058  1  0.052024  0.001634  0.948127  0.002  0.068385  0.00148  1.019275  0.001  0.068746  0.001049  1.018194  0.001  0.084794  0.068424  0.001817  1.019732  0.002
H  H31  1  0.09508851  0.34977293  0.54014095  1  0.051961  0.001635  0.948091  0.002  0.068321  0.00148  1.019242  0.001  0.068679  0.001049  1.018162  0.001  0.084758  0.068352  0.001817  1.019709  0.002
H  H32  1  0.59507506  0.54014195  0.34977246  1  0.052012  0.001634  0.948141  0.002  0.068369  0.00148  1.019293  0.001  0.06873  0.001048  1.018211  0.001  0.084795  0.068404  0.001817  1.019756  0.002
H  H33  1  0.90491897  0.65023474  0.45985571  1  0.052008  0.001636  0.948022  0.002  0.06837  0.00148  1.019184  0.001  0.06873  0.001048  1.018103  0.001  0.0848  0.068405  0.001817  1.019646  0.002
H  H34  1  0.61548758  0.50507674  0.67478573  1  0.065004  0.000132  0.949312  0.001  0.081256  9.1e-05  1.016848  0.0  0.082156  -4e-05  1.01593  0.0  0.089645  0.080679  0.000267  1.017439  0.001
H  H35  1  0.88451660  0.32521766  0.49492553  1  0.065007  0.000133  0.949355  0.001  0.081267  9.1e-05  1.016869  0.0  0.082167  -4e-05  1.015952  0.0  0.089641  0.080692  0.000267  1.017456  0.001
H  H36  1  0.38450794  0.49492301  0.32521481  1  0.064955  0.000132  0.949339  0.001  0.081203  9.1e-05  1.016884  0.0  0.082103  -4e-05  1.015967  0.0  0.089619  0.080631  0.000266  1.017475  0.001
H  H37  1  0.11548746  0.67479200  0.50507216  1  0.064961  0.000132  0.949379  0.001  0.081226  9.1e-05  1.016895  0.0  0.082124  -4e-05  1.015976  0.0  0.089659  0.080647  0.000266  1.017483  0.001
H  H38  1  0.55583530  0.34761887  0.75679438  1  0.089166  -4.1e-05  0.94033  0.0  0.106686  -4.1e-05  1.00524  0.0  0.106581  -7.8e-05  1.006015  0.0  0.102678  0.107079  5.3e-05  1.004496  0.0
H  H39  1  0.94416649  0.24321245  0.65238511  1  0.089136  -4e-05  0.940357  0.0  0.106648  -4.1e-05  1.005269  0.0  0.106545  -7.7e-05  1.00604  0.0  0.102657  0.107045  5.3e-05  1.00452  0.0
H  H40  1  0.44416022  0.65238088  0.24320522  1  0.089134  -4.1e-05  0.940316  0.0  0.106655  -4.1e-05  1.005233  0.0  0.106549  -7.8e-05  1.006009  0.0  0.102659  0.107048  5.3e-05  1.004484  0.0
H  H41  1  0.05583643  0.75679621  0.34761301  1  0.089185  -4.2e-05  0.940224  0.0  0.106702  -4.1e-05  1.005136  0.0  0.106597  -7.8e-05  1.005909  0.0  0.102678  0.107093  5.2e-05  1.004393  0.0
C  C42  1  0.19219454  0.09294109  0.21560657  1  0.670389  -0.007858  3.848192  -0.006  0.61688  -0.002145  4.151447  -0.001  0.653918  -0.00121  4.14168  0.0  0.223467  0.59052  -0.004562  4.158378  -0.002
C  C43  1  0.30780404  0.78439358  0.90704899  1  0.670379  -0.007859  3.848143  -0.006  0.616868  -0.002148  4.151384  -0.001  0.653912  -0.001207  4.141616  0.0  0.223479  0.590503  -0.004559  4.158319  -0.002
C  C44  1  0.80779329  0.90704578  0.78439834  1  0.670289  -0.007865  3.84812  -0.006  0.61678  -0.002145  4.1514  -0.001  0.65382  -0.001203  4.141634  0.0  0.223406  0.590413  -0.00456  4.158333  -0.002
C  C45  1  0.69219006  0.21560616  0.09294519  1  0.670412  -0.007859  3.848067  -0.006  0.616899  -0.002149  4.151324  -0.001  0.653931  -0.001204  4.141561  0.0  0.223509  0.590545  -0.00456  4.15825  -0.002
C  C46  1  0.22719634  0.07546530  0.07539462  1  -0.081984  0.004435  3.769791  0.007  -0.058348  0.001873  4.008331  0.003  -0.069524  0.001473  4.032351  0.002  -0.020332  -0.050999  0.002221  3.992728  0.004
C  C47  1  0.27281253  0.92459844  0.92454035  1  -0.081753  0.004439  3.769551  0.007  -0.058072  0.001873  4.008043  0.003  -0.06925  0.001469  4.032065  0.002  -0.020282  -0.050719  0.002221  3.99243  0.004
C  C48  1  0.77280373  0.92453841  0.92460516  1  -0.081795  0.00444  3.769571  0.007  -0.058155  0.001873  4.008113  0.003  -0.069329  0.001471  4.032135  0.002  -0.020347  -0.050795  0.002221  3.992498  0.004
C  C49  1  0.72718612  0.07539538  0.07546865  1  -0.081921  0.004441  3.769727  0.007  -0.058206  0.001873  4.008174  0.003  -0.069383  0.00147  4.032198  0.002  -0.020261  -0.050858  0.002221  3.992573  0.004
C  C50  1  0.23253446  0.18201920  0.96772090  1  -0.041064  -0.005933  3.691537  -0.003  -0.070738  -0.0017  3.944443  -0.001  -0.066764  -0.000979  3.96183  0.0  -0.074072  -0.073356  -0.003594  3.933163  -0.002
C  C51  1  0.26747841  0.03226996  0.81796421  1  -0.041312  -0.005938  3.691201  -0.003  -0.070967  -0.0017  3.94412  -0.001  -0.066988  -0.000977  3.961499  0.0  -0.073991  -0.073584  -0.003596  3.932832  -0.002
C  C52  1  0.76746108  0.81797063  0.03227447  1  -0.041259  -0.005936  3.691222  -0.003  -0.07088  -0.001699  3.94417  -0.001  -0.066909  -0.000977  3.961556  0.0  -0.074016  -0.073488  -0.003594  3.932857  -0.002
C  C53  1  0.73252025  0.96772879  0.18203038  1  -0.041141  -0.005933  3.691528  -0.003  -0.070795  -0.001699  3.944443  -0.001  -0.066822  -0.000978  3.961829  0.0  -0.074055  -0.073412  -0.003594  3.933156  -0.002
C  C54  1  0.25000882  0.15974022  0.84025665  1  -0.089533  0.002202  3.769388  0.003  -0.097254  0.000531  4.018819  0.001  -0.103208  0.000405  4.041106  0.001  -0.094507  -0.093795  0.00078  4.004894  0.001
C  C55  1  0.74998556  0.84025359  0.15975117  1  -0.089834  0.002197  3.769267  0.003  -0.097643  0.000531  4.01875  0.001  -0.103594  0.000404  4.041028  0.001  -0.094625  -0.094187  0.00078  4.004834  0.001
C  C56  1  0.25000631  0.94765924  0.05233848  1  -0.051864  -0.006132  3.70338  -0.004  -0.08734  -0.001481  3.947032  -0.001  -0.083588  -0.000976  3.966374  -0.001  -0.071951  -0.090295  -0.002667  3.935239  -0.002
C  C57  1  0.74999549  0.05233853  0.94765960  1  -0.051865  -0.006141  3.70302  -0.004  -0.087366  -0.001482  3.946714  -0.001  -0.083616  -0.000978  3.966055  -0.001  -0.071964  -0.090346  -0.002667  3.934932  -0.002
C  C58  1  0.07299481  0.51301934  0.17134320  1  -0.014739  0.000498  3.648513  0.001  -0.104639  0.00109  3.916229  0.001  -0.097435  0.000584  3.921424  0.001  -0.153336  -0.110254  0.00171  3.912088  0.002
C  C59  1  0.42700931  0.82865668  0.48698283  1  -0.014651  0.000491  3.648461  0.001  -0.104587  0.001093  3.916172  0.001  -0.09738  0.000584  3.921369  0.001  -0.153324  -0.110211  0.00171  3.912044  0.002
C  C60  1  0.92700812  0.48698437  0.82865611  1  -0.014751  0.000503  3.648492  0.001  -0.104685  0.001091  3.916191  0.001  -0.09748  0.000583  3.921389  0.001  -0.153346  -0.110307  0.00171  3.91206  0.002
C  C61  1  0.57299248  0.17134603  0.51301407  1  -0.014781  0.000499  3.64849  0.001  -0.104678  0.001093  3.916209  0.001  -0.097479  0.000583  3.921411  0.001  -0.15338  -0.110297  0.00171  3.912071  0.002
C  C62  1  0.49533162  0.45232293  0.72280590  1  -0.015092  -0.001853  3.67636  -0.002  -0.105847  -5.7e-05  3.946955  0.0  -0.098326  -0.000456  3.952567  0.0  -0.147463  -0.111497  0.000445  3.942534  0.0
C  C63  1  0.00467115  0.27719915  0.54767899  1  -0.015049  -0.001861  3.676309  -0.002  -0.105785  -5.9e-05  3.946878  0.0  -0.098264  -0.000461  3.952496  0.0  -0.147429  -0.111426  0.000445  3.942459  0.0
C  C64  1  0.50466447  0.54767485  0.27719879  1  -0.014994  -0.001855  3.676278  -0.002  -0.105745  -5.7e-05  3.946865  0.0  -0.098225  -0.000458  3.952482  0.0  -0.147412  -0.111393  0.000445  3.942444  0.0
C  C65  1  0.99533319  0.72280952  0.45231984  1  -0.015039  -0.001858  3.676205  -0.002  -0.105802  -5.7e-05  3.946774  0.0  -0.098282  -0.000455  3.952393  0.0  -0.147485  -0.111452  0.000445  3.942359  0.0
O  O66  1  0.13437805  0.99917012  0.30471565  1  -0.631609  0.028826  2.103798  0.058  -0.590008  0.021723  2.372709  0.039  -0.622354  0.017593  2.359117  0.032  -0.310225  -0.566284  0.025743  2.382325  0.046
O  O67  1  0.36561930  0.69527796  0.00083545  1  -0.631857  0.028841  2.103396  0.058  -0.590263  0.021731  2.372267  0.039  -0.622611  0.017598  2.358679  0.032  -0.310395  -0.56656  0.025755  2.381931  0.046
O  O68  1  0.86561148  0.00083557  0.69527975  1  -0.631813  0.028845  2.103281  0.058  -0.590177  0.021733  2.372099  0.039  -0.622532  0.017597  2.358508  0.032  -0.310335  -0.566496  0.025756  2.381812  0.046
O  O69  1  0.63437308  0.30471288  0.99917341  1  -0.631708  0.028824  2.103609  0.058  -0.590103  0.021724  2.372498  0.039  -0.622443  0.017591  2.358908  0.032  -0.310326  -0.566392  0.025743  2.382136  0.046
O  O70  1  0.21997337  0.19857241  0.24154340  1  -0.61933  -0.000244  2.025651  0.001  -0.555871  0.000214  2.242044  0.001  -0.58097  8.6e-05  2.230926  0.001  -0.308597  -0.53948  0.000153  2.250208  0.002
O  O71  1  0.28003097  0.75845730  0.80143231  1  -0.619108  -0.000247  2.026121  0.001  -0.555647  0.000215  2.242499  0.001  -0.580751  8.7e-05  2.231391  0.001  -0.308462  -0.539253  0.000152  2.250644  0.002
O  O72  1  0.78002498  0.80143229  0.75845737  1  -0.619063  -0.000245  2.026181  0.001  -0.555604  0.000214  2.242564  0.001  -0.580704  8.4e-05  2.231462  0.001  -0.308426  -0.5392  0.000151  2.250693  0.002
O  O73  1  0.71997366  0.24154048  0.19857286  1  -0.619166  -0.000244  2.025716  0.001  -0.555769  0.000215  2.242147  0.001  -0.580855  8.6e-05  2.231037  0.001  -0.308552  -0.539378  0.000153  2.250306  0.002
O  O74  1  0.26245993  0.43682387  0.13152593  1  -0.559265  0.02622  2.291968  0.048  -0.507156  0.023385  2.563435  0.039  -0.533859  0.017833  2.550352  0.03  -0.410537  -0.484851  0.029923  2.57042  0.05
O  O75  1  0.23754082  0.86847518  0.56317242  1  -0.559147  0.026213  2.292017  0.048  -0.506995  0.023379  2.563451  0.039  -0.533701  0.017831  2.550419  0.03  -0.410467  -0.484701  0.029917  2.570437  0.05
O  O76  1  0.73754357  0.56317291  0.86847682  1  -0.559108  0.026213  2.292042  0.048  -0.50699  0.023381  2.563502  0.039  -0.533689  0.017831  2.55049  0.03  -0.410477  -0.484691  0.029918  2.570478  0.05
O  O77  1  0.76245784  0.13152357  0.43682596  1  -0.559106  0.02622  2.29199  0.048  -0.506982  0.023384  2.563432  0.039  -0.533689  0.017833  2.550416  0.03  -0.410492  -0.48468  0.029923  2.570412  0.05
O  O78  1  0.37961730  0.50462626  0.83583967  1  -0.539448  0.028727  2.260603  0.052  -0.486255  0.024944  2.52143  0.042  -0.513484  0.019215  2.510782  0.033  -0.403889  -0.464409  0.031047  2.527659  0.051
O  O79  1  0.12038293  0.16416464  0.49537639  1  -0.539472  0.028726  2.260546  0.052  -0.486311  0.024944  2.521371  0.042  -0.513538  0.019213  2.510721  0.033  -0.403919  -0.464468  0.031046  2.52761  0.051
O  O80  1  0.62038591  0.49537151  0.16416384  1  -0.539461  0.028727  2.260593  0.052  -0.48627  0.024943  2.521383  0.042  -0.5135  0.019216  2.510743  0.033  -0.403925  -0.464424  0.031047  2.527626  0.051
O  O81  1  0.87961458  0.83584304  0.50462193  1  -0.539512  0.028725  2.260533  0.052  -0.486313  0.024943  2.521366  0.042  -0.513537  0.019214  2.510712  0.033  -0.403934  -0.46447  0.031046  2.527612  0.051
