# generated using pymatgen
data_KH21C20S2(ClO2)2
_symmetry_space_group_name_H-M   'P 1'
_cell_length_a   7.28113719
_cell_length_b   9.35502027
_cell_length_c   17.05750690
_cell_angle_alpha   77.93891118
_cell_angle_beta   76.99079406
_cell_angle_gamma   84.87565043
_symmetry_Int_Tables_number   1
_chemical_formula_structural   KH21C20S2(ClO2)2
_chemical_formula_sum   'K2 H42 C40 S4 Cl4 O8'
_cell_volume   1105.97432210
_cell_formula_units_Z   2
loop_
 _symmetry_equiv_pos_site_id
 _symmetry_equiv_pos_as_xyz
  1  'x, y, z'
loop_
 _atom_site_type_symbol
 _atom_site_label
 _atom_site_symmetry_multiplicity
 _atom_site_fract_x
 _atom_site_fract_y
 _atom_site_fract_z
 _atom_site_occupancy
 _atom_site_hle17_bader_spin_density
 _atom_site_hle17_ddec_charge
 _atom_site_hle17_ddec_spin_density
 _atom_site_hle17_ddec_sum_bond_order
 _atom_site_hle17_magmom
 _atom_site_hse06_10hf_bader_spin_density
 _atom_site_hse06_10hf_ddec_charge
 _atom_site_hse06_10hf_ddec_spin_density
 _atom_site_hse06_10hf_ddec_sum_bond_order
 _atom_site_hse06_10hf_magmom
 _atom_site_hse06_bader_spin_density
 _atom_site_hse06_ddec_charge
 _atom_site_hse06_ddec_spin_density
 _atom_site_hse06_ddec_sum_bond_order
 _atom_site_hse06_magmom
 _atom_site_pbe_bader_spin_density
 _atom_site_pbe_cm5_charge
 _atom_site_pbe_ddec_charge
 _atom_site_pbe_ddec_spin_density
 _atom_site_pbe_ddec_sum_bond_order
 _atom_site_pbe_magmom
K  K0  1  0.63824489  0.68813146  0.96380206  1  0  0.908967  0  0.472917  0  0  0.845763  0  0.671666  0  0  0.862075  0  0.648061  0  0  0.729468  0.834219  0  0.687685  0
K  K1  1  0.36175970  0.31186629  0.03620386  1  0  0.908962  0  0.472939  0  0  0.845804  0  0.671614  0  0  0.862068  0  0.648098  0  0  0.729496  0.834255  0  0.687626  0
H  H2  1  0.38809764  0.91299987  0.55876988  1  0  0.102631  0  0.971826  0  0  0.121737  0  1.037914  0  0  0.123376  0  1.037337  0  0  0.083727  0.120732  0  1.038095  0
H  H3  1  0.61187784  0.08699234  0.44123630  1  0  0.10263  0  0.971879  0  0  0.121739  0  1.03794  0  0  0.123389  0  1.037346  0  0  0.083744  0.120717  0  1.03814  0
H  H4  1  0.55067983  0.82774461  0.62004917  1  0  0.108721  0  0.955528  0  0  0.130233  0  1.018065  0  0  0.131645  0  1.017402  0  0  0.088965  0.128757  0  1.019809  0
H  H5  1  0.44929057  0.17223883  0.37995788  1  0  0.108724  0  0.955558  0  0  0.130271  0  1.018042  0  0  0.131678  0  1.017388  0  0  0.08899  0.128798  0  1.019786  0
H  H6  1  0.30844462  0.79970043  0.65582475  1  0  0.106581  0  0.955478  0  0  0.127877  0  1.017561  0  0  0.12905  0  1.017502  0  0  0.087436  0.125728  0  1.020687  0
H  H7  1  0.69152439  0.20030055  0.34418684  1  0  0.106704  0  0.955288  0  0  0.127915  0  1.017471  0  0  0.129088  0  1.017411  0  0  0.08744  0.125773  0  1.020592  0
H  H8  1  0.35250496  0.16747952  0.55133820  1  0  0.107635  0  0.948743  0  0  0.119042  0  1.009857  0  0  0.122183  0  1.008263  0  0  0.100233  0.116989  0  1.010756  0
H  H9  1  0.64748186  0.83251162  0.44866711  1  0  0.107682  0  0.948652  0  0  0.119006  0  1.009854  0  0  0.122147  0  1.008261  0  0  0.100248  0.116953  0  1.010748  0
H  H10  1  0.20580388  0.43863088  0.78814021  1  0  0.097584  0  0.982899  0  0  0.112211  0  1.058048  0  0  0.113413  0  1.058431  0  0  0.081  0.111846  0  1.057527  0
H  H11  1  0.79420886  0.56138214  0.21185092  1  0  0.097616  0  0.982832  0  0  0.112256  0  1.057963  0  0  0.113459  0  1.058346  0  0  0.081055  0.111894  0  1.057444  0
H  H12  1  0.41859721  0.37993584  0.82236706  1  0  0.106791  0  0.961258  0  0  0.125699  0  1.026594  0  0  0.127697  0  1.025948  0  0  0.092841  0.124382  0  1.02714  0
H  H13  1  0.58141101  0.62008265  0.17762325  1  0  0.106863  0  0.961199  0  0  0.125703  0  1.026601  0  0  0.127697  0  1.025961  0  0  0.092846  0.12439  0  1.027139  0
H  H14  1  0.42554817  0.49510412  0.72461877  1  0  0.110096  0  0.962862  0  0  0.131392  0  1.022715  0  0  0.132429  0  1.023292  0  0  0.085583  0.12949  0  1.025261  0
H  H15  1  0.57446102  0.50490013  0.27537075  1  0  0.110212  0  0.962826  0  0  0.131461  0  1.022723  0  0  0.132498  0  1.023299  0  0  0.085655  0.129558  0  1.025276  0
H  H16  1  0.40979572  0.11855414  0.83950654  1  0  0.104057  0  0.948782  0  0  0.114033  0  1.01208  0  0  0.117656  0  1.009574  0  0  0.104657  0.111428  0  1.013837  0
H  H17  1  0.59020551  0.88145780  0.16049158  1  0  0.104033  0  0.948809  0  0  0.114011  0  1.012111  0  0  0.117632  0  1.009609  0  0  0.104649  0.111408  0  1.013864  0
H  H18  1  0.10687268  0.86069559  0.86218766  1  0  0.138154  0  0.947068  0  0  0.147734  0  1.011804  0  0  0.151483  0  1.009334  0  0  0.109571  0.144755  0  1.013855  0
H  H19  1  0.89312015  0.13929334  0.13781269  1  0  0.138255  0  0.947098  0  0  0.147746  0  1.011909  0  0  0.151498  0  1.009434  0  0  0.109561  0.144773  0  1.013953  0
H  H20  1  0.15113499  0.74261650  0.79011655  1  0  0.119452  0  0.930068  0  0  0.134669  0  0.987596  0  0  0.137257  0  0.986262  0  0  0.106741  0.133016  0  0.988688  0
H  H21  1  0.84887491  0.25736919  0.20988327  1  0  0.11947  0  0.930219  0  0  0.134699  0  0.987677  0  0  0.137289  0  0.986343  0  0  0.106753  0.133041  0  0.98878  0
H  H22  1  0.68776684  0.60940712  0.74495433  1  0  0.093125  0  0.995928  0  0  0.107078  0  1.072952  0  0  0.10864  0  1.072918  0  0  0.081733  0.105776  0  1.074152  0
H  H23  1  0.31223721  0.39060591  0.25504225  1  0  0.093122  0  0.995871  0  0  0.10709  0  1.072877  0  0  0.108653  0  1.072836  0  0  0.081763  0.105783  0  1.07408  0
H  H24  1  0.93564378  0.60269859  0.73365572  1  0  0.098111  0  0.958701  0  0  0.116018  0  1.027759  0  0  0.117783  0  1.026601  0  0  0.084502  0.114527  0  1.028964  0
H  H25  1  0.06436947  0.39730459  0.26633826  1  0  0.09813  0  0.958745  0  0  0.116018  0  1.027823  0  0  0.117781  0  1.026665  0  0  0.08449  0.114527  0  1.029028  0
H  H26  1  0.83406450  0.65692367  0.64572174  1  0  0.106483  0  0.961744  0  0  0.127722  0  1.022717  0  0  0.12913  0  1.022489  0  0  0.085022  0.12681  0  1.022928  0
H  H27  1  0.16594439  0.34308060  0.35427367  1  0  0.106524  0  0.961744  0  0  0.127739  0  1.022745  0  0  0.129154  0  1.022495  0  0  0.085045  0.126823  0  1.022961  0
H  H28  1  0.83531561  0.48233446  0.56535065  1  0  0.104966  0  0.962392  0  0  0.111892  0  1.032529  0  0  0.115251  0  1.030199  0  0  0.093738  0.109046  0  1.034744  0
H  H29  1  0.16466983  0.51765993  0.43464972  1  0  0.104967  0  0.962379  0  0  0.111905  0  1.032512  0  0  0.115265  0  1.030182  0  0  0.093762  0.109062  0  1.034719  0
H  H30  1  0.78903477  0.94989214  0.62970897  1  0  0.102891  0  0.976181  0  0  0.120632  0  1.046217  0  0  0.121716  0  1.046532  0  0  0.084592  0.120199  0  1.045463  0
H  H31  1  0.21094281  0.05010993  0.37029823  1  0  0.103004  0  0.976077  0  0  0.120753  0  1.046092  0  0  0.121845  0  1.0464  0  0  0.084656  0.120319  0  1.045335  0
H  H32  1  0.89012543  0.89996747  0.71795362  1  0  0.106132  0  0.947271  0  0  0.131859  0  1.002204  0  0  0.133162  0  1.002064  0  0  0.091059  0.131146  0  1.002108  0
H  H33  1  0.10984642  0.10003569  0.28205454  1  0  0.106106  0  0.947257  0  0  0.131832  0  1.002217  0  0  0.133136  0  1.002076  0  0  0.091054  0.131116  0  1.002114  0
H  H34  1  0.03454051  0.95584159  0.61868184  1  0  0.106262  0  0.972289  0  0  0.126866  0  1.038082  0  0  0.127678  0  1.038766  0  0  0.083702  0.126555  0  1.037795  0
H  H35  1  0.96543362  0.04414517  0.38133036  1  0  0.106113  0  0.972223  0  0  0.126827  0  1.037956  0  0  0.127639  0  1.038641  0  0  0.083652  0.126513  0  1.037675  0
H  H36  1  0.87260198  0.07232870  0.79823747  1  0  0.094431  0  0.986379  0  0  0.10769  0  1.04761  0  0  0.109912  0  1.047161  0  0  0.100377  0.105592  0  1.048577  0
H  H37  1  0.12739368  0.92767779  0.20176705  1  0  0.094372  0  0.98636  0  0  0.107659  0  1.047562  0  0  0.109881  0  1.047113  0  0  0.100357  0.105544  0  1.048543  0
H  H38  1  0.04518392  0.14269087  0.87791309  1  0  0.123892  0  0.945715  0  0  0.135936  0  1.008121  0  0  0.137794  0  1.008066  0  0  0.106274  0.134613  0  1.008232  0
H  H39  1  0.95483768  0.85731451  0.12207932  1  0  0.123797  0  0.945644  0  0  0.135867  0  1.008009  0  0  0.137726  0  1.00795  0  0  0.106206  0.134537  0  1.008127  0
H  H40  1  0.95235804  0.21310476  0.96774931  1  0  0.14446  0  0.933459  0  0  0.160071  0  0.987438  0  0  0.162806  0  0.986256  0  0  0.118017  0.157959  0  0.988661  0
H  H41  1  0.04767652  0.78689410  0.03224507  1  0  0.144598  0  0.93328  0  0  0.160172  0  0.987275  0  0  0.162908  0  0.986097  0  0  0.118066  0.15806  0  0.988497  0
H  H42  1  0.00000394  0.49999217  0.00000187  1  0  0.38878  0  0.921408  0  0  0.357001  0  1.000361  0  0  0.371444  0  0.98439  0  0  0.289003  0.346936  0  1.009876  0
H  H43  1  0.50001544  0.00000968  0.99999473  1  0  0.388391  0  0.923685  0  0  0.356131  0  1.004023  0  0  0.370597  0  0.987572  0  0  0.287273  0.346095  0  1.013529  0
C  C44  1  0.40376285  0.00402653  0.74323776  1  0  -0.021683  0  3.752293  0  0  -0.004417  0  4.004392  0  0  -0.00687  0  4.029572  0  0  -0.018664  -0.002224  0  3.986554  0
C  C45  1  0.59623214  0.99597117  0.25676373  1  0  -0.021665  0  3.752491  0  0  -0.004379  0  4.004572  0  0  -0.006833  0  4.029752  0  0  -0.018606  -0.002185  0  3.986732  0
C  C46  1  0.39119524  0.01461086  0.66085391  1  0  0.122728  0  3.741916  0  0  0.143631  0  3.979466  0  0  0.144428  0  4.004823  0  0  -0.009986  0.143508  0  3.961511  0
C  C47  1  0.60879965  0.98538795  0.33914804  1  0  0.122687  0  3.74191  0  0  0.143591  0  3.979428  0  0  0.14439  0  4.004785  0  0  -0.009997  0.143464  0  3.96148  0
C  C48  1  0.41011078  0.88262935  0.62173977  1  0  -0.341044  0  3.754956  0  0  -0.424009  0  3.992917  0  0  -0.425849  0  4.002068  0  0  -0.244625  -0.423163  0  3.988946  0
C  C49  1  0.58986025  0.11736613  0.37826700  1  0  -0.34113  0  3.754886  0  0  -0.424066  0  3.992929  0  0  -0.425909  0  4.002061  0  0  -0.244666  -0.423213  0  3.988978  0
C  C50  1  0.36428892  0.15445400  0.61506172  1  0  -0.180391  0  3.736438  0  0  -0.21305  0  3.992551  0  0  -0.217579  0  4.0141  0  0  -0.099008  -0.209934  0  3.977467  0
C  C51  1  0.63570011  0.84554808  0.38494096  1  0  -0.180384  0  3.736455  0  0  -0.21299  0  3.992541  0  0  -0.217518  0  4.014089  0  0  -0.099051  -0.209872  0  3.977454  0
C  C52  1  0.35279843  0.27888417  0.64938213  1  0  0.098173  0  3.757725  0  0  0.103553  0  4.02471  0  0  0.10678  0  4.046633  0  0  0.015287  0.101363  0  4.009311  0
C  C53  1  0.64720365  0.72111572  0.35061497  1  0  0.098152  0  3.757749  0  0  0.103645  0  4.024604  0  0  0.106872  0  4.046527  0  0  0.015375  0.101462  0  4.0092  0
C  C54  1  0.36782291  0.27053552  0.73080897  1  0  0.094797  0  3.748845  0  0  0.113755  0  3.98824  0  0  0.112654  0  4.013502  0  0  -0.013022  0.115362  0  3.970033  0
C  C55  1  0.63218615  0.72946548  0.26918740  1  0  0.094784  0  3.749009  0  0  0.113684  0  3.988413  0  0  0.112583  0  4.013675  0  0  -0.01305  0.115283  0  3.97021  0
C  C56  1  0.35457078  0.40318286  0.76844780  1  0  -0.332841  0  3.734746  0  0  -0.412205  0  3.969743  0  0  -0.414935  0  3.98004  0  0  -0.247279  -0.410626  0  3.963645  0
C  C57  1  0.64543956  0.59682467  0.23154242  1  0  -0.333095  0  3.734809  0  0  -0.412353  0  3.969776  0  0  -0.415082  0  3.980078  0  0  -0.24743  -0.410771  0  3.963686  0
C  C58  1  0.39377315  0.13007211  0.77633601  1  0  -0.143382  0  3.731512  0  0  -0.170584  0  3.982476  0  0  -0.172322  0  4.002841  0  0  -0.088066  -0.169059  0  3.967864  0
C  C59  1  0.60622711  0.86993217  0.22366367  1  0  -0.143316  0  3.731596  0  0  -0.17052  0  3.982566  0  0  -0.172256  0  4.002934  0  0  -0.088082  -0.168995  0  3.967951  0
C  C60  1  0.20184264  0.77223477  0.84049706  1  0  -0.307727  0  3.632771  0  0  -0.341514  0  3.890712  0  0  -0.346998  0  3.895249  0  0  -0.148588  -0.337852  0  3.88805  0
C  C61  1  0.79816271  0.22775529  0.15950382  1  0  -0.307954  0  3.633056  0  0  -0.341611  0  3.890879  0  0  -0.347096  0  3.895418  0  0  -0.148604  -0.33796  0  3.888229  0
C  C62  1  0.18741205  0.64069723  0.91031937  1  0  0.746246  0  3.792012  0  0  0.702368  0  4.090259  0  0  0.735257  0  4.081694  0  0  0.225859  0.680139  0  4.095162  0
C  C63  1  0.81259353  0.35929281  0.08967680  1  0  0.746338  0  3.792147  0  0  0.702434  0  4.090388  0  0  0.735321  0  4.081823  0  0  0.225888  0.680205  0  4.095298  0
C  C64  1  0.84570519  0.30823448  0.76056378  1  0  -0.011959  0  3.756446  0  0  0.002017  0  4.010585  0  0  0.002838  0  4.034026  0  0  -0.013645  0.001216  0  3.994843  0
C  C65  1  0.15429625  0.69177309  0.23943601  1  0  -0.012125  0  3.75664  0  0  0.001866  0  4.010715  0  0  0.002685  0  4.034156  0  0  -0.01367  0.00106  0  3.994983  0
C  C66  1  0.83524875  0.42584068  0.69435452  1  0  0.108196  0  3.749904  0  0  0.133067  0  3.982834  0  0  0.132813  0  4.00667  0  0  -0.018088  0.133784  0  3.965744  0
C  C67  1  0.16476388  0.57416692  0.30564605  1  0  0.108088  0  3.749948  0  0  0.133034  0  3.982754  0  0  0.132779  0  4.006593  0  0  -0.018179  0.133746  0  3.965676  0
C  C68  1  0.82183967  0.58164533  0.70507826  1  0  -0.338243  0  3.755125  0  0  -0.417509  0  3.991759  0  0  -0.419812  0  4.00106  0  0  -0.245938  -0.415902  0  3.985353  0
C  C69  1  0.17816622  0.41836114  0.29491833  1  0  -0.338305  0  3.75498  0  0  -0.417536  0  3.991544  0  0  -0.419832  0  4.000845  0  0  -0.245965  -0.415925  0  3.985142  0
C  C70  1  0.84228474  0.39341206  0.61746582  1  0  -0.17851  0  3.76567  0  0  -0.213178  0  4.025514  0  0  -0.215194  0  4.044927  0  0  -0.104664  -0.211639  0  4.012362  0
C  C71  1  0.15770712  0.60659220  0.38253343  1  0  -0.178343  0  3.765845  0  0  -0.213053  0  4.02569  0  0  -0.215073  0  4.045107  0  0  -0.104622  -0.211514  0  4.012532  0
C  C72  1  0.86326211  0.24923211  0.60603055  1  0  0.072837  0  3.777777  0  0  0.076691  0  4.047742  0  0  0.07864  0  4.069133  0  0  0.001402  0.075161  0  4.03332  0
C  C73  1  0.13672587  0.75076558  0.39397097  1  0  0.072873  0  3.777683  0  0  0.076645  0  4.047723  0  0  0.078601  0  4.069105  0  0  0.001486  0.075114  0  4.0333  0
C  C74  1  0.87502096  0.13115194  0.67066968  1  0  0.096717  0  3.778733  0  0  0.114562  0  4.021935  0  0  0.114864  0  4.046772  0  0  -0.01836  0.114438  0  4.004947  0
C  C75  1  0.12496787  0.86885342  0.32933263  1  0  0.096569  0  3.778821  0  0  0.114517  0  4.021941  0  0  0.114816  0  4.046776  0  0  -0.018444  0.114394  0  4.004947  0
C  C76  1  0.89822643  0.97587605  0.65897317  1  0  -0.332031  0  3.746182  0  0  -0.416918  0  3.986436  0  0  -0.419049  0  3.996822  0  0  -0.247092  -0.415269  0  3.978982  0
C  C77  1  0.10175138  0.02412273  0.34103380  1  0  -0.331884  0  3.746026  0  0  -0.416924  0  3.986282  0  0  -0.419072  0  3.996676  0  0  -0.247058  -0.415268  0  3.978823  0
C  C78  1  0.86459449  0.16409822  0.74783999  1  0  -0.163613  0  3.732914  0  0  -0.191523  0  3.983482  0  0  -0.195498  0  4.006173  0  0  -0.101208  -0.18892  0  3.968928  0
C  C79  1  0.13539914  0.83589731  0.25216363  1  0  -0.163523  0  3.733018  0  0  -0.191498  0  3.983537  0  0  -0.195472  0  4.006226  0  0  -0.101181  -0.18888  0  3.968987  0
C  C80  1  0.91503173  0.18424689  0.91421031  1  0  -0.318016  0  3.64311  0  0  -0.351312  0  3.895745  0  0  -0.356015  0  3.90088  0  0  -0.148292  -0.348211  0  3.892367  0
C  C81  1  0.08499263  0.81575742  0.08578433  1  0  -0.317984  0  3.642963  0  0  -0.351263  0  3.895556  0  0  -0.355977  0  3.900697  0  0  -0.148193  -0.348151  0  3.892172  0
C  C82  1  0.77498867  0.06280831  0.94560851  1  0  0.727839  0  3.812924  0  0  0.684128  0  4.112701  0  0  0.716741  0  4.104368  0  0  0.220492  0.662039  0  4.117629  0
C  C83  1  0.22503117  0.93720146  0.05438531  1  0  0.727881  0  3.81289  0  0  0.684176  0  4.112616  0  0  0.716808  0  4.104255  0  0  0.220494  0.662089  0  4.117538  0
S  S84  1  0.44275260  0.83147528  0.80567355  1  0  -0.05731  0  2.438678  0  0  -0.053464  0  2.778315  0  0  -0.053572  0  2.777959  0  0  -0.029241  -0.053433  0  2.780389  0
S  S85  1  0.55724493  0.16852464  0.19433040  1  0  -0.057301  0  2.438793  0  0  -0.053501  0  2.778377  0  0  -0.053603  0  2.778023  0  0  -0.029243  -0.053459  0  2.780444  0
S  S86  1  0.83423070  0.35332302  0.85696612  1  0  0.016591  0  2.456485  0  0  0.017504  0  2.795446  0  0  0.015362  0  2.795869  0  0  0.034851  0.019522  0  2.794801  0
S  S87  1  0.16579186  0.64668459  0.14303240  1  0  0.016665  0  2.456454  0  0  0.017542  0  2.79538  0  0  0.015403  0  2.795812  0  0  0.034829  0.019565  0  2.794729  0
Cl  Cl88  1  0.32136441  0.44828053  0.58836155  1  0  -0.096796  0  1.411147  0  0  -0.076844  0  1.65101  0  0  -0.081508  0  1.647897  0  0  0.006738  -0.073309  0  1.655238  0
Cl  Cl89  1  0.67864216  0.55171499  0.41163566  1  0  -0.096807  0  1.411134  0  0  -0.076892  0  1.650945  0  0  -0.081554  0  1.647827  0  0  0.006719  -0.073359  0  1.655172  0
Cl  Cl90  1  0.88025886  0.21668007  0.50777508  1  0  -0.10225  0  1.373439  0  0  -0.075284  0  1.611614  0  0  -0.079188  0  1.607104  0  0  0.005149  -0.07249  0  1.615555  0
Cl  Cl91  1  0.11970553  0.78331101  0.49222985  1  0  -0.1023  0  1.373372  0  0  -0.075293  0  1.611551  0  0  -0.079197  0  1.60704  0  0  0.005104  -0.072498  0  1.615489  0
O  O92  1  0.32981605  0.57874354  0.93419007  1  0  -0.690691  0  1.940599  0  0  -0.642502  0  2.177024  0  0  -0.665139  0  2.167422  0  0  -0.438001  -0.626924  0  2.183416  0
O  O93  1  0.67020214  0.42124001  0.06581514  1  0  -0.690611  0  1.940927  0  0  -0.642426  0  2.177368  0  0  -0.66506  0  2.167764  0  0  -0.43795  -0.626848  0  2.183762  0
O  O94  1  0.01492247  0.60214052  0.94208276  1  0  -0.64443  0  2.077432  0  0  -0.593514  0  2.314849  0  0  -0.619366  0  2.302217  0  0  -0.385888  -0.575236  0  2.321767  0
O  O95  1  0.98508848  0.39785065  0.05791692  1  0  -0.644439  0  2.077405  0  0  -0.593565  0  2.314882  0  0  -0.619411  0  2.302243  0  0  -0.385925  -0.575284  0  2.321803  0
O  O96  1  0.83309178  0.93316696  0.94552325  1  0  -0.645223  0  1.911417  0  0  -0.599087  0  2.137293  0  0  -0.621936  0  2.128507  0  0  -0.382865  -0.583228  0  2.142825  0
O  O97  1  0.16692840  0.06683517  0.05447377  1  0  -0.645275  0  1.911593  0  0  -0.599122  0  2.137435  0  0  -0.621973  0  2.128641  0  0  -0.3829  -0.583261  0  2.14296  0
O  O98  1  0.60086573  0.10356989  0.97271889  1  0  -0.65796  0  2.102135  0  0  -0.607062  0  2.342406  0  0  -0.632671  0  2.329341  0  0  -0.394626  -0.589173  0  2.349704  0
O  O99  1  0.39915291  0.89643442  0.02727801  1  0  -0.658096  0  2.10193  0  0  -0.607198  0  2.342196  0  0  -0.632822  0  2.329123  0  0  -0.394707  -0.589315  0  2.349502  0
