# generated using pymatgen
data_CdH5C8N2O5
_symmetry_space_group_name_H-M   'P 1'
_cell_length_a   7.62983435
_cell_length_b   7.78298271
_cell_length_c   8.44066127
_cell_angle_alpha   70.29196677
_cell_angle_beta   72.57303128
_cell_angle_gamma   74.07439596
_symmetry_Int_Tables_number   1
_chemical_formula_structural   CdH5C8N2O5
_chemical_formula_sum   'Cd2 H10 C16 N4 O10'
_cell_volume   441.74285699
_cell_formula_units_Z   2
loop_
 _symmetry_equiv_pos_site_id
 _symmetry_equiv_pos_as_xyz
  1  'x, y, z'
loop_
 _atom_site_type_symbol
 _atom_site_label
 _atom_site_symmetry_multiplicity
 _atom_site_fract_x
 _atom_site_fract_y
 _atom_site_fract_z
 _atom_site_occupancy
 _atom_site_hle17_bader_spin_density
 _atom_site_hle17_ddec_charge
 _atom_site_hle17_ddec_spin_density
 _atom_site_hle17_ddec_sum_bond_order
 _atom_site_hle17_magmom
 _atom_site_hse06_10hf_bader_spin_density
 _atom_site_hse06_10hf_ddec_charge
 _atom_site_hse06_10hf_ddec_spin_density
 _atom_site_hse06_10hf_ddec_sum_bond_order
 _atom_site_hse06_10hf_magmom
 _atom_site_hse06_bader_spin_density
 _atom_site_hse06_ddec_charge
 _atom_site_hse06_ddec_spin_density
 _atom_site_hse06_ddec_sum_bond_order
 _atom_site_hse06_magmom
 _atom_site_pbe_bader_spin_density
 _atom_site_pbe_cm5_charge
 _atom_site_pbe_ddec_charge
 _atom_site_pbe_ddec_spin_density
 _atom_site_pbe_ddec_sum_bond_order
 _atom_site_pbe_magmom
Cd  Cd0  1  0.41281272  0.94349675  0.24587042  1  0  1.209767  0  1.615028  0  0  1.017156  0  2.062489  0  0  1.076748  0  2.005497  0  0  0.789175  0.974194  0  2.101836  0
Cd  Cd1  1  0.58718654  0.05650412  0.75413076  1  0  1.209789  0  1.615045  0  0  1.017168  0  2.062506  0  0  1.07676  0  2.005513  0  0  0.789181  0.974208  0  2.101856  0
H  H2  1  0.75194122  0.80126355  0.38163511  1  0  0.417266  0  0.893653  0  0  0.383633  0  0.96137  0  0  0.395774  0  0.94404  0  0  0.281697  0.375066  0  0.973554  0
H  H3  1  0.24805942  0.19873733  0.61836451  1  0  0.417323  0  0.893564  0  0  0.38363  0  0.961374  0  0  0.395772  0  0.944042  0  0  0.281694  0.375063  0  0.973557  0
H  H4  1  0.57995523  0.78353710  0.55303108  1  0  0.41894  0  0.883605  0  0  0.385284  0  0.952635  0  0  0.396737  0  0.935857  0  0  0.286413  0.377187  0  0.964465  0
H  H5  1  0.42004405  0.21646379  0.44696891  1  0  0.418917  0  0.883637  0  0  0.385266  0  0.952658  0  0  0.39672  0  0.935877  0  0  0.286414  0.377166  0  0.964487  0
H  H6  1  0.83259152  0.60107874  0.88793354  1  0  0.067282  0  0.961583  0  0  0.075213  0  1.02948  0  0  0.075726  0  1.029699  0  0  0.116146  0.074657  0  1.02953  0
H  H7  1  0.16740691  0.39891939  0.11206631  1  0  0.067273  0  0.961613  0  0  0.075215  0  1.029487  0  0  0.075725  0  1.029712  0  0  0.116152  0.074657  0  1.029539  0
H  H8  1  0.15932424  0.40878679  0.81630833  1  0  0.12563  0  0.954775  0  0  0.132933  0  1.01624  0  0  0.136297  0  1.015836  0  0  0.115989  0.130457  0  1.016806  0
H  H9  1  0.84067420  0.59121135  0.18369034  1  0  0.125642  0  0.954794  0  0  0.132946  0  1.016253  0  0  0.136311  0  1.015849  0  0  0.115998  0.130474  0  1.016814  0
H  H10  1  0.39221551  0.56580067  0.56787604  1  0  0.092004  0  0.961955  0  0  0.097031  0  1.030484  0  0  0.100205  0  1.025479  0  0  0.124089  0.094536  0  1.034301  0
H  H11  1  0.60778430  0.43419746  0.43212345  1  0  0.092024  0  0.96194  0  0  0.097036  0  1.030481  0  0  0.100214  0  1.025476  0  0  0.124089  0.094516  0  1.034326  0
C  C12  1  0.13217153  0.01632314  0.99833909  1  0  0.203662  0  3.827036  0  0  0.177848  0  4.10685  0  0  0.191992  0  4.120377  0  0  0.089856  0.16819  0  4.09725  0
C  C13  1  0.86782828  0.98367500  0.00165921  1  0  0.203663  0  3.827059  0  0  0.177854  0  4.106861  0  0  0.191999  0  4.120388  0  0  0.089849  0.168195  0  4.097265  0
C  C14  1  0.01456339  0.08010512  0.87043108  1  0  0.173081  0  3.891727  0  0  0.153949  0  4.173559  0  0  0.164385  0  4.188693  0  0  0.088405  0.146987  0  4.162736  0
C  C15  1  0.98543504  0.91989302  0.12956877  1  0  0.173076  0  3.891736  0  0  0.153941  0  4.173592  0  0  0.164379  0  4.188724  0  0  0.08837  0.146981  0  4.162766  0
C  C16  1  0.49909192  0.37454321  0.09823805  1  0  0.182938  0  3.856131  0  0  0.159147  0  4.136175  0  0  0.171765  0  4.149683  0  0  0.088871  0.150607  0  4.12657  0
C  C17  1  0.50090896  0.62545621  0.90176669  1  0  0.182998  0  3.856174  0  0  0.159214  0  4.136194  0  0  0.171832  0  4.149701  0  0  0.088872  0.150673  0  4.126591  0
C  C18  1  0.47837373  0.57153196  0.09235722  1  0  0.188438  0  3.890305  0  0  0.167018  0  4.174198  0  0  0.180074  0  4.187135  0  0  0.09103  0.15819  0  4.164884  0
C  C19  1  0.52162553  0.42846887  0.90764635  1  0  0.188356  0  3.890132  0  0  0.166915  0  4.174049  0  0  0.17997  0  4.186986  0  0  0.091007  0.158086  0  4.164737  0
C  C20  1  0.02643378  0.90317804  0.55302992  1  0  0.333621  0  3.768993  0  0  0.308039  0  4.024594  0  0  0.32298  0  4.037082  0  0  0.263181  0.297896  0  4.016392  0
C  C21  1  0.97356576  0.09682145  0.44697042  1  0  0.333644  0  3.768979  0  0  0.308067  0  4.024563  0  0  0.323007  0  4.037051  0  0  0.2632  0.297923  0  4.016364  0
C  C22  1  0.94181884  0.65686641  0.78025070  1  0  0.194788  0  3.666908  0  0  0.161122  0  3.91985  0  0  0.171779  0  3.936688  0  0  0.070339  0.154053  0  3.908766  0
C  C23  1  0.05818070  0.34313311  0.21974845  1  0  0.194831  0  3.666956  0  0  0.161162  0  3.919913  0  0  0.171818  0  3.93675  0  0  0.070336  0.154092  0  3.908827  0
C  C24  1  0.12000640  0.55197733  0.74264166  1  0  -0.14986  0  3.654245  0  0  -0.161613  0  3.90444  0  0  -0.172673  0  3.924595  0  0  -0.070467  -0.154902  0  3.891725  0
C  C25  1  0.87999451  0.44802218  0.25735712  1  0  -0.149893  0  3.654292  0  0  -0.16166  0  3.904477  0  0  -0.17272  0  3.924635  0  0  -0.070479  -0.154949  0  3.89176  0
C  C26  1  0.24913362  0.63796126  0.60310485  1  0  0.226514  0  3.616645  0  0  0.18918  0  3.869236  0  0  0.202239  0  3.881592  0  0  0.084235  0.180415  0  3.861343  0
C  C27  1  0.75086593  0.36203827  0.39689310  1  0  0.226481  0  3.616735  0  0  0.189178  0  3.869283  0  0  0.202231  0  3.881646  0  0  0.084221  0.18043  0  3.8614  0
N  N28  1  0.20250826  0.81292973  0.50889636  1  0  -0.373896  0  3.179699  0  0  -0.308012  0  3.441743  0  0  -0.329644  0  3.45568  0  0  -0.308067  -0.293563  0  3.432414  0
N  N29  1  0.79749101  0.18707116  0.49110363  1  0  -0.373902  0  3.179749  0  0  -0.308017  0  3.441766  0  0  -0.329647  0  3.455704  0  0  -0.308065  -0.293567  0  3.432432  0
N  N30  1  0.89484119  0.83272974  0.68608923  1  0  -0.385441  0  3.172845  0  0  -0.325748  0  3.431858  0  0  -0.346523  0  3.447904  0  0  -0.307376  -0.311905  0  3.421114  0
N  N31  1  0.10515834  0.16726976  0.31391110  1  0  -0.38545  0  3.172878  0  0  -0.325756  0  3.431891  0  0  -0.34653  0  3.447939  0  0  -0.307378  -0.311911  0  3.421144  0
O  O32  1  0.29184454  0.04086602  0.99379148  1  0  -0.553174  0  2.177264  0  0  -0.479465  0  2.443135  0  0  -0.507885  0  2.43606  0  0  -0.307508  -0.459166  0  2.44714  0
O  O33  1  0.70815500  0.95913350  0.00620766  1  0  -0.553195  0  2.177278  0  0  -0.479482  0  2.443132  0  0  -0.507903  0  2.436061  0  0  -0.30751  -0.459184  0  2.447141  0
O  O34  1  0.03250615  0.17725076  0.71617990  1  0  -0.47908  0  2.09988  0  0  -0.430263  0  2.314772  0  0  -0.452248  0  2.315894  0  0  -0.295075  -0.414373  0  2.313335  0
O  O35  1  0.96749502  0.82274735  0.28381923  1  0  -0.479038  0  2.099873  0  0  -0.430254  0  2.314769  0  0  -0.452238  0  2.315892  0  0  -0.295041  -0.414365  0  2.313332  0
O  O36  1  0.49538082  0.22649093  0.22152986  1  0  -0.527998  0  2.170924  0  0  -0.459239  0  2.41293  0  0  -0.485588  0  2.409052  0  0  -0.300671  -0.44048  0  2.414969  0
O  O37  1  0.50462007  0.77350851  0.77847369  1  0  -0.528106  0  2.170958  0  0  -0.459326  0  2.412937  0  0  -0.485675  0  2.409059  0  0  -0.300708  -0.440566  0  2.414983  0
O  O38  1  0.45394311  0.64803718  0.20844139  1  0  -0.506613  0  2.150119  0  0  -0.450107  0  2.407425  0  0  -0.47536  0  2.403227  0  0  -0.305586  -0.431903  0  2.40937  0
O  O39  1  0.54605615  0.35196366  0.79156217  1  0  -0.506538  0  2.149923  0  0  -0.450014  0  2.40722  0  0  -0.475269  0  2.403029  0  0  -0.305566  -0.431812  0  2.409168  0
O  O40  1  0.61599987  0.79235192  0.42803912  1  0  -0.857867  0  1.902311  0  0  -0.793096  0  2.111316  0  0  -0.816769  0  2.074969  0  0  -0.594657  -0.77613  0  2.136545  0
O  O41  1  0.38400078  0.20764896  0.57196050  1  0  -0.857894  0  1.90225  0  0  -0.793092  0  2.111337  0  0  -0.816768  0  2.074989  0  0  -0.594656  -0.77612  0  2.13658  0
