# generated using pymatgen
data_ZnH9C18SN3O7F2
_symmetry_space_group_name_H-M   'P 1'
_cell_length_a   11.02671530
_cell_length_b   15.95874299
_cell_length_c   17.29821383
_cell_angle_alpha   96.52658148
_cell_angle_beta   89.64769318
_cell_angle_gamma   91.82364889
_symmetry_Int_Tables_number   1
_chemical_formula_structural   ZnH9C18SN3O7F2
_chemical_formula_sum   'Zn2 H18 C36 S2 N6 O14 F4'
_cell_volume   3022.74107923
_cell_formula_units_Z   2
loop_
 _symmetry_equiv_pos_site_id
 _symmetry_equiv_pos_as_xyz
  1  'x, y, z'
loop_
 _atom_site_type_symbol
 _atom_site_label
 _atom_site_symmetry_multiplicity
 _atom_site_fract_x
 _atom_site_fract_y
 _atom_site_fract_z
 _atom_site_occupancy
 _atom_site_pbe_bader_charge
 _atom_site_pbe_bader_spin_density
 _atom_site_pbe_cm5_charge
 _atom_site_pbe_ddec_charge
 _atom_site_pbe_ddec_spin_density
 _atom_site_pbe_ddec_sum_bond_order
 _atom_site_pbe_magmom
Zn  Zn0  1  0.49806697  0.41310801  0.50155136  1  1.295003  0  0.669757  0.84112  0  2.40857  0
Zn  Zn1  1  0.50690847  0.59048666  0.50907666  1  1.29987  0  0.674343  0.838376  0  2.415764  0
H  H2  1  0.39109952  0.71842235  0.43000254  1  0.189923  0  0.13035  0.119947  0  1.008776  0
H  H3  1  0.39223002  0.87527131  0.42986046  1  0.144045  0  0.123635  0.140445  0  0.995177  0
H  H4  1  0.67327998  0.89243369  0.60576742  1  0.139081  0  0.131091  0.166041  0  0.96253  0
H  H5  1  0.34308793  0.10890771  0.40196401  1  0.141737  0  0.13621  0.172093  0  0.953629  0
H  H6  1  0.62434805  0.12785374  0.57711675  1  0.137211  0  0.120274  0.131753  0  1.000751  0
H  H7  1  0.62162397  0.28661603  0.57737216  1  0.153226  0  0.134941  0.113429  0  0.962347  0
H  H8  1  0.48662712  0.62047858  0.26648719  1  0.154012  0  0.10878  0.126152  0  0.999046  0
H  H9  1  0.48554526  0.61531786  0.12077166  1  0.121395  0  0.108939  0.116034  0  1.009671  0
H  H10  1  0.48666311  0.34362177  0.10361622  1  0.115473  0  0.117517  0.143867  0  0.981436  0
H  H11  1  0.50826854  0.65772275  0.90582504  1  0.143218  0  0.119728  0.146867  0  0.976256  0
H  H12  1  0.48809966  0.38623570  0.89122270  1  0.100112  0  0.105832  0.109475  0  1.016866  0
H  H13  1  0.49310442  0.37953885  0.74527477  1  0.08559  0  0.105548  0.111528  0  0.997708  0
H  H14  1  0.78045968  0.59392809  0.38542001  1  0.158752  0  0.114705  0.138278  0  1.025257  0
H  H15  1  0.22989211  0.61143655  0.39578649  1  0.168751  0  0.112307  0.127557  0  1.038055  0
H  H16  1  0.11517804  0.41254102  0.57217446  1  0.081323  0  0.111762  0.117512  0  0.979981  0
H  H17  1  0.88790387  0.40546806  0.56910334  1  0.065997  0  0.109301  0.112681  0  0.988831  0
H  H18  1  0.77726249  0.80333511  0.34986506  1  0.638073  0  0.345647  0.392119  0  0.854514  0
H  H19  1  0.23891992  0.63189300  0.19956778  1  0.626747  0  0.34347  0.390977  0  0.86324  0
C  C20  1  0.49363495  0.49452801  0.35427096  1  1.551921  0  0.213705  0.604866  0  4.170869  0
C  C21  1  0.26641013  0.51072456  0.50275288  1  1.606962  0  0.216971  0.59718  0  4.177196  0
C  C22  1  0.50509958  0.50416960  0.65601667  1  1.53313  0  0.215377  0.612462  0  4.165548  0
C  C23  1  0.73847441  0.49487023  0.49611209  1  1.601002  0  0.218193  0.600317  0  4.165117  0
C  C24  1  0.45080263  0.75958896  0.46832733  1  0.413202  0  0.068808  0.146297  0  3.862537  0
C  C25  1  0.45205773  0.84621993  0.46808418  1  0.077962  0  -0.07388  -0.200448  0  3.90305  0
C  C26  1  0.53290313  0.89528696  0.51846656  1  0.258933  0  0.107624  0.221759  0  4.042343  0
C  C27  1  0.60957039  0.85609822  0.56637729  1  0.040963  0  -0.073636  -0.303687  0  3.893422  0
C  C28  1  0.60034355  0.76852175  0.56170213  1  1.155786  0  0.250023  0.457402  0  4.055829  0
C  C29  1  0.40594374  0.14587974  0.44152051  1  0.070688  0  -0.067211  -0.294825  0  3.871536  0
C  C30  1  0.48349728  0.10744803  0.48926575  1  0.36151  0  0.110815  0.229877  0  4.032613  0
C  C31  1  0.56365131  0.15725400  0.53968329  1  0.028117  0  -0.076368  -0.207805  0  3.926068  0
C  C32  1  0.56242995  0.24385726  0.53997332  1  0.419708  0  0.067723  0.141511  0  3.898292  0
C  C33  1  0.41259543  0.23358252  0.44685855  1  1.119261  0  0.255661  0.465087  0  4.042955  0
C  C34  1  0.48745821  0.48649513  0.26720902  1  0.035618  0  -0.019769  -0.139441  0  3.92398  0
C  C35  1  0.48487528  0.56046797  0.22957329  1  -0.094868  0  -0.078162  -0.055123  0  3.975641  0
C  C36  1  0.48391321  0.55786951  0.14927477  1  -0.00919  0  -0.091578  -0.171601  0  3.961514  0
C  C37  1  0.48555756  0.47902299  0.10341425  1  0.445125  0  0.092084  0.201179  0  4.054765  0
C  C38  1  0.48593113  0.40454256  0.13906142  1  -0.038468  0  -0.089953  -0.272963  0  3.946679  0
C  C39  1  0.48693204  0.40906505  0.21969788  1  0.486569  0  0.109149  0.295899  0  4.029359  0
C  C40  1  0.50501840  0.59644898  0.87089729  1  0.033275  0  -0.087828  -0.269716  0  3.940055  0
C  C41  1  0.49746923  0.52242774  0.90724853  1  0.373562  0  0.09328  0.201447  0  4.049833  0
C  C42  1  0.49368674  0.44319731  0.86206252  1  0.008543  0  -0.091085  -0.162822  0  3.968583  0
C  C43  1  0.49676049  0.43984993  0.78181300  1  -0.046542  0  -0.080375  -0.060961  0  3.993962  0
C  C44  1  0.50388249  0.51320282  0.74324896  1  0.058922  0  -0.020062  -0.138793  0  3.926497  0
C  C45  1  0.50833832  0.59106846  0.79021092  1  0.464708  0  0.110605  0.296741  0  4.02755  0
C  C46  1  0.87425727  0.49722955  0.48936243  1  -0.032303  0  -0.002115  -0.056699  0  3.903556  0
C  C47  1  0.93867392  0.55076073  0.44121085  1  0.044892  0  0.008741  0.074994  0  3.928759  0
C  C48  1  0.93847086  0.44729121  0.53409880  1  -0.004446  0  -0.07431  -0.082985  0  3.985598  0
C  C49  1  0.87887694  0.59775026  0.38862689  1  -0.010317  0  -0.073897  -0.117927  0  3.923188  0
C  C50  1  0.94139093  0.64820176  0.34125403  1  -0.215507  0  -0.016183  -0.101487  0  3.963115  0
C  C51  1  0.13102518  0.50622357  0.49374117  1  -0.053383  0  0.000146  -0.048275  0  3.903717  0
C  C52  1  0.06571998  0.45152232  0.53609608  1  0.034369  0  -0.074819  -0.08601  0  3.98071  0
C  C53  1  0.06867813  0.55555880  0.44370978  1  0.016849  0  0.008504  0.071537  0  3.931883  0
C  C54  1  0.13129398  0.60743586  0.39401279  1  0.019462  0  -0.074269  -0.119355  0  3.92807  0
C  C55  1  0.07106523  0.65327516  0.34403820  1  -0.149575  0  -0.017708  -0.104778  0  3.967361  0
S  S56  1  0.84744336  0.69991320  0.27807335  1  3.052462  0  0.538472  1.141417  0  5.99589  0
S  S57  1  0.16631861  0.71840611  0.28945410  1  3.058233  0  0.540441  1.1445  0  6.005398  0
N  N58  1  0.52401075  0.72099543  0.51512865  1  -1.271762  0  -0.31274  -0.290363  0  3.462423  0
N  N59  1  0.54462644  0.98465413  0.52548712  1  -0.413673  0  -0.126595  -0.11058  0  3.21511  0
N  N60  1  0.47292314  0.01814046  0.48230057  1  -0.461861  0  -0.123326  -0.103858  0  3.213812  0
N  N61  1  0.48734074  0.28184759  0.49387868  1  -1.238914  0  -0.310884  -0.28946  0  3.460739  0
N  N62  1  0.48845119  0.46713355  0.02128598  1  -0.52578  0  -0.147106  -0.133497  0  3.268761  0
N  N63  1  0.49392644  0.53483023  0.98941635  1  -0.508256  0  -0.144677  -0.128032  0  3.255389  0
O  O64  1  0.50853402  0.42772879  0.38635221  1  -1.151304  0  -0.31863  -0.550117  0  2.369886  0
O  O65  1  0.48454248  0.56860928  0.38959417  1  -1.162732  0  -0.312556  -0.537229  0  2.319213  0
O  O66  1  0.31852681  0.58338620  0.51057345  1  -1.152718  0  -0.313029  -0.53679  0  2.303392  0
O  O67  1  0.31686395  0.44024774  0.50318017  1  -1.165953  0  -0.31684  -0.554549  0  2.342484  0
O  O68  1  0.51184520  0.57129027  0.62294862  1  -1.152618  0  -0.316283  -0.548325  0  2.376287  0
O  O69  1  0.49882817  0.42907219  0.62156719  1  -1.176795  0  -0.322065  -0.5553  0  2.310967  0
O  O70  1  0.68678326  0.42473801  0.50671173  1  -1.167804  0  -0.317779  -0.549654  0  2.297016  0
O  O71  1  0.68640154  0.56442241  0.49267818  1  -1.160285  0  -0.312557  -0.55005  0  2.370401  0
O  O72  1  0.85121143  0.79696196  0.31838583  1  -1.173668  0  -0.362954  -0.524926  0  2.138832  0
O  O73  1  0.90383921  0.69965186  0.20348055  1  -1.27324  0  -0.294706  -0.483204  0  2.140239  0
O  O74  1  0.72436629  0.66858376  0.28637024  1  -1.29839  0  -0.311231  -0.54063  0  2.172851  0
O  O75  1  0.16782325  0.66771285  0.20345145  1  -1.172796  0  -0.352028  -0.507902  0  2.149155  0
O  O76  1  0.10936365  0.79663812  0.28353797  1  -1.276985  0  -0.300043  -0.490875  0  2.149288  0
O  O77  1  0.28813415  0.71741343  0.31974253  1  -1.308792  0  -0.313109  -0.555053  0  2.206796  0
F  F78  1  0.67227480  0.72800167  0.60617509  1  -0.604785  0  -0.065063  -0.120807  0  1.335602  0
F  F79  1  0.33929578  0.27328818  0.40271077  1  -0.612271  0  -0.062558  -0.119634  0  1.341136  0
F  F80  1  0.48731319  0.33453792  0.25042995  1  -0.622813  0  -0.105267  -0.141873  0  1.349464  0
F  F81  1  0.51578893  0.66518420  0.75879518  1  -0.622481  0  -0.105224  -0.142314  0  1.349389  0
