# generated using pymatgen
data_ZnH9C11N3O5
_symmetry_space_group_name_H-M   'P 1'
_cell_length_a   10.21564290
_cell_length_b   10.24451273
_cell_length_c   11.70310493
_cell_angle_alpha   89.99998770
_cell_angle_beta   90.00003434
_cell_angle_gamma   92.71973733
_symmetry_Int_Tables_number   1
_chemical_formula_structural   ZnH9C11N3O5
_chemical_formula_sum   'Zn4 H36 C44 N12 O20'
_cell_volume   1223.40045682
_cell_formula_units_Z   4
loop_
 _symmetry_equiv_pos_site_id
 _symmetry_equiv_pos_as_xyz
  1  'x, y, z'
loop_
 _atom_site_type_symbol
 _atom_site_label
 _atom_site_symmetry_multiplicity
 _atom_site_fract_x
 _atom_site_fract_y
 _atom_site_fract_z
 _atom_site_occupancy
 _atom_site_hle17_bader_spin_density
 _atom_site_hle17_ddec_charge
 _atom_site_hle17_ddec_spin_density
 _atom_site_hle17_ddec_sum_bond_order
 _atom_site_hle17_magmom
 _atom_site_hse06_10hf_bader_spin_density
 _atom_site_hse06_10hf_ddec_charge
 _atom_site_hse06_10hf_ddec_spin_density
 _atom_site_hse06_10hf_ddec_sum_bond_order
 _atom_site_hse06_10hf_magmom
 _atom_site_hse06_bader_spin_density
 _atom_site_hse06_ddec_charge
 _atom_site_hse06_ddec_spin_density
 _atom_site_hse06_ddec_sum_bond_order
 _atom_site_hse06_magmom
 _atom_site_pbe_bader_spin_density
 _atom_site_pbe_cm5_charge
 _atom_site_pbe_ddec_charge
 _atom_site_pbe_ddec_spin_density
 _atom_site_pbe_ddec_sum_bond_order
 _atom_site_pbe_magmom
Zn  Zn0  1  0.03480262  0.74636609  0.70826668  1  0  1.103163  0  1.749095  0  0  0.925882  0  2.21129  0  0  0.976011  0  2.150932  0  0  0.686674  0.890505  0  2.253491  0
Zn  Zn1  1  0.96519741  0.75363375  0.20826713  1  0  1.103197  0  1.749093  0  0  0.925911  0  2.211298  0  0  0.97604  0  2.150939  0  0  0.686711  0.890565  0  2.253528  0
Zn  Zn2  1  0.96519895  0.25363281  0.29173307  1  0  1.103181  0  1.749082  0  0  0.925883  0  2.211289  0  0  0.976012  0  2.15093  0  0  0.686682  0.890511  0  2.253498  0
Zn  Zn3  1  0.03480230  0.24636711  0.79173261  1  0  1.103167  0  1.749078  0  0  0.925869  0  2.211282  0  0  0.976001  0  2.150922  0  0  0.686688  0.890511  0  2.253498  0
H  H4  1  0.00192931  0.85187133  0.50471299  1  0  0.439164  0  0.860099  0  0  0.408081  0  0.923403  0  0  0.418322  0  0.908731  0  0  0.297847  0.400717  0  0.93402  0
H  H5  1  0.99807058  0.64812855  0.00471263  1  0  0.439155  0  0.860103  0  0  0.408064  0  0.923424  0  0  0.418305  0  0.908751  0  0  0.297834  0.400702  0  0.934039  0
H  H6  1  0.99807133  0.14812855  0.49528761  1  0  0.439128  0  0.860146  0  0  0.408029  0  0.923481  0  0  0.41827  0  0.908808  0  0  0.297832  0.400658  0  0.934107  0
H  H7  1  0.00192908  0.35187132  0.99528712  1  0  0.439153  0  0.860104  0  0  0.408069  0  0.923412  0  0  0.41831  0  0.908739  0  0  0.297834  0.400706  0  0.934028  0
H  H8  1  0.59454902  0.99255085  0.99474719  1  0  0.109317  0  0.972224  0  0  0.12839  0  1.036397  0  0  0.129883  0  1.036396  0  0  0.091884  0.127034  0  1.036896  0
H  H9  1  0.40545125  0.50744990  0.49474740  1  0  0.109291  0  0.97223  0  0  0.128364  0  1.036404  0  0  0.129857  0  1.036403  0  0  0.091888  0.127021  0  1.036905  0
H  H10  1  0.40545167  0.00745000  0.00525341  1  0  0.109297  0  0.972201  0  0  0.128361  0  1.03639  0  0  0.129854  0  1.036389  0  0  0.091875  0.127001  0  1.036893  0
H  H11  1  0.59454841  0.49254998  0.50525235  1  0  0.109319  0  0.972178  0  0  0.128382  0  1.036372  0  0  0.129876  0  1.03637  0  0  0.091891  0.127024  0  1.036885  0
H  H12  1  0.75471827  0.07051106  0.99769525  1  0  0.146798  0  0.941093  0  0  0.165038  0  0.999064  0  0  0.167467  0  0.998361  0  0  0.103598  0.163229  0  0.999717  0
H  H13  1  0.24528312  0.42948881  0.49769444  1  0  0.146794  0  0.941087  0  0  0.165028  0  0.999062  0  0  0.167457  0  0.998359  0  0  0.103615  0.16323  0  0.99971  0
H  H14  1  0.24528335  0.92948881  0.00230535  1  0  0.146808  0  0.941087  0  0  0.165049  0  0.999059  0  0  0.167477  0  0.998357  0  0  0.103605  0.163234  0  0.999721  0
H  H15  1  0.75471757  0.57051204  0.50230530  1  0  0.146811  0  0.941045  0  0  0.165047  0  0.999024  0  0  0.167477  0  0.99832  0  0  0.103605  0.163236  0  0.999682  0
H  H16  1  0.71067785  0.94801238  0.10010686  1  0  0.150251  0  0.928239  0  0  0.167082  0  0.990106  0  0  0.169691  0  0.988797  0  0  0.104861  0.165182  0  0.99118  0
H  H17  1  0.28932112  0.55198748  0.60010573  1  0  0.150228  0  0.928249  0  0  0.167035  0  0.990148  0  0  0.169643  0  0.988839  0  0  0.104841  0.165148  0  0.991214  0
H  H18  1  0.28932279  0.05198750  0.89989374  1  0  0.150182  0  0.928286  0  0  0.167032  0  0.990133  0  0  0.169641  0  0.988823  0  0  0.104822  0.165129  0  0.991202  0
H  H19  1  0.71067756  0.44801239  0.39989402  1  0  0.15018  0  0.928308  0  0  0.167039  0  0.990144  0  0  0.169648  0  0.988834  0  0  0.10483  0.165138  0  0.991213  0
H  H20  1  0.23479855  0.57880856  0.07730428  1  0  0.102697  0  0.946742  0  0  0.108605  0  1.015692  0  0  0.112378  0  1.012449  0  0  0.10719  0.105647  0  1.018421  0
H  H21  1  0.76520144  0.92119228  0.57730332  1  0  0.102701  0  0.946775  0  0  0.108607  0  1.015719  0  0  0.112376  0  1.01249  0  0  0.107186  0.105639  0  1.018445  0
H  H22  1  0.76520111  0.42119131  0.92269632  1  0  0.102703  0  0.946795  0  0  0.108612  0  1.01574  0  0  0.112387  0  1.012494  0  0  0.107195  0.105651  0  1.018468  0
H  H23  1  0.23479925  0.07880857  0.42269643  1  0  0.102698  0  0.946747  0  0  0.108607  0  1.015693  0  0  0.112377  0  1.012458  0  0  0.107188  0.105642  0  1.018427  0
H  H24  1  0.45866295  0.74232081  0.79621525  1  0  0.114054  0  0.964308  0  0  0.120433  0  1.033564  0  0  0.123919  0  1.031092  0  0  0.110426  0.118011  0  1.035236  0
H  H25  1  0.54133709  0.75767803  0.29621377  1  0  0.114219  0  0.9644  0  0  0.120568  0  1.033661  0  0  0.124053  0  1.03119  0  0  0.110507  0.118146  0  1.035342  0
H  H26  1  0.54133769  0.25767907  0.20378535  1  0  0.114114  0  0.9644  0  0  0.120496  0  1.033639  0  0  0.123981  0  1.031169  0  0  0.110467  0.118069  0  1.035317  0
H  H27  1  0.45866252  0.24232087  0.70378512  1  0  0.114114  0  0.9644  0  0  0.120494  0  1.033641  0  0  0.123979  0  1.031171  0  0  0.110464  0.118064  0  1.03532  0
H  H28  1  0.43519937  0.58115650  0.19700846  1  0  0.092899  0  0.939036  0  0  0.104123  0  0.995763  0  0  0.106886  0  0.995222  0  0  0.104862  0.102258  0  0.99618  0
H  H29  1  0.56480163  0.91884334  0.69700911  1  0  0.092894  0  0.939029  0  0  0.104128  0  0.995754  0  0  0.106891  0  0.995213  0  0  0.104851  0.102253  0  0.996164  0
H  H30  1  0.56480034  0.41884435  0.80299129  1  0  0.092913  0  0.938992  0  0  0.104137  0  0.995726  0  0  0.1069  0  0.995186  0  0  0.104872  0.102268  0  0.996146  0
H  H31  1  0.43519999  0.08115654  0.30299149  1  0  0.092897  0  0.939034  0  0  0.104132  0  0.995755  0  0  0.106896  0  0.995211  0  0  0.104855  0.102256  0  0.996176  0
H  H32  1  0.64949050  0.67096752  0.11735956  1  0  0.129985  0  0.942958  0  0  0.138998  0  1.00266  0  0  0.142845  0  0.999817  0  0  0.115314  0.136115  0  1.00504  0
H  H33  1  0.35051049  0.82903331  0.61736011  1  0  0.129948  0  0.943008  0  0  0.138963  0  1.002706  0  0  0.142808  0  0.999868  0  0  0.115294  0.136073  0  1.005085  0
H  H34  1  0.35050926  0.32903431  0.88264019  1  0  0.130003  0  0.942927  0  0  0.139038  0  1.002606  0  0  0.142883  0  0.999765  0  0  0.115335  0.136133  0  1.005007  0
H  H35  1  0.64949015  0.17096656  0.38264049  1  0  0.129982  0  0.942975  0  0  0.138997  0  1.002672  0  0  0.142841  0  0.999834  0  0  0.1153  0.136103  0  1.005052  0
H  H36  1  0.08447537  0.95100403  0.58387746  1  0  0.429271  0  0.869807  0  0  0.399763  0  0.930986  0  0  0.4097  0  0.916697  0  0  0.296569  0.392726  0  0.9411  0
H  H37  1  0.91552457  0.54899583  0.08387793  1  0  0.429273  0  0.869807  0  0  0.39977  0  0.930975  0  0  0.409706  0  0.916687  0  0  0.296575  0.392734  0  0.941087  0
H  H38  1  0.91552527  0.04899584  0.41612314  1  0  0.429304  0  0.869763  0  0  0.399789  0  0.930954  0  0  0.409728  0  0.916662  0  0  0.296574  0.392743  0  0.941079  0
H  H39  1  0.08447509  0.45100405  0.91612267  1  0  0.429272  0  0.869806  0  0  0.399759  0  0.930992  0  0  0.409698  0  0.916702  0  0  0.296564  0.39272  0  0.94111  0
C  C40  1  0.69872233  0.97799685  0.01067504  1  0  -0.355999  0  3.704295  0  0  -0.435025  0  3.944462  0  0  -0.439016  0  3.950897  0  0  -0.23193  -0.431891  0  3.940282  0
C  C41  1  0.30127854  0.52200303  0.51067476  1  0  -0.355927  0  3.704282  0  0  -0.434931  0  3.944458  0  0  -0.438919  0  3.950892  0  0  -0.231905  -0.431804  0  3.940273  0
C  C42  1  0.30127928  0.02200303  0.98932557  1  0  -0.355947  0  3.7043  0  0  -0.434993  0  3.944459  0  0  -0.438984  0  3.950897  0  0  -0.23192  -0.431858  0  3.940284  0
C  C43  1  0.69872210  0.47799684  0.48932584  1  0  -0.355943  0  3.704237  0  0  -0.43499  0  3.944397  0  0  -0.43898  0  3.950829  0  0  -0.231916  -0.431856  0  3.940227  0
C  C44  1  0.74871908  0.87963676  0.93123845  1  0  0.226489  0  3.642391  0  0  0.207178  0  3.90838  0  0  0.217004  0  3.925244  0  0  0.129897  0.200853  0  3.896725  0
C  C45  1  0.25128213  0.62036400  0.43123856  1  0  0.226445  0  3.64234  0  0  0.207144  0  3.908317  0  0  0.216969  0  3.925181  0  0  0.129908  0.200825  0  3.896664  0
C  C46  1  0.25128264  0.12036507  0.06876129  1  0  0.226512  0  3.642268  0  0  0.207227  0  3.908212  0  0  0.217053  0  3.925075  0  0  0.129924  0.200904  0  3.896553  0
C  C47  1  0.74871753  0.37963587  0.56876204  1  0  0.22644  0  3.642308  0  0  0.20714  0  3.908283  0  0  0.216966  0  3.925145  0  0  0.129854  0.200815  0  3.896622  0
C  C48  1  0.86129177  0.88020168  0.86524403  1  0  -0.069636  0  3.74911  0  0  -0.07399  0  4.006551  0  0  -0.081712  0  4.025642  0  0  0.083898  -0.069038  0  3.993929  0
C  C49  1  0.13870841  0.61979910  0.36524408  1  0  -0.069589  0  3.74903  0  0  -0.073964  0  4.006498  0  0  -0.081685  0  4.02559  0  0  0.083887  -0.069009  0  3.993883  0
C  C50  1  0.13870696  0.11979917  0.13475743  1  0  -0.069621  0  3.749113  0  0  -0.073989  0  4.006547  0  0  -0.081714  0  4.025639  0  0  0.083896  -0.069038  0  3.99393  0
C  C51  1  0.86129228  0.38020175  0.63475653  1  0  -0.069593  0  3.749048  0  0  -0.073948  0  4.006485  0  0  -0.081669  0  4.025575  0  0  0.083923  -0.069  0  3.993869  0
C  C52  1  0.97154659  0.97683430  0.84681903  1  0  0.664677  0  3.934575  0  0  0.612564  0  4.230069  0  0  0.648394  0  4.221574  0  0  0.214649  0.588153  0  4.23499  0
C  C53  1  0.02845348  0.52316453  0.34681732  1  0  0.664667  0  3.93456  0  0  0.612547  0  4.230077  0  0  0.648379  0  4.22158  0  0  0.214652  0.588136  0  4.234992  0
C  C54  1  0.02845586  0.02316264  0.15318072  1  0  0.664674  0  3.934623  0  0  0.612571  0  4.230099  0  0  0.648403  0  4.221603  0  0  0.214651  0.588164  0  4.235025  0
C  C55  1  0.97154618  0.47683535  0.65318242  1  0  0.664681  0  3.934532  0  0  0.612564  0  4.230036  0  0  0.648396  0  4.221539  0  0  0.214662  0.588155  0  4.234957  0
C  C56  1  0.21221431  0.66413842  0.85931554  1  0  0.664734  0  3.880416  0  0  0.610922  0  4.169211  0  0  0.645758  0  4.161202  0  0  0.219006  0.587449  0  4.173647  0
C  C57  1  0.78778489  0.83586236  0.35931503  1  0  0.664766  0  3.880394  0  0  0.610983  0  4.16917  0  0  0.64582  0  4.161155  0  0  0.219025  0.587514  0  4.173602  0
C  C58  1  0.78778535  0.33586145  0.14068421  1  0  0.664753  0  3.880398  0  0  0.610947  0  4.169189  0  0  0.645782  0  4.161179  0  0  0.219007  0.587472  0  4.173629  0
C  C59  1  0.21221379  0.16413752  0.64068472  1  0  0.664742  0  3.880425  0  0  0.61095  0  4.169177  0  0  0.645787  0  4.161163  0  0  0.219018  0.587479  0  4.173622  0
C  C60  1  0.33407370  0.66119310  0.92977551  1  0  -0.059826  0  3.763075  0  0  -0.030937  0  3.98894  0  0  -0.0405  0  4.013317  0  0  -0.014473  -0.024885  0  3.97254  0
C  C61  1  0.66592452  0.83880669  0.42977408  1  0  -0.059854  0  3.76296  0  0  -0.031005  0  3.988857  0  0  -0.040567  0  4.013228  0  0  -0.014471  -0.024952  0  3.97245  0
C  C62  1  0.66592596  0.33880677  0.07022510  1  0  -0.059848  0  3.763005  0  0  -0.030965  0  3.988878  0  0  -0.040527  0  4.013254  0  0  -0.014469  -0.024914  0  3.97248  0
C  C63  1  0.33407416  0.16119319  0.57022482  1  0  -0.059835  0  3.762983  0  0  -0.030956  0  3.988846  0  0  -0.040515  0  4.013219  0  0  -0.01447  -0.024911  0  3.972455  0
C  C64  1  0.32809593  0.61646119  0.04281174  1  0  -0.050643  0  3.707186  0  0  -0.081343  0  3.961204  0  0  -0.079738  0  3.981209  0  0  -0.073714  -0.082159  0  3.947921  0
C  C65  1  0.67190501  0.88353966  0.54281160  1  0  -0.050637  0  3.70714  0  0  -0.081312  0  3.961153  0  0  -0.079708  0  3.981155  0  0  -0.073717  -0.082123  0  3.94785  0
C  C66  1  0.67190475  0.38353966  0.95718800  1  0  -0.05065  0  3.707163  0  0  -0.081349  0  3.961182  0  0  -0.079745  0  3.981188  0  0  -0.073724  -0.082167  0  3.947894  0
C  C67  1  0.32809568  0.11646119  0.45718815  1  0  -0.050644  0  3.707152  0  0  -0.081344  0  3.961172  0  0  -0.079742  0  3.981178  0  0  -0.073726  -0.082166  0  3.947896  0
C  C68  1  0.45395572  0.70796507  0.88412953  1  0  -0.127139  0  3.699843  0  0  -0.16121  0  3.945787  0  0  -0.160355  0  3.964068  0  0  -0.074357  -0.161247  0  3.933197  0
C  C69  1  0.54603958  0.79203571  0.38412719  1  0  -0.127342  0  3.699963  0  0  -0.161372  0  3.9459  0  0  -0.160523  0  3.964195  0  0  -0.074466  -0.161416  0  3.933328  0
C  C70  1  0.54604306  0.29203676  0.11587193  1  0  -0.127211  0  3.699867  0  0  -0.161284  0  3.945816  0  0  -0.160429  0  3.964099  0  0  -0.074414  -0.161327  0  3.933235  0
C  C71  1  0.45395710  0.20796319  0.61587170  1  0  -0.127202  0  3.699856  0  0  -0.161277  0  3.9458  0  0  -0.160423  0  3.964081  0  0  -0.074409  -0.161318  0  3.933219  0
C  C72  1  0.56535678  0.71065606  0.95252252  1  0  0.147149  0  3.788374  0  0  0.144476  0  4.038753  0  0  0.145705  0  4.062581  0  0  0.09365  0.14351  0  4.023134  0
C  C73  1  0.43464150  0.78934470  0.45252183  1  0  0.147086  0  3.788442  0  0  0.144419  0  4.038808  0  0  0.145646  0  4.062633  0  0  0.093606  0.143446  0  4.023198  0
C  C74  1  0.43464297  0.28934577  0.04747809  1  0  0.147221  0  3.788291  0  0  0.144547  0  4.038694  0  0  0.145772  0  4.062521  0  0  0.093681  0.143576  0  4.023069  0
C  C75  1  0.56535718  0.21065518  0.54747792  1  0  0.147204  0  3.788287  0  0  0.144538  0  4.038662  0  0  0.145765  0  4.062489  0  0  0.093653  0.143566  0  4.023039  0
C  C76  1  0.44085297  0.61899609  0.10997344  1  0  -0.0607  0  3.762373  0  0  -0.073451  0  4.020589  0  0  -0.078014  0  4.043444  0  0  -0.084512  -0.070287  0  4.004842  0
C  C77  1  0.55914699  0.88100377  0.60997409  1  0  -0.060665  0  3.762271  0  0  -0.073435  0  4.020488  0  0  -0.077997  0  4.043341  0  0  -0.084502  -0.070268  0  4.004718  0
C  C78  1  0.55914674  0.38100477  0.89002631  1  0  -0.060644  0  3.762257  0  0  -0.073394  0  4.020469  0  0  -0.077958  0  4.043327  0  0  -0.084484  -0.070232  0  4.004714  0
C  C79  1  0.44085365  0.11899610  0.39002651  1  0  -0.060668  0  3.762345  0  0  -0.073434  0  4.020565  0  0  -0.077997  0  4.043421  0  0  -0.08451  -0.070273  0  4.004816  0
C  C80  1  0.56062578  0.66695951  0.06572880  1  0  -0.109375  0  3.682454  0  0  -0.134678  0  3.933001  0  0  -0.134695  0  3.951657  0  0  -0.071796  -0.134635  0  3.920798  0
C  C81  1  0.43937424  0.83304231  0.56572939  1  0  -0.109348  0  3.682421  0  0  -0.134649  0  3.932967  0  0  -0.134666  0  3.951625  0  0  -0.071793  -0.134605  0  3.920757  0
C  C82  1  0.43937299  0.33304232  0.93427095  1  0  -0.109492  0  3.682415  0  0  -0.134814  0  3.932968  0  0  -0.13483  0  3.951627  0  0  -0.071897  -0.134759  0  3.920767  0
C  C83  1  0.56062644  0.16695854  0.43427121  1  0  -0.109422  0  3.682441  0  0  -0.134731  0  3.932996  0  0  -0.134746  0  3.951651  0  0  -0.071817  -0.134689  0  3.920784  0
N  N84  1  0.68727487  0.76165718  0.90645614  1  0  -0.03877  0  3.535671  0  0  0.039199  0  3.761819  0  0  0.027591  0  3.78598  0  0  -0.108473  0.046647  0  3.746042  0
N  N85  1  0.31272436  0.73834360  0.40645625  1  0  -0.038697  0  3.535725  0  0  0.039277  0  3.761863  0  0  0.027671  0  3.786023  0  0  -0.108387  0.046727  0  3.746083  0
N  N86  1  0.31272582  0.23834368  0.09354361  1  0  -0.038743  0  3.535674  0  0  0.039217  0  3.761823  0  0  0.027613  0  3.785981  0  0  -0.108411  0.046668  0  3.746038  0
N  N87  1  0.68727432  0.26165628  0.59354435  1  0  -0.038743  0  3.535624  0  0  0.039223  0  3.761768  0  0  0.027615  0  3.785927  0  0  -0.108414  0.046669  0  3.745981  0
N  N88  1  0.75543670  0.69238817  0.82900834  1  0  -0.052299  0  2.799736  0  0  -0.070641  0  3.082957  0  0  -0.065676  0  3.093364  0  0  -0.079232  -0.074399  0  3.076478  0
N  N89  1  0.24456351  0.80761360  0.32900840  1  0  -0.052216  0  2.799694  0  0  -0.070563  0  3.082916  0  0  -0.065599  0  3.093326  0  0  -0.079264  -0.074308  0  3.076432  0
N  N90  1  0.24456301  0.30761269  0.17099226  1  0  -0.052248  0  2.79977  0  0  -0.070588  0  3.08299  0  0  -0.065626  0  3.093399  0  0  -0.079274  -0.074343  0  3.076516  0
N  N91  1  0.75543718  0.19238725  0.67099220  1  0  -0.052287  0  2.799748  0  0  -0.070632  0  3.082978  0  0  -0.065665  0  3.093386  0  0  -0.079287  -0.074388  0  3.076494  0
N  N92  1  0.86054796  0.76567674  0.80575470  1  0  -0.24337  0  3.293032  0  0  -0.192816  0  3.60344  0  0  -0.202252  0  3.614806  0  0  -0.202017  -0.186774  0  3.596769  0
N  N93  1  0.13945115  0.73432307  0.30575558  1  0  -0.243467  0  3.293038  0  0  -0.192899  0  3.603454  0  0  -0.202337  0  3.614823  0  0  -0.202009  -0.186867  0  3.596805  0
N  N94  1  0.13945263  0.23432215  0.19424505  1  0  -0.243455  0  3.2932  0  0  -0.192906  0  3.603616  0  0  -0.20234  0  3.614982  0  0  -0.202022  -0.186868  0  3.59696  0
N  N95  1  0.86054846  0.26567583  0.69424502  1  0  -0.243424  0  3.293069  0  0  -0.192872  0  3.603485  0  0  -0.202307  0  3.614851  0  0  -0.20202  -0.186841  0  3.596832  0
O  O96  1  0.10378704  0.62101024  0.90162565  1  0  -0.674406  0  2.063404  0  0  -0.609092  0  2.290136  0  0  -0.634528  0  2.278124  0  0  -0.31517  -0.590934  0  2.298073  0
O  O97  1  0.89621316  0.87899053  0.40162605  1  0  -0.674431  0  2.063318  0  0  -0.609129  0  2.29005  0  0  -0.634561  0  2.278029  0  0  -0.315194  -0.590968  0  2.297985  0
O  O98  1  0.89621360  0.37898963  0.09837409  1  0  -0.674414  0  2.063355  0  0  -0.609119  0  2.29009  0  0  -0.634554  0  2.278078  0  0  -0.315188  -0.590966  0  2.298032  0
O  O99  1  0.10378752  0.12101032  0.59837455  1  0  -0.674413  0  2.063377  0  0  -0.609112  0  2.290108  0  0  -0.634547  0  2.278093  0  0  -0.315193  -0.590956  0  2.298051  0
O  O100  1  0.22126052  0.71281881  0.75903018  1  0  -0.612439  0  2.03369  0  0  -0.542093  0  2.289995  0  0  -0.570681  0  2.276597  0  0  -0.305344  -0.522343  0  2.298509  0
O  O101  1  0.77873959  0.78718200  0.25903053  1  0  -0.612414  0  2.033723  0  0  -0.542095  0  2.290057  0  0  -0.570691  0  2.276672  0  0  -0.30533  -0.522352  0  2.298589  0
O  O102  1  0.77874012  0.28718107  0.24096956  1  0  -0.612433  0  2.033677  0  0  -0.542088  0  2.289996  0  0  -0.570679  0  2.276604  0  0  -0.30534  -0.522337  0  2.298513  0
O  O103  1  0.22126110  0.21281886  0.74096921  1  0  -0.612433  0  2.033737  0  0  -0.542077  0  2.290026  0  0  -0.57067  0  2.276632  0  0  -0.305324  -0.522322  0  2.298531  0
O  O104  1  0.06858142  0.93631452  0.79257849  1  0  -0.614456  0  2.027492  0  0  -0.556142  0  2.274153  0  0  -0.583576  0  2.264159  0  0  -0.305047  -0.536796  0  2.280459  0
O  O105  1  0.93141964  0.56368529  0.29257810  1  0  -0.61443  0  2.027496  0  0  -0.556111  0  2.274167  0  0  -0.583544  0  2.264171  0  0  -0.305034  -0.536766  0  2.280476  0
O  O106  1  0.93142020  0.06368535  0.20741870  1  0  -0.614435  0  2.027493  0  0  -0.556105  0  2.274133  0  0  -0.58354  0  2.264136  0  0  -0.305017  -0.536752  0  2.280439  0
O  O107  1  0.06858198  0.43631458  0.70742164  1  0  -0.614455  0  2.027477  0  0  -0.556132  0  2.274132  0  0  -0.583568  0  2.264135  0  0  -0.305054  -0.536793  0  2.280447  0
O  O108  1  0.95878148  0.09301502  0.88363839  1  0  -0.63095  0  2.026294  0  0  -0.564413  0  2.288916  0  0  -0.593106  0  2.274518  0  0  -0.319569  -0.543979  0  2.298122  0
O  O109  1  0.04121984  0.40698487  0.38363833  1  0  -0.630972  0  2.026283  0  0  -0.564433  0  2.288917  0  0  -0.593123  0  2.274516  0  0  -0.319577  -0.543994  0  2.298117  0
O  O110  1  0.04122010  0.90698387  0.11635964  1  0  -0.631029  0  2.026321  0  0  -0.564499  0  2.288958  0  0  -0.593178  0  2.274528  0  0  -0.319618  -0.544065  0  2.298174  0
O  O111  1  0.95878085  0.59301598  0.61636227  1  0  -0.630978  0  2.026275  0  0  -0.564446  0  2.288915  0  0  -0.593139  0  2.274515  0  0  -0.319592  -0.544012  0  2.298116  0
O  O112  1  0.07074838  0.85660298  0.56520037  1  0  -0.82064  0  1.900923  0  0  -0.754888  0  2.109205  0  0  -0.777689  0  2.075726  0  0  -0.574673  -0.738637  0  2.132958  0
O  O113  1  0.92925062  0.64339786  0.06520083  1  0  -0.820648  0  1.90093  0  0  -0.754881  0  2.109207  0  0  -0.777684  0  2.075726  0  0  -0.57466  -0.738633  0  2.132964  0
O  O114  1  0.92925138  0.14339885  0.43479937  1  0  -0.82064  0  1.900927  0  0  -0.75487  0  2.109228  0  0  -0.777672  0  2.075746  0  0  -0.574672  -0.738618  0  2.132998  0
O  O115  1  0.07074909  0.35660299  0.93479977  1  0  -0.820629  0  1.900919  0  0  -0.754869  0  2.109203  0  0  -0.777671  0  2.075723  0  0  -0.574657  -0.73862  0  2.13296  0
