# generated using pymatgen
data_MnH8C13N5O2
_symmetry_space_group_name_H-M   'P 1'
_cell_length_a   7.80674984
_cell_length_b   9.07285009
_cell_length_c   10.62664903
_cell_angle_alpha   110.90436714
_cell_angle_beta   101.77126160
_cell_angle_gamma   104.47962388
_symmetry_Int_Tables_number   1
_chemical_formula_structural   MnH8C13N5O2
_chemical_formula_sum   'Mn2 H16 C26 N10 O4'
_cell_volume   644.03662128
_cell_formula_units_Z   2
loop_
 _symmetry_equiv_pos_site_id
 _symmetry_equiv_pos_as_xyz
  1  'x, y, z'
loop_
 _atom_site_type_symbol
 _atom_site_label
 _atom_site_symmetry_multiplicity
 _atom_site_fract_x
 _atom_site_fract_y
 _atom_site_fract_z
 _atom_site_occupancy
 _atom_site_pbe_bader_charge
 _atom_site_pbe_bader_spin_density
 _atom_site_pbe_cm5_charge
 _atom_site_pbe_ddec_charge
 _atom_site_pbe_ddec_spin_density
 _atom_site_pbe_ddec_sum_bond_order
 _atom_site_pbe_magmom
Mn  Mn0  1  0.69812337  0.51747594  0.61546487  1  1.402711  1.331807  0.697687  0.630565  1.375529  3.350104  1.323
Mn  Mn1  1  0.30341975  0.48360866  0.40531980  1  1.466316  4.427108  0.63751  0.803559  4.560965  2.560459  4.356
H  H2  1  0.05553441  0.84008873  0.76084238  1  0.108939  -0.000645  0.118648  0.089655  -0.000576  1.015685  0.0
H  H3  1  0.94050035  0.14515651  0.22809550  1  0.08454  0.001148  0.117972  0.083668  0.000365  1.008261  0.001
H  H4  1  0.27119879  0.00817824  0.01081136  1  0.109316  0.000276  0.103076  0.106517  0.000432  1.036483  0.0
H  H5  1  0.71930731  0.98733257  0.97734902  1  0.11702  0.001249  0.105147  0.106502  0.001008  1.04734  0.0
H  H6  1  0.20952640  0.92715306  0.20310162  1  0.103213  -0.000575  0.108457  0.114615  -0.000728  0.986259  0.0
H  H7  1  0.78964661  0.07773371  0.79184277  1  0.097194  -0.000113  0.114238  0.115862  -0.000181  0.975679  0.0
H  H8  1  0.00137462  0.70653959  0.26510729  1  0.125787  9.7e-05  0.105591  0.121942  -0.000242  1.013422  0.0
H  H9  1  0.99719144  0.29168881  0.73345019  1  0.129901  0.0003  0.108581  0.123507  6.1e-05  1.012958  0.0
H  H10  1  0.73610583  0.44231090  0.18018259  1  0.095134  0.000252  0.102037  0.10748  0.000111  1.020354  0.0
H  H11  1  0.26267996  0.55558668  0.81752011  1  0.102009  0.000314  0.104627  0.107383  6.5e-05  1.019926  0.0
H  H12  1  0.47163437  0.18794559  0.97028970  1  0.089359  -2.4e-05  0.102069  0.103761  -0.000139  1.037929  0.0
H  H13  1  0.52175536  0.80570900  0.02067982  1  0.098709  0.000121  0.10644  0.103991  0.00013  1.034263  0.0
H  H14  1  0.29169899  0.05232701  0.70723065  1  0.103895  -0.00014  0.107794  0.117345  3.7e-05  0.997568  0.0
H  H15  1  0.71171270  0.94821582  0.28104867  1  0.092707  0.00091  0.109739  0.117491  0.00056  0.998103  0.0
H  H16  1  0.37124978  0.19923668  0.55728248  1  0.115333  -0.000772  0.122101  0.096259  -0.001306  1.003016  0.0
H  H17  1  0.63579637  0.80578644  0.43689587  1  0.150799  0.001443  0.123208  0.093346  0.000644  0.986329  0.001
C  C18  1  0.02958823  0.80724533  0.84592900  1  0.405905  -0.025705  0.041152  0.073216  -0.025679  3.925228  -0.013
C  C19  1  0.96615444  0.18232632  0.14482114  1  0.531597  0.007434  0.059508  0.107008  0.006196  3.952365  0.006
C  C20  1  0.14885376  0.90084272  0.98663088  1  0.007503  -0.005339  -0.090864  -0.127362  -0.006622  4.025709  -0.001
C  C21  1  0.84408826  0.09359327  0.00428759  1  -0.017291  -0.001313  -0.084269  -0.124958  -0.001961  3.997859  -0.001
C  C22  1  0.11476104  0.85605267  0.09375445  1  -0.060058  -0.036588  -0.079067  -0.106583  -0.037669  3.950481  -0.021
C  C23  1  0.88275584  0.14435319  0.90195099  1  -0.064201  0.006923  -0.059276  -0.067206  0.005225  3.916735  0.005
C  C24  1  0.91320543  0.64305849  0.15354563  1  -0.082836  0.000287  -0.085992  -0.122888  -9e-05  3.956143  0.001
C  C25  1  0.08574424  0.35574717  0.84475068  1  0.012277  0.0001  -0.080718  -0.112821  -0.000311  3.954019  0.0
C  C26  1  0.76603345  0.49561410  0.10656375  1  0.048557  -0.001742  -0.085204  -0.113714  -0.001969  3.95524  -0.001
C  C27  1  0.23247703  0.50254304  0.89116322  1  -0.064867  -0.0024  -0.081557  -0.106979  -0.002779  3.95612  -0.001
C  C28  1  0.50250390  0.24898921  0.90185968  1  -0.00538  -0.043011  -0.080552  -0.109416  -0.044241  3.958381  -0.025
C  C29  1  0.49476418  0.74854286  0.09241246  1  -0.040174  0.004959  -0.060664  -0.070633  0.003753  3.929699  0.003
C  C30  1  0.40465718  0.17433209  0.75665121  1  -0.026154  -0.005095  -0.088757  -0.131558  -0.006427  4.018271  0.0
C  C31  1  0.59841020  0.82700978  0.23551956  1  0.003191  -0.001711  -0.080915  -0.127232  -0.002109  3.985134  -0.001
C  C32  1  0.44913007  0.25371939  0.67031410  1  0.442913  -0.028986  0.047227  0.083626  -0.029609  3.90256  -0.014
C  C33  1  0.55463719  0.74982241  0.32412450  1  0.476407  0.008527  0.066876  0.117607  0.006972  3.920451  0.006
C  C34  1  0.84326718  0.62530688  0.91321546  1  0.450139  -0.020811  0.104016  0.101812  -0.022191  3.987613  -0.011
C  C35  1  0.15510170  0.37180974  0.08683483  1  0.468142  0.006495  0.12079  0.124751  0.005197  3.974039  0.005
C  C36  1  0.95855846  0.71244814  0.05757183  1  -0.008903  -0.001378  -0.004799  0.046148  -0.001932  4.036708  0.001
C  C37  1  0.04131280  0.28794292  0.94147619  1  0.013981  -0.001511  0.000345  0.042167  -0.001872  4.008182  -0.001
C  C38  1  0.68883225  0.47653454  0.86592118  1  0.366385  -0.0214  0.103834  0.099833  -0.022263  3.973801  -0.011
C  C39  1  0.31085557  0.52537908  0.13533026  1  0.472519  0.005092  0.119434  0.116127  0.003885  3.966058  0.004
C  C40  1  0.64912222  0.40584231  0.96030544  1  -0.063772  -5.9e-05  -0.005029  0.045692  -0.000679  4.038574  0.003
C  C41  1  0.34761384  0.59208965  0.03748360  1  -0.020663  -0.000118  0.000686  0.044315  -0.000588  4.008753  0.0
C  C42  1  0.99383268  0.42813719  0.51958324  1  1.537298  -0.001259  0.210858  0.448817  -0.001188  4.194599  0.002
C  C43  1  0.99956926  0.58457308  0.49202248  1  1.571858  -0.001505  0.203631  0.438698  -0.001399  4.234013  0.001
N  N44  1  0.87687201  0.67060787  0.80716047  1  -1.199421  -0.035029  -0.351656  -0.231838  -0.040086  3.60147  -0.036
N  N45  1  0.11822132  0.31678197  0.18520012  1  -1.264576  0.050744  -0.323281  -0.278556  0.034111  3.526898  0.017
N  N46  1  0.59055567  0.40303979  0.72184478  1  -1.190427  -0.037028  -0.346694  -0.22057  -0.042755  3.574847  -0.038
N  N47  1  0.41344920  0.60450723  0.27614653  1  -1.275252  0.048367  -0.314234  -0.263002  0.031813  3.497043  0.014
N  N48  1  0.49502651  0.34456100  0.41370362  1  -0.391273  0.028499  -0.301679  -0.500381  0.020942  3.163673  -0.005
N  N49  1  0.52902565  0.65283646  0.61214009  1  -0.39759  0.021902  -0.315447  -0.491304  0.013512  3.218947  -0.012
N  N50  1  0.53601432  0.26323223  0.31406372  1  -0.307282  0.023497  0.103941  0.422332  0.014446  4.428345  0.015
N  N51  1  0.48602952  0.73968772  0.70810811  1  -0.316416  0.026341  0.107753  0.422173  0.01658  4.398124  0.017
N  N52  1  0.57052082  0.18205592  0.21650039  1  -0.016018  0.074711  -0.160731  -0.350645  0.057843  2.617692  0.052
N  N53  1  0.43706854  0.82404041  0.79413454  1  0.013347  0.081402  -0.148878  -0.335348  0.063138  2.636172  0.058
O  O54  1  0.86969647  0.37864432  0.57207748  1  -1.123843  0.009174  -0.27862  -0.437523  0.003956  2.360274  0.0
O  O55  1  0.13123396  0.64186618  0.45014777  1  -1.170844  0.049691  -0.300634  -0.499024  0.034707  2.294247  0.024
O  O56  1  0.11098529  0.35846334  0.48916118  1  -1.171193  0.048328  -0.298803  -0.492869  0.03269  2.284773  0.02
O  O57  1  0.87099653  0.64376188  0.51308089  1  -1.136466  0.006756  -0.276652  -0.455362  0.002717  2.237959  0.001
