# generated using pymatgen
data_CdH9C9S(N2O3)2
_symmetry_space_group_name_H-M   'P 1'
_cell_length_a   8.64100018
_cell_length_b   9.29286603
_cell_length_c   9.67596787
_cell_angle_alpha   75.48536882
_cell_angle_beta   79.64083183
_cell_angle_gamma   78.94739648
_symmetry_Int_Tables_number   1
_chemical_formula_structural   CdH9C9S(N2O3)2
_chemical_formula_sum   'Cd2 H18 C18 S2 N8 O12'
_cell_volume   731.09289275
_cell_formula_units_Z   2
loop_
 _symmetry_equiv_pos_site_id
 _symmetry_equiv_pos_as_xyz
  1  'x, y, z'
loop_
 _atom_site_type_symbol
 _atom_site_label
 _atom_site_symmetry_multiplicity
 _atom_site_fract_x
 _atom_site_fract_y
 _atom_site_fract_z
 _atom_site_occupancy
 _atom_site_hle17_bader_spin_density
 _atom_site_hle17_ddec_charge
 _atom_site_hle17_ddec_spin_density
 _atom_site_hle17_ddec_sum_bond_order
 _atom_site_hle17_magmom
 _atom_site_hse06_10hf_bader_spin_density
 _atom_site_hse06_10hf_ddec_charge
 _atom_site_hse06_10hf_ddec_spin_density
 _atom_site_hse06_10hf_ddec_sum_bond_order
 _atom_site_hse06_10hf_magmom
 _atom_site_hse06_bader_spin_density
 _atom_site_hse06_ddec_charge
 _atom_site_hse06_ddec_spin_density
 _atom_site_hse06_ddec_sum_bond_order
 _atom_site_hse06_magmom
 _atom_site_pbe_bader_spin_density
 _atom_site_pbe_cm5_charge
 _atom_site_pbe_ddec_charge
 _atom_site_pbe_ddec_spin_density
 _atom_site_pbe_ddec_sum_bond_order
 _atom_site_pbe_magmom
Cd  Cd0  1  0.05842457  0.11389462  0.13040720  1  0  0.98141  0  1.769749  0  0  0.78604  0  2.206875  0  0  0.843001  0  2.160594  0  0  0.734062  0.745366  0  2.238504  0
Cd  Cd1  1  0.94157733  0.88611203  0.86958832  1  0  0.981409  0  1.769681  0  0  0.786035  0  2.206783  0  0  0.84301  0  2.160504  0  0  0.734044  0.745361  0  2.238412  0
H  H2  1  0.14615850  0.94758426  0.44606241  1  0  0.086346  0  0.960533  0  0  0.095403  0  1.024624  0  0  0.097668  0  1.022443  0  0  0.11424  0.093695  0  1.026304  0
H  H3  1  0.85384346  0.05240880  0.55393239  1  0  0.086354  0  0.960427  0  0  0.095423  0  1.024498  0  0  0.097688  0  1.022317  0  0  0.114272  0.093717  0  1.026179  0
H  H4  1  0.30886496  0.96536794  0.62585428  1  0  0.110384  0  0.969705  0  0  0.118647  0  1.031485  0  0  0.121643  0  1.031098  0  0  0.103546  0.116374  0  1.032084  0
H  H5  1  0.69113288  0.03461498  0.37414682  1  0  0.110311  0  0.969675  0  0  0.11855  0  1.031491  0  0  0.121542  0  1.031115  0  0  0.103522  0.116287  0  1.032078  0
H  H6  1  0.43518727  0.20036526  0.58432830  1  0  0.088526  0  0.928469  0  0  0.104698  0  0.979137  0  0  0.106504  0  0.978538  0  0  0.109717  0.103787  0  0.978795  0
H  H7  1  0.56482090  0.79961898  0.41567602  1  0  0.088636  0  0.928434  0  0  0.10482  0  0.979068  0  0  0.106625  0  0.978469  0  0  0.109745  0.103898  0  0.978728  0
H  H8  1  0.38640033  0.40399835  0.36529368  1  0  0.115633  0  0.925173  0  0  0.128444  0  0.976855  0  0  0.131861  0  0.975423  0  0  0.113771  0.125942  0  0.978152  0
H  H9  1  0.61360974  0.59599500  0.63471323  1  0  0.115646  0  0.925176  0  0  0.128487  0  0.976843  0  0  0.131902  0  0.975412  0  0  0.113779  0.12601  0  0.978108  0
H  H10  1  0.30685790  0.47603501  0.13266842  1  0  0.132689  0  0.931956  0  0  0.145174  0  0.994589  0  0  0.147436  0  0.992872  0  0  0.110685  0.143512  0  0.996004  0
H  H11  1  0.69315377  0.52395606  0.86733571  1  0  0.13269  0  0.931971  0  0  0.145174  0  0.994605  0  0  0.147434  0  0.992893  0  0  0.110681  0.143511  0  0.996023  0
H  H12  1  0.10147643  0.48990521  0.19727500  1  0  0.138243  0  0.939387  0  0  0.15028  0  1.002883  0  0  0.152257  0  1.001579  0  0  0.109627  0.148742  0  1.003956  0
H  H13  1  0.89853321  0.51010393  0.80272903  1  0  0.138269  0  0.939422  0  0  0.150315  0  1.002879  0  0  0.152291  0  1.00158  0  0  0.10966  0.148783  0  1.003944  0
H  H14  1  0.32637581  0.32204875  0.80133949  1  0  0.132818  0  0.918785  0  0  0.147789  0  0.976577  0  0  0.149351  0  0.975241  0  0  0.114679  0.147201  0  0.976405  0
H  H15  1  0.67361122  0.67795549  0.19865999  1  0  0.132795  0  0.918783  0  0  0.147773  0  0.976576  0  0  0.149332  0  0.975246  0  0  0.114698  0.14719  0  0.976406  0
H  H16  1  0.43510748  0.38118945  0.91141271  1  0  0.132635  0  0.942345  0  0  0.143169  0  1.00853  0  0  0.145435  0  1.006598  0  0  0.110853  0.141375  0  1.010181  0
H  H17  1  0.56489170  0.61880591  0.08858711  1  0  0.132647  0  0.942288  0  0  0.143194  0  1.008472  0  0  0.145455  0  1.006538  0  0  0.110903  0.141399  0  1.010123  0
H  H18  1  0.66201982  0.18414938  0.85407441  1  0  0.109603  0  0.951455  0  0  0.114205  0  1.018939  0  0  0.117686  0  1.015615  0  0  0.121163  0.111611  0  1.021499  0
H  H19  1  0.33796919  0.81585035  0.14592383  1  0  0.109529  0  0.951433  0  0  0.114158  0  1.018927  0  0  0.117646  0  1.015602  0  0  0.121117  0.111552  0  1.021494  0
C  C20  1  0.19954177  0.04795872  0.43369560  1  0  0.123531  0  3.708225  0  0  0.091391  0  3.962455  0  0  0.09798  0  3.982736  0  0  0.038229  0.087107  0  3.948487  0
C  C21  1  0.80045294  0.95203540  0.56630110  1  0  0.12346  0  3.708282  0  0  0.091321  0  3.962521  0  0  0.097907  0  3.982808  0  0  0.038152  0.087033  0  3.948559  0
C  C22  1  0.29154201  0.05859496  0.53349000  1  0  -0.121371  0  3.74512  0  0  -0.138585  0  4.005951  0  0  -0.146309  0  4.028705  0  0  -0.09028  -0.133312  0  3.990764  0
C  C23  1  0.70845648  0.94139719  0.46652315  1  0  -0.12118  0  3.745374  0  0  -0.13836  0  4.006155  0  0  -0.146089  0  4.028921  0  0  -0.090224  -0.133094  0  3.990958  0
C  C24  1  0.35978326  0.18857540  0.51003151  1  0  0.013344  0  3.733541  0  0  -0.009127  0  3.99234  0  0  -0.004655  0  4.010583  0  0  -0.064841  -0.012083  0  3.979634  0
C  C25  1  0.64022841  0.81141568  0.48997262  1  0  0.013157  0  3.733763  0  0  -0.009272  0  3.992511  0  0  -0.0048  0  4.010757  0  0  -0.064852  -0.012217  0  3.979794  0
C  C26  1  0.33318720  0.30199627  0.38848640  1  0  -0.141486  0  3.677535  0  0  -0.160514  0  3.925748  0  0  -0.167631  0  3.945102  0  0  -0.076853  -0.156415  0  3.913435  0
C  C27  1  0.66681984  0.69799463  0.61151023  1  0  -0.141449  0  3.677817  0  0  -0.160588  0  3.92607  0  0  -0.167709  0  3.945425  0  0  -0.076885  -0.156507  0  3.913744  0
C  C28  1  0.23933146  0.28356167  0.29216720  1  0  0.292683  0  3.695391  0  0  0.292469  0  3.935733  0  0  0.30147  0  3.957418  0  0  0.125369  0.286432  0  3.920888  0
C  C29  1  0.76064710  0.71643693  0.70784225  1  0  0.292491  0  3.695346  0  0  0.292377  0  3.93563  0  0  0.301385  0  3.957309  0  0  0.125358  0.286332  0  3.920791  0
C  C30  1  0.20725797  0.41182491  0.16481732  1  0  -0.248046  0  3.628022  0  0  -0.287169  0  3.881108  0  0  -0.288693  0  3.891197  0  0  -0.145737  -0.286042  0  3.874224  0
C  C31  1  0.79274271  0.58817509  0.83518835  1  0  -0.247935  0  3.627868  0  0  -0.287129  0  3.881077  0  0  -0.288659  0  3.891177  0  0  -0.14572  -0.286003  0  3.874187  0
C  C32  1  0.35176999  0.30531048  0.91235536  1  0  -0.242107  0  3.652924  0  0  -0.284566  0  3.911139  0  0  -0.285283  0  3.921826  0  0  -0.144576  -0.284079  0  3.903617  0
C  C33  1  0.64821744  0.69469824  0.08764086  1  0  -0.241963  0  3.652946  0  0  -0.284457  0  3.911091  0  0  -0.285166  0  3.921775  0  0  -0.144558  -0.283976  0  3.903575  0
C  C34  1  0.42572052  0.14426828  0.96302796  1  0  0.237143  0  3.692538  0  0  0.236895  0  3.944551  0  0  0.241143  0  3.965784  0  0  0.128017  0.233736  0  3.930322  0
C  C35  1  0.57427957  0.85573507  0.03697591  1  0  0.23686  0  3.692825  0  0  0.236779  0  3.944637  0  0  0.241023  0  3.965876  0  0  0.127955  0.233622  0  3.930404  0
C  C36  1  0.58819035  0.10212996  0.91921880  1  0  0.057411  0  3.623694  0  0  0.019529  0  3.881495  0  0  0.022565  0  3.897609  0  0  0.054379  0.017241  0  3.87108  0
C  C37  1  0.41180286  0.89786630  0.08077036  1  0  0.057598  0  3.623445  0  0  0.019625  0  3.881181  0  0  0.02266  0  3.897291  0  0  0.054389  0.01735  0  3.870753  0
S  S38  1  0.16111493  0.37335616  0.00395554  1  0  0.077438  0  2.614243  0  0  0.089889  0  3.004922  0  0  0.083323  0  3.002882  0  0  0.023672  0.094026  0  3.006574  0
S  S39  1  0.83887846  0.62665170  0.99605341  1  0  0.077264  0  2.614215  0  0  0.089722  0  3.004896  0  0  0.083155  0  3.002857  0  0  0.023548  0.093857  0  3.00655  0
N  N40  1  0.17397420  0.15785171  0.31544310  1  0  -0.380727  0  3.248693  0  0  -0.302699  0  3.497975  0  0  -0.325296  0  3.519819  0  0  -0.330138  -0.286892  0  3.482414  0
N  N41  1  0.82601985  0.84214591  0.68456109  1  0  -0.380595  0  3.248206  0  0  -0.302623  0  3.497503  0  0  -0.325224  0  3.519346  0  0  -0.33009  -0.286814  0  3.48194  0
N  N42  1  0.33924242  0.03991701  0.04390405  1  0  -0.296918  0  3.216578  0  0  -0.233528  0  3.474087  0  0  -0.249023  0  3.493693  0  0  -0.300534  -0.222783  0  3.460832  0
N  N43  1  0.66075032  0.96008161  0.95609286  1  0  -0.296807  0  3.216811  0  0  -0.233437  0  3.474172  0  0  -0.248937  0  3.493787  0  0  -0.300498  -0.222695  0  3.460924  0
N  N44  1  0.98538861  0.80341201  0.23996915  1  0  0.72261  0  4.086307  0  0  0.733242  0  4.405346  0  0  0.762799  0  4.411149  0  0  0.094888  0.713254  0  4.400922  0
N  N45  1  0.01461855  0.19659811  0.76002675  1  0  0.722672  0  4.086831  0  0  0.733326  0  4.405824  0  0  0.762875  0  4.411626  0  0  0.094924  0.71334  0  4.401396  0
N  N46  1  0.73473343  0.28149525  0.13167968  1  0  0.685696  0  4.151753  0  0  0.725111  0  4.43608  0  0  0.754849  0  4.440944  0  0  0.089742  0.705108  0  4.43228  0
N  N47  1  0.26526986  0.71851028  0.86831488  1  0  0.685771  0  4.151663  0  0  0.725175  0  4.43601  0  0  0.754911  0  4.44086  0  0  0.089795  0.705174  0  4.432204  0
O  O48  1  0.93170468  0.68309350  0.26802614  1  0  -0.404415  0  1.763657  0  0  -0.393658  0  1.974876  0  0  -0.405721  0  1.969082  0  0  -0.149329  -0.385255  0  1.978715  0
O  O49  1  0.06829032  0.31691878  0.73197421  1  0  -0.404483  0  1.764007  0  0  -0.393714  0  1.975183  0  0  -0.405769  0  1.969387  0  0  -0.149329  -0.385316  0  1.979028  0
O  O50  1  0.91947116  0.91968722  0.15002998  1  0  -0.529747  0  1.840658  0  0  -0.485802  0  2.094763  0  0  -0.510306  0  2.087578  0  0  -0.223034  -0.468255  0  2.098921  0
O  O51  1  0.08054524  0.08032408  0.84996005  1  0  -0.529739  0  1.840739  0  0  -0.485776  0  2.09477  0  0  -0.51035  0  2.087758  0  0  -0.223037  -0.468228  0  2.098925  0
O  O52  1  0.10043715  0.82087072  0.29454006  1  0  -0.464295  0  1.752972  0  0  -0.446472  0  1.97092  0  0  -0.461732  0  1.962915  0  0  -0.181944  -0.435885  0  1.976333  0
O  O53  1  0.89956981  0.17913380  0.70545935  1  0  -0.464307  0  1.752999  0  0  -0.446508  0  1.970958  0  0  -0.461772  0  1.962966  0  0  -0.181989  -0.435921  0  1.976372  0
O  O54  1  0.79404417  0.24977167  0.24903922  1  0  -0.470988  0  1.730858  0  0  -0.461071  0  1.940234  0  0  -0.477149  0  1.93219  0  0  -0.204441  -0.449775  0  1.945584  0
O  O55  1  0.20595112  0.75022586  0.75095757  1  0  -0.470958  0  1.730803  0  0  -0.461067  0  1.940199  0  0  -0.477141  0  1.932156  0  0  -0.204459  -0.449769  0  1.945544  0
O  O56  1  0.59663590  0.35126431  0.12162889  1  0  -0.439139  0  1.774757  0  0  -0.438017  0  1.992568  0  0  -0.451831  0  1.987128  0  0  -0.176769  -0.428278  0  1.996313  0
O  O57  1  0.40336549  0.64873886  0.87836036  1  0  -0.439181  0  1.774715  0  0  -0.43803  0  1.992469  0  0  -0.451829  0  1.987012  0  0  -0.176785  -0.428305  0  1.996226  0
O  O58  1  0.82073831  0.23998148  0.02142316  1  0  -0.498863  0  1.849397  0  0  -0.481201  0  2.091044  0  0  -0.503311  0  2.087402  0  0  -0.208137  -0.465486  0  2.092834  0
O  O59  1  0.17926788  0.76003426  0.97857044  1  0  -0.499008  0  1.849666  0  0  -0.48126  0  2.091172  0  0  -0.503426  0  2.087653  0  0  -0.208143  -0.46554  0  2.092956  0
