# generated using pymatgen
data_ZnH4(CN)8
_symmetry_space_group_name_H-M   'P 1'
_cell_length_a   5.61202732
_cell_length_b   9.87957858
_cell_length_c   18.38191542
_cell_angle_alpha   90.00053300
_cell_angle_beta   90.00037265
_cell_angle_gamma   100.30508074
_symmetry_Int_Tables_number   1
_chemical_formula_structural   ZnH4(CN)8
_chemical_formula_sum   'Zn4 H16 C32 N32'
_cell_volume   1002.73532667
_cell_formula_units_Z   4
loop_
 _symmetry_equiv_pos_site_id
 _symmetry_equiv_pos_as_xyz
  1  'x, y, z'
loop_
 _atom_site_type_symbol
 _atom_site_label
 _atom_site_symmetry_multiplicity
 _atom_site_fract_x
 _atom_site_fract_y
 _atom_site_fract_z
 _atom_site_occupancy
 _atom_site_hle17_bader_spin_density
 _atom_site_hle17_ddec_charge
 _atom_site_hle17_ddec_spin_density
 _atom_site_hle17_ddec_sum_bond_order
 _atom_site_hle17_magmom
 _atom_site_hse06_10hf_bader_spin_density
 _atom_site_hse06_10hf_ddec_charge
 _atom_site_hse06_10hf_ddec_spin_density
 _atom_site_hse06_10hf_ddec_sum_bond_order
 _atom_site_hse06_10hf_magmom
 _atom_site_hse06_bader_spin_density
 _atom_site_hse06_ddec_charge
 _atom_site_hse06_ddec_spin_density
 _atom_site_hse06_ddec_sum_bond_order
 _atom_site_hse06_magmom
 _atom_site_pbe_bader_spin_density
 _atom_site_pbe_cm5_charge
 _atom_site_pbe_ddec_charge
 _atom_site_pbe_ddec_spin_density
 _atom_site_pbe_ddec_sum_bond_order
 _atom_site_pbe_magmom
Zn  Zn0  1  0.72049379  0.30094203  0.15131704  1  0  0.88335  0  1.964508  0  0  0.667902  0  2.449115  0  0  0.707937  0  2.404323  0  0  0.771235  0.640316  0  2.479548  0
Zn  Zn1  1  0.27950648  0.19905721  0.65131647  1  0  0.883417  0  1.964485  0  0  0.667949  0  2.449104  0  0  0.707978  0  2.404314  0  0  0.771239  0.640361  0  2.479536  0
Zn  Zn2  1  0.27950949  0.69906217  0.84868399  1  0  0.883344  0  1.964498  0  0  0.667884  0  2.44914  0  0  0.707912  0  2.40434  0  0  0.771247  0.640296  0  2.479569  0
Zn  Zn3  1  0.72049471  0.80094595  0.34868347  1  0  0.883401  0  1.964419  0  0  0.667938  0  2.449052  0  0  0.707976  0  2.404266  0  0  0.771256  0.640352  0  2.479488  0
H  H4  1  0.20336211  0.42578828  0.90608040  1  0  0.097334  0  0.964879  0  0  0.104517  0  1.036809  0  0  0.107892  0  1.034224  0  0  0.104758  0.102056  0  1.038751  0
H  H5  1  0.79663326  0.07420572  0.40607618  1  0  0.097331  0  0.964846  0  0  0.104541  0  1.036742  0  0  0.107939  0  1.034131  0  0  0.104747  0.102071  0  1.038693  0
H  H6  1  0.79664623  0.57421494  0.09392008  1  0  0.097346  0  0.964816  0  0  0.104497  0  1.036798  0  0  0.107871  0  1.034214  0  0  0.104739  0.102039  0  1.038735  0
H  H7  1  0.20336703  0.92579435  0.59392268  1  0  0.097331  0  0.964776  0  0  0.104541  0  1.036672  0  0  0.107939  0  1.034062  0  0  0.104738  0.102071  0  1.038622  0
H  H8  1  0.72512551  0.29224696  0.76218481  1  0  0.09575  0  0.975165  0  0  0.096128  0  1.055638  0  0  0.099884  0  1.052649  0  0  0.098181  0.093363  0  1.057883  0
H  H9  1  0.27487216  0.20776575  0.26218566  1  0  0.095837  0  0.975237  0  0  0.096251  0  1.055641  0  0  0.100008  0  1.052651  0  0  0.098231  0.093485  0  1.057888  0
H  H10  1  0.27486406  0.70774686  0.23781296  1  0  0.095793  0  0.975173  0  0  0.096161  0  1.055662  0  0  0.099916  0  1.05268  0  0  0.098175  0.093402  0  1.057889  0
H  H11  1  0.72513379  0.79223540  0.73781374  1  0  0.095854  0  0.975237  0  0  0.096277  0  1.055631  0  0  0.100032  0  1.052642  0  0  0.098245  0.093515  0  1.057869  0
H  H12  1  0.87853035  0.17151080  0.86465820  1  0  0.099522  0  0.975051  0  0  0.103028  0  1.044712  0  0  0.106477  0  1.042909  0  0  0.10173  0.100636  0  1.045853  0
H  H13  1  0.12146984  0.32849679  0.36466316  1  0  0.099444  0  0.975105  0  0  0.102939  0  1.04479  0  0  0.106393  0  1.04298  0  0  0.101705  0.10055  0  1.045926  0
H  H14  1  0.12144730  0.82847267  0.13533902  1  0  0.099442  0  0.975138  0  0  0.102953  0  1.044797  0  0  0.106413  0  1.04298  0  0  0.101708  0.100566  0  1.045932  0
H  H15  1  0.87853969  0.67151055  0.63533570  1  0  0.099396  0  0.975156  0  0  0.102891  0  1.044842  0  0  0.106344  0  1.043028  0  0  0.101684  0.100502  0  1.045978  0
H  H16  1  0.69567032  0.17487175  0.98776055  1  0  0.097272  0  0.947656  0  0  0.106549  0  1.009469  0  0  0.110001  0  1.006526  0  0  0.105154  0.104068  0  1.011545  0
H  H17  1  0.30433683  0.32512602  0.48776476  1  0  0.097285  0  0.947611  0  0  0.106559  0  1.009432  0  0  0.110011  0  1.006488  0  0  0.105143  0.104077  0  1.011511  0
H  H18  1  0.30431717  0.82511488  0.01223885  1  0  0.0972  0  0.947708  0  0  0.106505  0  1.009485  0  0  0.109961  0  1.006535  0  0  0.105111  0.104025  0  1.011561  0
H  H19  1  0.69567776  0.67488033  0.51223464  1  0  0.09724  0  0.947693  0  0  0.106524  0  1.009499  0  0  0.109979  0  1.006551  0  0  0.105124  0.104043  0  1.011576  0
C  C20  1  0.44505829  0.30680627  0.95541198  1  0  0.002841  0  3.796145  0  0  0.023205  0  4.032098  0  0  0.019837  0  4.055469  0  0  -0.006564  0.02533  0  4.01637  0
C  C21  1  0.55494201  0.19318875  0.45541277  1  0  0.002896  0  3.795814  0  0  0.023123  0  4.031996  0  0  0.019755  0  4.055371  0  0  -0.006587  0.025249  0  4.016264  0
C  C22  1  0.55493545  0.69318965  0.04458959  1  0  0.002877  0  3.795919  0  0  0.02311  0  4.032028  0  0  0.019744  0  4.055398  0  0  -0.006537  0.025232  0  4.016302  0
C  C23  1  0.44506960  0.80680732  0.54458554  1  0  0.00284  0  3.795863  0  0  0.023058  0  4.031979  0  0  0.019687  0  4.055356  0  0  -0.006542  0.025185  0  4.016248  0
C  C24  1  0.35678211  0.37415779  0.89689531  1  0  -0.111174  0  3.701718  0  0  -0.146511  0  3.953406  0  0  -0.147177  0  3.973506  0  0  -0.080067  -0.145876  0  3.93983  0
C  C25  1  0.64321241  0.12584013  0.39689213  1  0  -0.111199  0  3.701582  0  0  -0.146532  0  3.953326  0  0  -0.147213  0  3.973423  0  0  -0.080099  -0.14589  0  3.939757  0
C  C26  1  0.64321848  0.62584332  0.10310626  1  0  -0.111153  0  3.701614  0  0  -0.146461  0  3.953356  0  0  -0.147112  0  3.973461  0  0  -0.080047  -0.145829  0  3.939775  0
C  C27  1  0.35678937  0.87415894  0.60310781  1  0  -0.111167  0  3.70143  0  0  -0.146505  0  3.953201  0  0  -0.147184  0  3.9733  0  0  -0.080096  -0.145863  0  3.939632  0
C  C28  1  0.45477773  0.36884002  0.82729275  1  0  -0.011314  0  3.829155  0  0  0.007378  0  4.072302  0  0  0.003503  0  4.095146  0  0  -0.010755  0.009651  0  4.056828  0
C  C29  1  0.54521905  0.13116475  0.32729266  1  0  -0.011291  0  3.829035  0  0  0.007441  0  4.072129  0  0  0.003542  0  4.095005  0  0  -0.010706  0.009713  0  4.056654  0
C  C30  1  0.54521363  0.63115383  0.17270883  1  0  -0.011321  0  3.829076  0  0  0.007354  0  4.072182  0  0  0.00344  0  4.095076  0  0  -0.010729  0.009632  0  4.056703  0
C  C31  1  0.45479048  0.86883643  0.67270674  1  0  -0.011169  0  3.828974  0  0  0.007507  0  4.07211  0  0  0.003602  0  4.094997  0  0  -0.010646  0.009779  0  4.056635  0
C  C32  1  0.64637490  0.29702018  0.81618129  1  0  -0.070084  0  3.686676  0  0  -0.098865  0  3.94161  0  0  -0.099071  0  3.961373  0  0  -0.084804  -0.098513  0  3.92834  0
C  C33  1  0.35362098  0.20298230  0.31618010  1  0  -0.070284  0  3.68642  0  0  -0.099097  0  3.941341  0  0  -0.099297  0  3.961099  0  0  -0.084869  -0.098747  0  3.928078  0
C  C34  1  0.35360455  0.70296946  0.18381756  1  0  -0.07014  0  3.686527  0  0  -0.098885  0  3.941401  0  0  -0.099087  0  3.961181  0  0  -0.084809  -0.098534  0  3.928136  0
C  C35  1  0.64638199  0.79701472  0.68381930  1  0  -0.070453  0  3.686511  0  0  -0.099259  0  3.941437  0  0  -0.099457  0  3.961197  0  0  -0.084979  -0.098907  0  3.928176  0
C  C36  1  0.73242700  0.22871648  0.87423827  1  0  -0.054492  0  3.728427  0  0  -0.064541  0  3.980681  0  0  -0.068202  0  4.002305  0  0  -0.086962  -0.06213  0  3.965796  0
C  C37  1  0.26756511  0.27128712  0.37424323  1  0  -0.054301  0  3.72808  0  0  -0.064328  0  3.980318  0  0  -0.067994  0  4.001948  0  0  -0.086917  -0.061914  0  3.965422  0
C  C38  1  0.26754857  0.77127211  0.12575895  1  0  -0.054442  0  3.728294  0  0  -0.064518  0  3.980576  0  0  -0.068189  0  4.002195  0  0  -0.086947  -0.062104  0  3.965679  0
C  C39  1  0.73244084  0.72871402  0.62575726  1  0  -0.054177  0  3.728067  0  0  -0.064198  0  3.980297  0  0  -0.06786  0  4.001923  0  0  -0.086852  -0.061785  0  3.965404  0
C  C40  1  0.63129994  0.23196319  0.94349375  1  0  -0.061284  0  3.704363  0  0  -0.090322  0  3.957116  0  0  -0.089377  0  3.974972  0  0  -0.075548  -0.090671  0  3.944789  0
C  C41  1  0.36869825  0.26803773  0.44349617  1  0  -0.061376  0  3.704223  0  0  -0.090354  0  3.957009  0  0  -0.089412  0  3.974868  0  0  -0.075542  -0.090702  0  3.944686  0
C  C42  1  0.36868516  0.76802752  0.05650511  1  0  -0.061173  0  3.704257  0  0  -0.090165  0  3.956989  0  0  -0.089221  0  3.974849  0  0  -0.075513  -0.090515  0  3.944668  0
C  C43  1  0.63131038  0.73196652  0.55650323  1  0  -0.061341  0  3.704355  0  0  -0.090336  0  3.957108  0  0  -0.089395  0  3.974967  0  0  -0.07557  -0.090683  0  3.944785  0
C  C44  1  0.32459320  0.31119936  0.02565131  1  0  0.293575  0  3.750886  0  0  0.269476  0  4.012274  0  0  0.279759  0  4.02995  0  0  0.229963  0.2626  0  4.000181  0
C  C45  1  0.67540390  0.18879224  0.52565148  1  0  0.293658  0  3.750792  0  0  0.269539  0  4.012293  0  0  0.279829  0  4.029957  0  0  0.230021  0.262664  0  4.000198  0
C  C46  1  0.67540620  0.68879763  0.97434809  1  0  0.293457  0  3.750859  0  0  0.269413  0  4.01223  0  0  0.27969  0  4.029914  0  0  0.229941  0.262538  0  4.000136  0
C  C47  1  0.32459937  0.81120581  0.47434792  1  0  0.293601  0  3.750833  0  0  0.269604  0  4.012149  0  0  0.279893  0  4.029814  0  0  0.22999  0.262729  0  4.000056  0
C  C48  1  0.34429193  0.43347172  0.76765756  1  0  0.325539  0  3.753664  0  0  0.292176  0  4.009152  0  0  0.306677  0  4.025431  0  0  0.23693  0.28294  0  3.997721  0
C  C49  1  0.65570410  0.06652877  0.26765465  1  0  0.32564  0  3.75382  0  0  0.292273  0  4.009301  0  0  0.306784  0  4.025585  0  0  0.23704  0.283036  0  3.997869  0
C  C50  1  0.65570479  0.56652833  0.23234348  1  0  0.325592  0  3.753596  0  0  0.292353  0  4.00893  0  0  0.306869  0  4.02521  0  0  0.236969  0.283106  0  3.997516  0
C  C51  1  0.34430215  0.93347340  0.73234475  1  0  0.325604  0  3.753767  0  0  0.292288  0  4.009221  0  0  0.306803  0  4.025503  0  0  0.237049  0.283052  0  3.997789  0
N  N52  1  0.41488528  0.29871599  0.09365843  1  0  -0.32962  0  3.204768  0  0  -0.253142  0  3.505743  0  0  -0.270835  0  3.516616  0  0  -0.233887  -0.241026  0  3.497633  0
N  N53  1  0.58511011  0.20127694  0.59365794  1  0  -0.329648  0  3.204795  0  0  -0.253156  0  3.505793  0  0  -0.270851  0  3.516669  0  0  -0.233876  -0.24104  0  3.497681  0
N  N54  1  0.58511531  0.70128511  0.90634206  1  0  -0.329611  0  3.204792  0  0  -0.253125  0  3.505749  0  0  -0.270815  0  3.516619  0  0  -0.233898  -0.241008  0  3.497638  0
N  N55  1  0.41489048  0.79872416  0.40634092  1  0  -0.329652  0  3.20492  0  0  -0.253184  0  3.505869  0  0  -0.270883  0  3.516749  0  0  -0.233907  -0.241069  0  3.497761  0
N  N56  1  0.23511998  0.30589767  0.14074912  1  0  -0.064127  0  2.944029  0  0  -0.066602  0  3.226995  0  0  -0.063334  0  3.23901  0  0  -0.088813  -0.068574  0  3.218747  0
N  N57  1  0.76487433  0.19410029  0.64075003  1  0  -0.06405  0  2.943877  0  0  -0.066495  0  3.226818  0  0  -0.063229  0  3.238836  0  0  -0.088797  -0.068467  0  3.218569  0
N  N58  1  0.76488270  0.69410448  0.85925137  1  0  -0.064115  0  2.944017  0  0  -0.066597  0  3.226972  0  0  -0.063329  0  3.238986  0  0  -0.088798  -0.068569  0  3.218724  0
N  N59  1  0.23512894  0.80591007  0.35924936  1  0  -0.064151  0  2.943912  0  0  -0.066602  0  3.226886  0  0  -0.063337  0  3.238908  0  0  -0.088801  -0.068576  0  3.218639  0
N  N60  1  0.04577216  0.32291488  0.10195215  1  0  -0.109303  0  3.31291  0  0  -0.042206  0  3.63016  0  0  -0.05044  0  3.6401  0  0  -0.114839  -0.036717  0  3.623634  0
N  N61  1  0.95422556  0.17708542  0.60195390  1  0  -0.109422  0  3.312763  0  0  -0.042343  0  3.630034  0  0  -0.050578  0  3.639975  0  0  -0.11492  -0.036854  0  3.623509  0
N  N62  1  0.95422903  0.67708828  0.89804943  1  0  -0.109226  0  3.312848  0  0  -0.042114  0  3.630077  0  0  -0.050347  0  3.640014  0  0  -0.114833  -0.036625  0  3.62355  0
N  N63  1  0.04577832  0.82292700  0.39804605  1  0  -0.10925  0  3.312607  0  0  -0.042197  0  3.629902  0  0  -0.050436  0  3.63985  0  0  -0.114878  -0.036708  0  3.623377  0
N  N64  1  0.09300822  0.32738464  0.03070283  1  0  -0.263235  0  2.913202  0  0  -0.246523  0  3.180699  0  0  -0.255806  0  3.195352  0  0  -0.200693  -0.240326  0  3.17101  0
N  N65  1  0.90699081  0.17261323  0.53070392  1  0  -0.263275  0  2.913182  0  0  -0.246536  0  3.180695  0  0  -0.255821  0  3.19535  0  0  -0.20072  -0.24034  0  3.171004  0
N  N66  1  0.90698880  0.67261644  0.96929766  1  0  -0.263283  0  2.913264  0  0  -0.246583  0  3.180747  0  0  -0.255865  0  3.195399  0  0  -0.200728  -0.240386  0  3.171058  0
N  N67  1  0.09301306  0.82739303  0.46929602  1  0  -0.263296  0  2.913138  0  0  -0.246586  0  3.180625  0  0  -0.255872  0  3.195281  0  0  -0.200711  -0.240389  0  3.170934  0
N  N68  1  0.25895783  0.55212523  0.77266976  1  0  -0.352065  0  3.228874  0  0  -0.275465  0  3.533281  0  0  -0.295179  0  3.545027  0  0  -0.246571  -0.262086  0  3.524999  0
N  N69  1  0.74103683  0.94788028  0.27266784  1  0  -0.352243  0  3.228997  0  0  -0.275618  0  3.533417  0  0  -0.295317  0  3.545114  0  0  -0.246723  -0.262239  0  3.525137  0
N  N70  1  0.74104217  0.44787382  0.22733182  1  0  -0.352089  0  3.228804  0  0  -0.275502  0  3.533136  0  0  -0.295224  0  3.544899  0  0  -0.246604  -0.262122  0  3.524863  0
N  N71  1  0.25896733  0.05212085  0.72733101  1  0  -0.352292  0  3.229154  0  0  -0.275687  0  3.533576  0  0  -0.295382  0  3.545267  0  0  -0.246735  -0.262308  0  3.525296  0
N  N72  1  0.15539212  0.57240629  0.70776896  1  0  -0.052416  0  2.973096  0  0  -0.043359  0  3.264896  0  0  -0.042583  0  3.277686  0  0  -0.077525  -0.043931  0  3.256448  0
N  N73  1  0.84459628  0.92759480  0.20776715  1  0  -0.052471  0  2.973115  0  0  -0.043428  0  3.264904  0  0  -0.042652  0  3.277698  0  0  -0.077553  -0.044001  0  3.256459  0
N  N74  1  0.84460490  0.42759479  0.29223316  1  0  -0.052511  0  2.973187  0  0  -0.043457  0  3.264988  0  0  -0.042682  0  3.277779  0  0  -0.077569  -0.044028  0  3.256539  0
N  N75  1  0.15539865  0.07240523  0.79223062  1  0  -0.052433  0  2.973212  0  0  -0.043381  0  3.264989  0  0  -0.042606  0  3.277783  0  0  -0.077543  -0.04395  0  3.256538  0
N  N76  1  0.17638356  0.47147051  0.66458172  1  0  -0.07539  0  2.931675  0  0  -0.077882  0  3.223013  0  0  -0.075934  0  3.234261  0  0  -0.095663  -0.079137  0  3.215345  0
N  N77  1  0.82360010  0.02852578  0.16457950  1  0  -0.075337  0  2.931659  0  0  -0.077799  0  3.223004  0  0  -0.075852  0  3.234254  0  0  -0.09562  -0.079056  0  3.215337  0
N  N78  1  0.82361197  0.52853157  0.33541986  1  0  -0.075314  0  2.931736  0  0  -0.077786  0  3.223076  0  0  -0.075839  0  3.234326  0  0  -0.095608  -0.079041  0  3.215407  0
N  N79  1  0.17639454  0.97147322  0.83541881  1  0  -0.07534  0  2.931768  0  0  -0.077791  0  3.223119  0  0  -0.075845  0  3.23437  0  0  -0.095578  -0.079047  0  3.215449  0
N  N80  1  0.29402047  0.38225180  0.70042010  1  0  -0.34069  0  3.193305  0  0  -0.264938  0  3.496947  0  0  -0.284028  0  3.50755  0  0  -0.245228  -0.251974  0  3.48922  0
N  N81  1  0.70596507  0.11774830  0.20041754  1  0  -0.340583  0  3.193214  0  0  -0.264917  0  3.496945  0  0  -0.284008  0  3.507543  0  0  -0.24524  -0.251952  0  3.489221  0
N  N82  1  0.70598042  0.61775033  0.29958039  1  0  -0.340681  0  3.193204  0  0  -0.265035  0  3.496899  0  0  -0.284116  0  3.507476  0  0  -0.245247  -0.25207  0  3.48918  0
N  N83  1  0.29403403  0.88225382  0.79958186  1  0  -0.340556  0  3.193258  0  0  -0.264919  0  3.496997  0  0  -0.284008  0  3.507592  0  0  -0.245255  -0.251954  0  3.48927  0
