# generated using pymatgen
data_CuH7C10N7O
_symmetry_space_group_name_H-M   'P 1'
_cell_length_a   9.07909123
_cell_length_b   11.66815586
_cell_length_c   11.25155843
_cell_angle_alpha   90.00000999
_cell_angle_beta   90.00042953
_cell_angle_gamma   88.30855490
_symmetry_Int_Tables_number   1
_chemical_formula_structural   CuH7C10N7O
_chemical_formula_sum   'Cu4 H28 C40 N28 O4'
_cell_volume   1191.42856617
_cell_formula_units_Z   4
loop_
 _symmetry_equiv_pos_site_id
 _symmetry_equiv_pos_as_xyz
  1  'x, y, z'
loop_
 _atom_site_type_symbol
 _atom_site_label
 _atom_site_symmetry_multiplicity
 _atom_site_fract_x
 _atom_site_fract_y
 _atom_site_fract_z
 _atom_site_occupancy
 _atom_site_hle17_ddec_charge
 _atom_site_hle17_ddec_spin_density
 _atom_site_hle17_ddec_sum_bond_order
 _atom_site_hle17_magmom
 _atom_site_hse06_10hf_ddec_charge
 _atom_site_hse06_10hf_ddec_spin_density
 _atom_site_hse06_10hf_ddec_sum_bond_order
 _atom_site_hse06_10hf_magmom
 _atom_site_hse06_ddec_charge
 _atom_site_hse06_ddec_spin_density
 _atom_site_hse06_ddec_sum_bond_order
 _atom_site_hse06_magmom
 _atom_site_pbe_cm5_charge
 _atom_site_pbe_ddec_charge
 _atom_site_pbe_ddec_spin_density
 _atom_site_pbe_ddec_sum_bond_order
 _atom_site_pbe_magmom
Cu  Cu0  1  0.10126269  0.27542024  0.43113621  1  0.942128  -0.74791  1.94549  -0.526  0.938112  -0.833298  2.358748  -0.657  1.032268  -0.905273  2.268654  -0.743  0.811761  0.882697  -0.774301  2.411104  -0.594
Cu  Cu1  1  0.39873664  0.72457787  0.93113376  1  0.942129  -0.747903  1.945471  -0.526  0.938092  -0.833293  2.35873  -0.657  1.03226  -0.905279  2.268631  -0.743  0.811725  0.882666  -0.774293  2.411098  -0.594
Cu  Cu2  1  0.89873661  0.72458219  0.56886108  1  0.942081  0.747902  1.945585  0.526  0.938079  0.833285  2.358891  0.657  1.032278  0.905267  2.268652  0.743  0.811775  0.882798  0.774283  2.410965  0.594
Cu  Cu3  1  0.60126607  0.27541508  0.06885731  1  0.941978  0.747906  1.945716  0.526  0.937932  0.833278  2.359016  0.657  1.032227  0.905263  2.26869  0.743  0.811741  0.882717  0.774292  2.411064  0.594
H  H4  1  0.81069466  0.40095467  0.37856798  1  0.081028  -0.001706  0.973123  -0.003  0.090428  -0.00126  1.035133  -0.002  0.090628  -0.000846  1.035231  -0.001  0.116499  0.089759  -0.001612  1.035641  -0.002
H  H5  1  0.68931942  0.59905866  0.87855171  1  0.081025  -0.001706  0.973105  -0.003  0.090375  -0.00126  1.035158  -0.002  0.090571  -0.000846  1.035263  -0.001  0.116486  0.089716  -0.001612  1.035647  -0.002
H  H6  1  0.18930355  0.59904692  0.62143375  1  0.081082  0.001706  0.973058  0.003  0.090459  0.00126  1.035075  0.002  0.090655  0.000846  1.035178  0.001  0.116499  0.089767  0.001612  1.035593  0.002
H  H7  1  0.31070175  0.40095968  0.12142958  1  0.081001  0.001706  0.973157  0.003  0.090432  0.00126  1.035131  0.002  0.090632  0.000845  1.03523  0.001  0.116512  0.08976  0.001612  1.035633  0.002
H  H8  1  0.54822483  0.38307210  0.44946666  1  0.108265  -0.000538  0.941311  -0.001  0.121911  -0.000535  0.992976  -0.001  0.123706  -0.000358  0.994375  0.0  0.110489  0.120324  -0.000727  0.992706  -0.001
H  H9  1  0.95178652  0.61694641  0.94945561  1  0.108516  -0.00054  0.941084  -0.001  0.122033  -0.000535  0.992877  -0.001  0.123831  -0.000357  0.994285  0.0  0.110534  0.12045  -0.000727  0.992602  -0.001
H  H10  1  0.45177559  0.61692859  0.55054040  1  0.108247  0.00054  0.941391  0.001  0.12192  0.000535  0.993025  0.001  0.12371  0.000358  0.994425  0.0  0.110483  0.120336  0.000727  0.992748  0.001
H  H11  1  0.04822907  0.38307889  0.05053190  1  0.108343  0.000541  0.941279  0.001  0.12196  0.000535  0.99297  0.001  0.123749  0.000358  0.994366  0.0  0.110509  0.120373  0.000726  0.992699  0.001
H  H12  1  0.49371425  0.22798742  0.59689225  1  0.09789  -0.000392  0.955489  -0.001  0.106011  -3.8e-05  1.020852  0.0  0.10786  1.2e-05  1.019808  0.0  0.107034  0.104456  -0.000108  1.021935  0.0
H  H13  1  0.00628634  0.77202698  0.09688898  1  0.097917  -0.000392  0.955556  -0.001  0.106106  -3.8e-05  1.020853  0.0  0.10796  1.2e-05  1.019796  0.0  0.10703  0.104546  -0.000108  1.021957  0.0
H  H14  1  0.50629054  0.77201663  0.40311392  1  0.097906  0.000392  0.955457  0.001  0.106027  3.8e-05  1.020831  0.0  0.107879  -1.2e-05  1.019778  0.0  0.107041  0.104485  0.000108  1.021889  0.0
H  H15  1  0.99370514  0.22798587  0.90311630  1  0.097827  0.000391  0.955519  0.001  0.105963  3.8e-05  1.020872  0.0  0.107815  -1.2e-05  1.01982  0.0  0.107025  0.10441  0.000108  1.021956  0.0
H  H16  1  0.70315605  0.10033900  0.66938151  1  0.112267  -0.000788  0.953249  -0.001  0.12201  -0.000684  1.013041  -0.001  0.123993  -0.00045  1.013912  0.0  0.108376  0.120472  -0.000881  1.012779  -0.001
H  H17  1  0.79683865  0.89966439  0.16938280  1  0.112231  -0.000786  0.953261  -0.001  0.121971  -0.000684  1.013039  -0.001  0.123952  -0.000449  1.013917  0.0  0.108382  0.120435  -0.000881  1.012772  -0.001
H  H18  1  0.29684988  0.89966246  0.33062377  1  0.112175  0.00079  0.953304  0.001  0.121966  0.000684  1.013048  0.001  0.123946  0.000448  1.013924  0.0  0.108361  0.120427  0.000881  1.012777  0.001
H  H19  1  0.20313873  0.10032726  0.83063404  1  0.112176  0.000789  0.953469  0.001  0.122015  0.000685  1.013156  0.001  0.123997  0.000449  1.014032  0.0  0.108396  0.120474  0.000881  1.012888  0.001
H  H20  1  0.03863296  0.15898691  0.68555674  1  0.074181  -9.5e-05  0.928695  0.0  0.08725  0.000163  0.995894  0.0  0.086298  0.000251  0.996786  0.0  0.108521  0.087805  1.9e-05  0.995525  0.0
H  H21  1  0.46136315  0.84100527  0.18555193  1  0.074146  -9.3e-05  0.928714  0.0  0.087231  0.000164  0.995907  0.0  0.086285  0.000251  0.996797  0.0  0.108459  0.087779  1.9e-05  0.995539  0.0
H  H22  1  0.96136633  0.84101723  0.31444588  1  0.074208  9.7e-05  0.928671  0.0  0.087292  -0.000164  0.995853  0.0  0.08634  -0.00025  0.996746  0.0  0.108466  0.087845  -1.9e-05  0.995488  0.0
H  H23  1  0.53861548  0.15897179  0.81444980  1  0.074157  9.3e-05  0.928663  0.0  0.087285  -0.000164  0.995865  0.0  0.086329  -0.00025  0.996753  0.0  0.108452  0.087829  -1.9e-05  0.995499  0.0
H  H24  1  0.96662170  0.02920768  0.62588080  1  0.087684  -0.003185  0.95404  -0.004  0.095853  -0.001886  1.021289  -0.003  0.09565  -0.001054  1.021086  -0.001  0.108143  0.096207  -0.002659  1.021307  -0.004
H  H25  1  0.53336721  0.97078553  0.12588134  1  0.087658  -0.003183  0.954034  -0.004  0.09586  -0.001885  1.021275  -0.003  0.095664  -0.001054  1.021062  -0.001  0.108153  0.096209  -0.002658  1.02129  -0.004
H  H26  1  0.03337760  0.97079560  0.37412182  1  0.087728  0.003181  0.953965  0.004  0.09594  0.001884  1.0212  0.003  0.095739  0.001054  1.020993  0.001  0.108146  0.096291  0.002658  1.02121  0.004
H  H27  1  0.46661028  0.02919584  0.87413106  1  0.087675  0.003181  0.95393  0.004  0.0959  0.001884  1.021227  0.003  0.095698  0.001054  1.021008  0.001  0.10813  0.096254  0.002658  1.021245  0.004
H  H28  1  0.20150617  0.09131004  0.54896461  1  0.387706  0.000166  0.909385  0.001  0.359855  -0.000377  0.985558  0.0  0.371223  -0.000201  0.974526  0.0  0.296222  0.351882  -0.000525  0.993279  0.0
H  H29  1  0.29848865  0.90868904  0.04896146  1  0.387692  0.000166  0.909397  0.001  0.35984  -0.000377  0.985571  0.0  0.37121  -0.000201  0.974547  0.0  0.29622  0.351869  -0.000525  0.993288  0.0
H  H30  1  0.79849417  0.90869837  0.45103890  1  0.387621  -0.000166  0.909573  -0.001  0.359788  0.000377  0.985706  0.0  0.371155  0.0002  0.974635  0.0  0.29617  0.351816  0.000525  0.993427  0.0
H  H31  1  0.70149866  0.09130159  0.95104116  1  0.387598  -0.000166  0.909576  -0.001  0.359784  0.000377  0.985673  0.0  0.371149  0.000201  0.974633  0.0  0.296193  0.351811  0.000525  0.993396  0.0
C  C32  1  0.77938590  0.33730200  0.44381394  1  0.143866  0.007697  3.689741  0.009  0.116739  0.001036  3.940876  0.002  0.125915  0.002114  3.963802  0.004  0.052997  0.110773  0.000108  3.92665  0.001
C  C33  1  0.72062330  0.66270627  0.94380323  1  0.143957  0.007695  3.689899  0.009  0.116882  0.001039  3.940947  0.002  0.126062  0.002117  3.963869  0.004  0.053017  0.110907  0.000108  3.926717  0.001
C  C34  1  0.22062334  0.66269855  0.55618779  1  0.14382  -0.00769  3.68981  -0.009  0.116748  -0.00104  3.9409  -0.002  0.125924  -0.002111  3.963822  -0.004  0.052976  0.110802  -0.000107  3.926683  -0.001
C  C35  1  0.27937814  0.33730213  0.05618250  1  0.143799  -0.007664  3.689983  -0.009  0.116694  -0.001036  3.941069  -0.002  0.125864  -0.002111  3.964004  -0.004  0.052954  0.110732  -0.000106  3.926844  -0.001
C  C36  1  0.63577486  0.32689703  0.48436787  1  -0.120191  -0.01216  3.722572  -0.013  -0.133733  -0.004313  3.969536  -0.005  -0.143813  -0.003691  3.994239  -0.004  -0.082696  -0.127905  -0.004787  3.954298  -0.006
C  C37  1  0.86423137  0.67311471  0.98435540  1  -0.120531  -0.012151  3.722598  -0.013  -0.133964  -0.004316  3.969558  -0.005  -0.144056  -0.003691  3.994266  -0.004  -0.082762  -0.128134  -0.004787  3.954337  -0.006
C  C38  1  0.36422444  0.67310625  0.51563831  1  -0.120174  0.012136  3.722762  0.013  -0.133762  0.004319  3.969709  0.005  -0.143835  0.003691  3.994404  0.004  -0.082696  -0.127933  0.004786  3.954475  0.006
C  C39  1  0.13577662  0.32690043  0.01563566  1  -0.12027  0.012105  3.722848  0.013  -0.133816  0.004315  3.96982  0.005  -0.143882  0.003687  3.994509  0.004  -0.082743  -0.12799  0.004785  3.954584  0.006
C  C40  1  0.60587886  0.24095427  0.56643905  1  0.006258  0.009905  3.721127  0.009  -0.014832  0.002818  3.975117  0.003  -0.009793  0.002974  3.993941  0.003  -0.064303  -0.018029  0.002638  3.96304  0.003
C  C41  1  0.89412476  0.75905584  0.06643734  1  0.006214  0.009904  3.721369  0.009  -0.014933  0.002819  3.975283  0.003  -0.009894  0.002973  3.994109  0.003  -0.064339  -0.01814  0.002638  3.963228  0.003
C  C42  1  0.39411821  0.75905077  0.43356357  1  0.006103  -0.009881  3.721333  -0.009  -0.014979  -0.002823  3.975324  -0.003  -0.009939  -0.002978  3.994144  -0.003  -0.064375  -0.018184  -0.002638  3.963269  -0.003
C  C43  1  0.10587669  0.24095169  0.93356795  1  0.006381  -0.009863  3.721026  -0.009  -0.014705  -0.00282  3.975022  -0.003  -0.009665  -0.002974  3.993841  -0.003  -0.064276  -0.017914  -0.002638  3.962958  -0.003
C  C44  1  0.72096566  0.16936085  0.60623478  1  -0.154945  -0.011257  3.695787  -0.011  -0.173955  -0.004156  3.944294  -0.005  -0.182897  -0.003688  3.965607  -0.004  -0.080426  -0.168205  -0.004507  3.930017  -0.005
C  C45  1  0.77903396  0.83064504  0.10623592  1  -0.15489  -0.01126  3.695703  -0.011  -0.173837  -0.004159  3.944301  -0.005  -0.182779  -0.003689  3.965617  -0.004  -0.080411  -0.16809  -0.004508  3.930018  -0.005
C  C46  1  0.27904136  0.83064145  0.39376784  1  -0.15467  0.011232  3.695628  0.011  -0.173654  0.004161  3.944171  0.005  -0.18259  0.003691  3.965488  0.004  -0.080316  -0.1679  0.004508  3.929879  0.005
C  C47  1  0.22094888  0.16935166  0.89377648  1  -0.154751  0.011221  3.695679  0.011  -0.173848  0.004155  3.944203  0.005  -0.18279  0.003688  3.965521  0.004  -0.080365  -0.168095  0.004508  3.929912  0.005
C  C48  1  0.86284615  0.18627330  0.56388110  1  0.242834  0.006168  3.70357  0.006  0.244076  -0.000105  3.952948  0.001  0.255034  0.001213  3.972671  0.002  0.123103  0.236995  -0.001195  3.940162  -0.001
C  C49  1  0.63714984  0.81372751  0.06387689  1  0.242852  0.006165  3.703479  0.006  0.2439  -9.9e-05  3.953142  0.001  0.254859  0.001218  3.972872  0.002  0.123099  0.236839  -0.001193  3.940318  -0.001
C  C50  1  0.13714984  0.81373004  0.43612152  1  0.242849  -0.006156  3.703173  -0.006  0.243877  0.0001  3.952906  -0.001  0.254827  -0.001214  3.972636  -0.002  0.12308  0.236803  0.001193  3.940106  0.001
C  C51  1  0.36284073  0.18626735  0.93612662  1  0.242585  -0.006146  3.703383  -0.006  0.243864  0.000106  3.952869  -0.001  0.254814  -0.001212  3.972599  -0.002  0.123053  0.236789  0.001194  3.940072  0.001
C  C52  1  0.99466029  0.11784871  0.60521888  1  0.044781  -0.000316  3.639168  0.001  -0.016858  -0.002126  3.90342  -0.001  -0.008546  -0.001383  3.909332  -0.001  -0.07105  -0.022727  -0.002827  3.899684  -0.001
C  C53  1  0.50533720  0.88214951  0.10521743  1  0.044881  -0.000322  3.63905  0.001  -0.016778  -0.002126  3.903356  -0.001  -0.008475  -0.001381  3.909282  -0.001  -0.071014  -0.022645  -0.002827  3.899609  -0.001
C  C54  1  0.00534450  0.88215620  0.39478196  1  0.044726  0.000308  3.638994  -0.001  -0.016942  0.002126  3.903372  0.001  -0.008625  0.001381  3.909277  0.001  -0.07101  -0.022821  0.002826  3.899654  0.001
C  C55  1  0.49464795  0.11783688  0.89478786  1  0.04502  0.000318  3.638537  -0.001  -0.016869  0.002126  3.903104  0.001  -0.008528  0.001382  3.90898  0.001  -0.070983  -0.022742  0.002826  3.899388  0.001
C  C56  1  0.26792602  0.38198639  0.67063158  1  0.483028  0.018866  3.97484  0.021  0.466561  0.002178  4.269399  0.003  0.494968  0.001632  4.280722  0.003  0.300423  0.447202  0.002583  4.259447  0.004
C  C57  1  0.23206767  0.61801355  0.17063856  1  0.48295  0.018867  3.974761  0.021  0.466477  0.002174  4.26933  0.003  0.494886  0.001629  4.280658  0.003  0.300397  0.447111  0.002585  4.259371  0.004
C  C58  1  0.73207113  0.61801094  0.32937015  1  0.483012  -0.018866  3.974695  -0.021  0.466521  -0.002178  4.269256  -0.003  0.494927  -0.001634  4.280582  -0.003  0.300441  0.447151  -0.002582  4.259324  -0.004
C  C59  1  0.76793278  0.38198457  0.82935784  1  0.483302  -0.01884  3.974621  -0.021  0.46676  -0.002177  4.269177  -0.003  0.495166  -0.001633  4.280496  -0.003  0.30055  0.447391  -0.00258  4.259243  -0.004
C  C60  1  0.39337084  0.50594488  0.79109265  1  0.526611  0.009084  3.945292  0.01  0.50716  -0.007185  4.237091  -0.01  0.539513  -0.005865  4.248585  -0.009  0.32365  0.484307  -0.008081  4.227969  -0.01
C  C61  1  0.10662504  0.49405330  0.29109256  1  0.52669  0.009079  3.94491  0.01  0.507236  -0.007189  4.236723  -0.01  0.539588  -0.00587  4.248217  -0.009  0.323666  0.484377  -0.008082  4.227611  -0.01
C  C62  1  0.60663511  0.49405315  0.20890997  1  0.526188  -0.009133  3.945047  -0.01  0.506709  0.007195  4.236894  0.01  0.539069  0.005871  4.248406  0.009  0.32341  0.483849  0.008089  4.22779  0.01
C  C63  1  0.89337542  0.50594397  0.70890917  1  0.526484  -0.00909  3.94471  -0.01  0.506961  0.00719  4.236544  0.01  0.539316  0.005861  4.248049  0.009  0.323452  0.484105  0.00809  4.227415  0.01
C  C64  1  0.39133248  0.17317283  0.33457804  1  0.533144  0.004729  3.97332  0.002  0.506632  -0.000572  4.253794  -0.004  0.538308  0.000636  4.26179  -0.003  0.322744  0.485224  -0.001628  4.248828  -0.005
C  C65  1  0.10866927  0.82682781  0.83456935  1  0.533335  0.004765  3.973212  0.002  0.506848  -0.000573  4.253649  -0.004  0.538521  0.000642  4.261636  -0.002  0.322908  0.48544  -0.001628  4.248691  -0.005
C  C66  1  0.60867017  0.82682526  0.66542281  1  0.533188  -0.004738  3.97352  -0.002  0.50666  0.000571  4.253991  0.004  0.538346  -0.00064  4.261988  0.002  0.322806  0.485254  0.001628  4.249041  0.005
C  C67  1  0.89133453  0.17316597  0.16542082  1  0.533329  -0.004762  3.973427  -0.002  0.506855  0.000565  4.25388  0.004  0.538524  -0.000644  4.261875  0.002  0.323023  0.48545  0.001626  4.24893  0.005
C  C68  1  0.58133294  0.03649672  0.34631742  1  0.500004  0.000715  4.002963  0.001  0.466176  0.000284  4.288177  0.0  0.490298  0.000205  4.30047  0.0  0.307721  0.449829  0.000341  4.279394  0.0
C  C69  1  0.91866778  0.96350313  0.84631609  1  0.500054  0.000707  4.002762  0.001  0.466227  0.000272  4.287991  0.0  0.490347  0.000201  4.300276  0.0  0.307716  0.449881  0.000341  4.279207  0.0
C  C70  1  0.41867188  0.96350562  0.65368786  1  0.499966  -0.000701  4.003111  -0.001  0.466111  -0.000271  4.288337  0.0  0.490242  -0.000198  4.30063  0.0  0.307695  0.449768  -0.000341  4.279541  0.0
C  C71  1  0.08133489  0.03649325  0.15368920  1  0.499977  -0.000694  4.002677  -0.001  0.466177  -0.000277  4.2879  0.0  0.490285  -0.000198  4.300193  0.0  0.307704  0.449837  -0.000341  4.279098  0.0
N  N72  1  0.88991383  0.26839206  0.48321593  1  -0.333767  -0.093586  3.296393  -0.114  -0.29357  -0.063919  3.587852  -0.085  -0.329816  -0.050479  3.610329  -0.071  -0.33897  -0.273242  -0.070118  3.574518  -0.089
N  N73  1  0.61009136  0.73161198  0.98321077  1  -0.33376  -0.093587  3.296374  -0.114  -0.293454  -0.063924  3.587791  -0.085  -0.329707  -0.050484  3.610279  -0.071  -0.338916  -0.273131  -0.070118  3.574455  -0.089
N  N74  1  0.11008879  0.73160945  0.51678491  1  -0.333769  0.093589  3.296115  0.114  -0.293495  0.063922  3.5876  0.085  -0.329748  0.050478  3.610066  0.071  -0.33895  -0.273199  0.070118  3.57425  0.089
N  N75  1  0.38991018  0.26838698  0.01678474  1  -0.333632  0.093564  3.296332  0.114  -0.29344  0.063915  3.587759  0.085  -0.329714  0.050479  3.610239  0.071  -0.338963  -0.273156  0.070116  3.57442  0.089
N  N76  1  0.18821762  0.35030402  0.59571459  1  -0.569301  -0.037437  2.789403  -0.043  -0.576972  -0.006504  3.0843  -0.009  -0.604206  -0.003177  3.085192  -0.005  -0.381729  -0.557576  -0.011371  3.080801  -0.014
N  N77  1  0.31177980  0.64969672  0.09571586  1  -0.56918  -0.037434  2.789111  -0.043  -0.576853  -0.0065  3.084014  -0.009  -0.604094  -0.003174  3.084913  -0.005  -0.381644  -0.557445  -0.011374  3.080508  -0.014
N  N78  1  0.81178060  0.64969671  0.40428270  1  -0.569183  0.037404  2.789365  0.043  -0.576841  0.006501  3.084268  0.009  -0.604083  0.003175  3.085144  0.005  -0.381659  -0.557466  0.011365  3.080751  0.014
N  N79  1  0.68823715  0.35030370  0.90426720  1  -0.569375  0.037364  2.789661  0.043  -0.577025  0.006497  3.084567  0.009  -0.604282  0.003168  3.08543  0.005  -0.381819  -0.557666  0.011363  3.081054  0.014
N  N80  1  0.35809519  0.40594466  0.75598094  1  -0.422889  -0.041688  3.293374  -0.05  -0.391211  -0.009947  3.555722  -0.013  -0.419551  -0.004981  3.563442  -0.007  -0.295506  -0.369489  -0.016257  3.547776  -0.02
N  N81  1  0.14190147  0.59405522  0.25598467  1  -0.423024  -0.041716  3.293446  -0.05  -0.391341  -0.009945  3.555806  -0.013  -0.41968  -0.004985  3.56352  -0.007  -0.295603  -0.369607  -0.016254  3.547863  -0.02
N  N82  1  0.64189322  0.59404595  0.24402613  1  -0.422699  0.041708  3.293621  0.05  -0.390972  0.00995  3.555941  0.013  -0.419308  0.004991  3.563655  0.007  -0.295456  -0.369236  0.016252  3.547997  0.02
N  N83  1  0.85810999  0.40594444  0.74400817  1  -0.422977  0.041738  3.293188  0.05  -0.391154  0.00996  3.555435  0.013  -0.419493  0.005009  3.563156  0.007  -0.295359  -0.369415  0.016261  3.547473  0.02
N  N84  1  0.43894729  0.59352956  0.82668344  1  -0.590909  -0.076115  2.935231  -0.088  -0.597485  -0.040722  3.263795  -0.051  -0.63399  -0.031482  3.261957  -0.041  -0.414686  -0.573314  -0.04777  3.263478  -0.057
N  N85  1  0.06105113  0.40646600  0.32668125  1  -0.590893  -0.076091  2.934976  -0.088  -0.597483  -0.040717  3.263585  -0.051  -0.633985  -0.031472  3.261745  -0.041  -0.414658  -0.573306  -0.047765  3.263268  -0.057
N  N86  1  0.56105990  0.40645560  0.17330852  1  -0.59071  0.0762  2.93467  0.088  -0.597307  0.040726  3.263296  0.051  -0.63386  0.031482  3.26145  0.041  -0.414587  -0.573164  0.047779  3.26295  0.057
N  N87  1  0.93895362  0.59354234  0.67331248  1  -0.590859  0.076149  2.934435  0.088  -0.597473  0.040729  3.263114  0.051  -0.634  0.03148  3.261259  0.041  -0.414645  -0.573318  0.047786  3.26274  0.057
N  N88  1  0.29174375  0.23467377  0.36158910  1  -0.605746  -0.046385  2.959795  -0.054  -0.581899  -0.037288  3.263768  -0.046  -0.615647  -0.032776  3.26014  -0.042  -0.418001  -0.562047  -0.038807  3.26602  -0.046
N  N89  1  0.20825276  0.76532438  0.86158280  1  -0.605866  -0.046418  2.959738  -0.054  -0.582025  -0.037282  3.263686  -0.046  -0.615772  -0.032773  3.260054  -0.042  -0.418086  -0.562171  -0.038805  3.265952  -0.046
N  N90  1  0.70825340  0.76532355  0.63840641  1  -0.605813  0.046392  2.959799  0.054  -0.581987  0.037286  3.263805  0.046  -0.615741  0.032774  3.260149  0.042  -0.418074  -0.562167  0.038809  3.266032  0.046
N  N91  1  0.79174779  0.23466431  0.13839938  1  -0.605903  0.046413  2.959941  0.054  -0.582067  0.037293  3.2639  0.046  -0.615848  0.03278  3.260255  0.042  -0.418182  -0.562267  0.038812  3.266147  0.046
N  N92  1  0.50061366  0.11328891  0.29280638  1  -0.46504  -0.000792  3.338898  -0.001  -0.420761  -0.000132  3.613738  0.0  -0.446163  9.7e-05  3.616264  0.0  -0.302429  -0.403515  -7.3e-05  3.611942  0.0
N  N93  1  0.99939419  0.88672025  0.79279930  1  -0.465198  -0.000803  3.339032  -0.001  -0.420953  -0.000145  3.613903  0.0  -0.44634  8.1e-05  3.616405  0.0  -0.302564  -0.403703  -7.4e-05  3.612106  0.0
N  N94  1  0.49939886  0.88671416  0.70719802  1  -0.465048  0.000803  3.339207  0.001  -0.420714  0.000143  3.613981  0.0  -0.446158  -8.1e-05  3.616562  0.0  -0.302456  -0.403458  7.3e-05  3.612167  0.0
N  N95  1  0.00061387  0.11328717  0.20719799  1  -0.46506  0.00081  3.338814  0.001  -0.420858  0.000144  3.613706  0.0  -0.446233  -8.4e-05  3.616214  0.0  -0.302578  -0.403607  7.2e-05  3.611894  0.0
N  N96  1  0.65990824  0.96178180  0.38205869  1  -0.586276  0.000982  2.717293  0.001  -0.547258  0.001029  2.950637  0.001  -0.564368  0.000829  2.9579  0.001  -0.365255  -0.535737  0.001213  2.945393  0.002
N  N97  1  0.84008293  0.03821306  0.88206180  1  -0.58628  0.000996  2.717108  0.001  -0.547255  0.001049  2.950421  0.001  -0.564364  0.000841  2.957693  0.001  -0.365203  -0.535726  0.001212  2.945176  0.002
N  N98  1  0.34008891  0.03821638  0.61794837  1  -0.586259  -0.001003  2.717307  -0.001  -0.547235  -0.001047  2.950691  -0.001  -0.56434  -0.000844  2.957965  -0.001  -0.36521  -0.535711  -0.001213  2.945442  -0.002
N  N99  1  0.15991429  0.96177740  0.11794792  1  -0.58629  -0.001018  2.717126  -0.001  -0.547257  -0.001043  2.950493  -0.001  -0.564371  -0.000842  2.95778  -0.001  -0.365204  -0.535736  -0.001213  2.945241  -0.002
O  O100  1  0.10270514  0.11789828  0.51222717  1  -0.522586  -0.072636  2.214242  -0.093  -0.480217  -0.051369  2.479707  -0.074  -0.516852  -0.038158  2.4718  -0.058  -0.382625  -0.456137  -0.060324  2.484414  -0.083
O  O101  1  0.39729045  0.88210164  0.01222197  1  -0.522597  -0.072639  2.214109  -0.093  -0.480227  -0.051374  2.479604  -0.074  -0.516854  -0.038161  2.471701  -0.058  -0.382599  -0.456146  -0.060327  2.484304  -0.083
O  O102  1  0.89729742  0.88210924  0.48777634  1  -0.522563  0.072627  2.214228  0.093  -0.480161  0.051361  2.479672  0.074  -0.516794  0.038153  2.471697  0.058  -0.382557  -0.456104  0.060315  2.484354  0.083
O  O103  1  0.60269905  0.11788981  0.98777976  1  -0.522578  0.072631  2.214092  0.093  -0.480119  0.051368  2.479575  0.074  -0.516794  0.038159  2.471658  0.058  -0.382579  -0.456067  0.060322  2.484263  0.083
