# generated using pymatgen
data_Hf3H14C39N9O16
_symmetry_space_group_name_H-M   'P 1'
_cell_length_a   17.75515155
_cell_length_b   22.21921973
_cell_length_c   22.21320731
_cell_angle_alpha   65.32222185
_cell_angle_beta   88.73933486
_cell_angle_gamma   88.69136737
_symmetry_Int_Tables_number   1
_chemical_formula_structural   Hf3H14C39N9O16
_chemical_formula_sum   'Hf6 H28 C78 N18 O32'
_cell_volume   7960.06384180
_cell_formula_units_Z   2
loop_
 _symmetry_equiv_pos_site_id
 _symmetry_equiv_pos_as_xyz
  1  'x, y, z'
loop_
 _atom_site_type_symbol
 _atom_site_label
 _atom_site_symmetry_multiplicity
 _atom_site_fract_x
 _atom_site_fract_y
 _atom_site_fract_z
 _atom_site_occupancy
 _atom_site_pbe_bader_charge
 _atom_site_pbe_bader_spin_density
 _atom_site_pbe_cm5_charge
 _atom_site_pbe_ddec_charge
 _atom_site_pbe_ddec_spin_density
 _atom_site_pbe_ddec_sum_bond_order
 _atom_site_pbe_magmom
Hf  Hf0  1  0.20516712  0.97380415  0.04674362  1  2.614417  0  1.475956  2.126423  0  3.346338  0
Hf  Hf1  1  0.93710275  0.95100469  0.02603160  1  2.597235  0  1.463688  2.095026  0  3.38963  0
Hf  Hf2  1  0.07295144  0.85467586  0.14100797  1  2.617905  0  1.433366  2.156641  0  3.362343  0
Hf  Hf3  1  0.06952783  0.07061442  0.93217891  1  2.607623  0  1.430473  2.129661  0  3.385519  0
Hf  Hf4  1  0.09907433  0.90004645  0.96524587  1  2.60101  0  1.421678  2.13682  0  3.375685  0
Hf  Hf5  1  0.04193579  0.02554960  0.10440473  1  2.602908  0  1.443674  2.141984  0  3.321293  0
H  H6  1  0.62092664  0.07241958  0.49199978  1  0.11949  0  0.124071  0.136663  0  0.963482  0
H  H7  1  0.51396924  0.84655466  0.58657730  1  0.104558  0  0.124128  0.136725  0  0.963563  0
H  H8  1  0.64742607  0.40530933  0.48260465  1  0.085137  0  0.123722  0.135863  0  0.964723  0
H  H9  1  0.49158925  0.51745987  0.59564054  1  0.118254  0  0.123662  0.136532  0  0.964779  0
H  H10  1  0.52333522  0.50806673  0.92732293  1  0.145544  0  0.123987  0.136493  0  0.962974  0
H  H11  1  0.63020767  0.41239887  0.15337947  1  0.142411  0  0.123848  0.136785  0  0.963702  0
H  H12  1  0.19906353  0.00929597  0.90856735  1  0.627087  0  0.344743  0.435233  0  0.826942  0
H  H13  1  0.98627424  0.81908785  0.04775424  1  0.605764  0  0.337714  0.424003  0  0.846709  0
H  H14  1  0.93977275  0.08840049  0.99738161  1  0.621625  0  0.346018  0.437391  0  0.823981  0
H  H15  1  0.15410454  0.94035331  0.18136824  1  0.582414  0  0.331418  0.406101  0  0.875927  0
H  H16  1  0.17004519  0.77476145  0.01409805  1  0.610839  0  0.328389  0.407973  0  0.874434  0
H  H17  1  0.08893406  0.82292871  0.27242229  1  0.617857  0  0.309869  0.398958  0  0.894995  0
H  H18  1  0.97254415  0.97059468  0.22956269  1  0.604329  0  0.330183  0.413929  0  0.867171  0
H  H19  1  0.08024290  0.94024886  0.83670498  1  0.641086  0  0.324643  0.419653  0  0.869545  0
H  H20  1  0.05837258  0.10783042  0.80356372  1  0.594154  0  0.306239  0.397307  0  0.900611  0
H  H21  1  0.07822509  0.19706250  0.90774293  1  0.583173  0  0.308285  0.398756  0  0.897912  0
H  H22  1  0.03523545  0.15362154  0.00168968  1  0.639828  0  0.287623  0.40449  0  0.936089  0
H  H23  1  0.02805127  0.81389456  0.93274964  1  0.605892  0  0.29454  0.397842  0  0.901087  0
H  H24  1  0.84190168  0.92773352  0.93859537  1  0.639027  0  0.344474  0.426769  0  0.850415  0
H  H25  1  0.28373862  0.01943887  0.13378647  1  0.625987  0  0.33775  0.415438  0  0.858601  0
H  H26  1  0.11738996  0.05094669  0.19370360  1  0.571005  0  0.299524  0.389275  0  0.913644  0
H  H27  1  0.10432285  0.01083345  0.83960043  1  0.654042  0  0.290388  0.401741  0  0.936991  0
H  H28  1  0.83367156  0.86790041  0.00909355  1  0.626268  0  0.34058  0.420468  0  0.863043  0
H  H29  1  0.13397773  0.73588865  0.17422776  1  0.598558  0  0.308658  0.399257  0  0.896292  0
H  H30  1  0.11366711  0.77122066  0.07466087  1  0.635555  0  0.286025  0.401783  0  0.941387  0
H  H31  1  0.06745256  0.15224267  0.07203844  1  0.616383  0  0.325402  0.414351  0  0.873025  0
H  H32  1  0.03547309  0.91477037  0.23106766  1  0.657411  0  0.285776  0.407868  0  0.932863  0
H  H33  1  0.19834326  0.05167458  0.12265800  1  0.658484  0  0.288697  0.404679  0  0.933694  0
C  C34  1  0.73643732  0.12455509  0.74088715  1  1.183962  0  0.267124  0.440655  0  4.0898  0
C  C35  1  0.66398744  0.09893253  0.67289174  1  1.194787  0  0.266683  0.447143  0  4.090174  0
C  C36  1  0.66337122  0.20365021  0.66578296  1  1.182801  0  0.267828  0.448738  0  4.094213  0
C  C37  1  0.45105519  0.81467672  0.89614737  1  1.169202  0  0.268699  0.442807  0  4.083319  0
C  C38  1  0.51812281  0.72508846  0.90059065  1  1.149152  0  0.265564  0.447395  0  4.082865  0
C  C39  1  0.51575686  0.81906579  0.80553188  1  1.105765  0  0.267113  0.44705  0  4.082144  0
C  C40  1  0.69161929  0.10233395  0.18507245  1  1.191515  0  0.269572  0.442098  0  4.086386  0
C  C41  1  0.62847054  0.19391685  0.17990222  1  1.151906  0  0.267905  0.450091  0  4.076987  0
C  C42  1  0.62521819  0.09929354  0.27434396  1  1.143005  0  0.266158  0.448033  0  4.082582  0
C  C43  1  0.59014395  0.98857059  0.58158985  1  0.008615  0  0.020417  0.098593  0  4.058325  0
C  C44  1  0.55956045  0.92360021  0.60925637  1  0.141081  0  0.019768  0.09839  0  4.058628  0
C  C45  1  0.53755313  0.89601546  0.56606724  1  0.075214  0  -0.054322  -0.139547  0  3.85499  0
C  C46  1  0.54422770  0.93059662  0.49693088  1  0.127083  0  0.019446  0.09659  0  4.059194  0
C  C47  1  0.57546594  0.99532153  0.46936704  1  0.102797  0  0.019029  0.09668  0  4.062139  0
C  C48  1  0.59715224  0.02303266  0.51248099  1  0.091166  0  -0.054808  -0.13975  0  3.857192  0
C  C49  1  0.40643669  0.79790022  0.32951652  1  1.169961  0  0.266949  0.438911  0  4.088578  0
C  C50  1  0.47210907  0.82340357  0.40151951  1  1.156896  0  0.266162  0.449093  0  4.086516  0
C  C51  1  0.47556441  0.71866347  0.40847026  1  1.156059  0  0.267842  0.44975  0  4.094654  0
C  C52  1  0.40478340  0.25793429  0.87751695  1  1.164329  0  0.267865  0.439907  0  4.090275  0
C  C53  1  0.47839666  0.32632737  0.90157197  1  1.156457  0  0.266257  0.446233  0  4.092961  0
C  C54  1  0.47686147  0.33274182  0.79719495  1  1.206162  0  0.266677  0.447154  0  4.096298  0
C  C55  1  0.73875312  0.66732792  0.20424890  1  1.157667  0  0.267422  0.440894  0  4.087639  0
C  C56  1  0.66621409  0.59090022  0.28249219  1  1.174871  0  0.267019  0.447383  0  4.096538  0
C  C57  1  0.67098293  0.59686631  0.17813666  1  1.177192  0  0.265874  0.448341  0  4.087733  0
C  C58  1  0.59169501  0.39437339  0.57367139  1  0.168385  0  0.018607  0.096016  0  4.072107  0
C  C59  1  0.54712670  0.42643847  0.60612535  1  0.136856  0  0.019287  0.099186  0  4.070774  0
C  C60  1  0.52587206  0.49298652  0.57099632  1  -0.010901  0  -0.056671  -0.145195  0  3.873202  0
C  C61  1  0.54722768  0.52837604  0.50455217  1  0.14478  0  0.018156  0.09599  0  4.074373  0
C  C62  1  0.59211990  0.49638016  0.47221444  1  0.077948  0  0.01878  0.096503  0  4.073948  0
C  C63  1  0.61320192  0.42981238  0.50725749  1  0.017965  0  -0.057006  -0.143655  0  3.873002  0
C  C64  1  0.56854705  0.53016667  0.00488644  1  0.115587  0  0.019802  0.097911  0  4.059887  0
C  C65  1  0.59966020  0.50233873  0.06970736  1  0.065648  0  0.019297  0.098175  0  4.058984  0
C  C66  1  0.60664783  0.43318090  0.10386229  1  -0.001749  0  -0.055229  -0.142216  0  3.856898  0
C  C67  1  0.58499172  0.39030372  0.07580670  1  0.189775  0  0.019728  0.098633  0  4.05852  0
C  C68  1  0.55424076  0.41820237  0.01085581  1  0.070521  0  0.019737  0.098179  0  4.060382  0
C  C69  1  0.54710457  0.48732276  0.97675617  1  0.049234  0  -0.055247  -0.140054  0  3.855323  0
C  C70  1  0.28098747  0.89173322  0.96967236  1  1.679602  0  0.253763  0.691926  0  4.18331  0
C  C71  1  0.24646378  0.11345231  0.93505897  1  1.709935  0  0.250174  0.692864  0  4.184464  0
C  C72  1  0.25371859  0.85282102  0.18037145  1  1.670907  0  0.244609  0.688933  0  4.194034  0
C  C73  1  0.89360850  0.81460723  0.14760769  1  1.706084  0  0.247757  0.686861  0  4.19656  0
C  C74  1  0.85992423  0.02381900  0.11140942  1  1.648563  0  0.253864  0.696445  0  4.173579  0
C  C75  1  0.89362260  0.06822385  0.88645312  1  1.69489  0  0.249591  0.695319  0  4.185392  0
C  C76  1  0.79215477  0.71909417  0.18646694  1  0.012711  0  -0.003722  -0.065836  0  3.963475  0
C  C77  1  0.83851691  0.76248541  0.17257849  1  -0.207363  0  -0.009174  -0.121157  0  3.885344  0
C  C78  1  0.64732627  0.57070160  0.13309928  1  -0.185007  0  -0.013372  -0.117106  0  3.955484  0
C  C79  1  0.62428456  0.54181678  0.10124173  1  -0.02939  0  -0.008172  -0.029611  0  4.052574  0
C  C80  1  0.61619373  0.53112168  0.40579948  1  -0.159065  0  -0.007424  -0.027309  0  4.060138  0
C  C81  1  0.63872784  0.55987447  0.34891535  1  -0.030964  0  -0.011912  -0.116316  0  3.966117  0
C  C82  1  0.34972373  0.20749638  0.89711487  1  -0.429187  0  -0.003263  -0.068582  0  3.963222  0
C  C83  1  0.30202717  0.16504399  0.91300410  1  0.244463  0  -0.00286  -0.10759  0  3.878028  0
C  C84  1  0.50549787  0.35149364  0.94629894  1  0.156645  0  -0.01138  -0.11332  0  3.956579  0
C  C85  1  0.52936216  0.37908125  0.97905953  1  -0.403043  0  -0.008332  -0.031031  0  4.054393  0
C  C86  1  0.50210197  0.36344171  0.72997761  1  0.077768  0  -0.010647  -0.113075  0  3.963219  0
C  C87  1  0.52366682  0.39187299  0.67275540  1  -0.369625  0  -0.009007  -0.031316  0  4.061349  0
C  C88  1  0.30915795  0.82949152  0.23229625  1  -0.097675  0  -0.014556  -0.13102  0  3.8941  0
C  C89  1  0.35462989  0.81602809  0.27637045  1  -0.101865  0  -0.004413  -0.061766  0  3.961841  0
C  C90  1  0.52339907  0.59485622  0.46992619  1  -0.20366  0  -0.005165  -0.023004  0  4.0581  0
C  C91  1  0.50147871  0.65187077  0.44063078  1  -0.033701  0  -0.013847  -0.120671  0  3.967563  0
C  C92  1  0.51922533  0.89962510  0.45708381  1  -0.394598  0  -0.007173  -0.026394  0  4.052152  0
C  C93  1  0.49586666  0.86827779  0.42778918  1  0.147793  0  -0.013584  -0.119379  0  3.956853  0
C  C94  1  0.79425226  0.04762874  0.13506986  1  -0.370962  0  -0.005732  -0.120918  0  3.872624  0
C  C95  1  0.74410913  0.07171233  0.15656485  1  0.211398  0  0.002684  -0.053351  0  3.939832  0
C  C96  1  0.58763509  0.03107623  0.40036027  1  0.017675  0  -0.008274  -0.029074  0  4.045299  0
C  C97  1  0.60217394  0.06337505  0.34184041  1  -0.245877  0  -0.011989  -0.115947  0  3.950189  0
C  C98  1  0.59604952  0.32111279  0.11149442  1  -0.063178  0  -0.007045  -0.028168  0  4.041921  0
C  C99  1  0.60875837  0.26219906  0.14354714  1  -0.202547  0  -0.012047  -0.116143  0  3.948318  0
C  C100  1  0.34716689  0.86663764  0.94779450  1  -0.01757  0  -0.004058  -0.11431  0  3.868582  0
C  C101  1  0.39787722  0.84381848  0.92555591  1  -0.16157  0  -0.000144  -0.061066  0  3.944906  0
C  C102  1  0.55612771  0.59918841  0.96935239  1  -0.224395  0  -0.008041  -0.028896  0  4.044629  0
C  C103  1  0.54127179  0.65766816  0.93706931  1  -0.002548  0  -0.012355  -0.116541  0  3.95094  0
C  C104  1  0.53609246  0.85519205  0.73731471  1  0.340007  0  -0.011069  -0.113288  0  3.945598  0
C  C105  1  0.54875785  0.88754420  0.67843906  1  -0.503831  0  -0.008213  -0.030637  0  4.040608  0
C  C106  1  0.79146784  0.10587353  0.79145982  1  -0.260269  0  -0.002641  -0.062343  0  3.969117  0
C  C107  1  0.83882153  0.09063581  0.83418483  1  0.060591  0  -0.010963  -0.128136  0  3.899011  0
C  C108  1  0.63799602  0.05358944  0.64812929  1  0.047743  0  -0.011877  -0.11508  0  3.957435  0
C  C109  1  0.61469500  0.02039278  0.62079963  1  -0.292866  0  -0.007168  -0.028242  0  4.052011  0
C  C110  1  0.63688985  0.27042703  0.63524799  1  -0.290689  0  -0.011579  -0.117676  0  3.965557  0
C  C111  1  0.61507121  0.32765872  0.60765637  1  0.057819  0  -0.005778  -0.023994  0  4.058453  0
N  N112  1  0.71322062  0.07694765  0.72314828  1  -1.097515  0  -0.300099  -0.39979  0  3.07512  0
N  N113  1  0.63742826  0.16163599  0.64179209  1  -1.155607  0  -0.298194  -0.396377  0  3.080127  0
N  N114  1  0.71321344  0.18835843  0.71510225  1  -1.137241  0  -0.295825  -0.391508  0  3.07412  0
N  N115  1  0.47377942  0.75191047  0.93337127  1  -1.109413  0  -0.297853  -0.397121  0  3.077111  0
N  N116  1  0.54024224  0.75565491  0.83647127  1  -1.124338  0  -0.30218  -0.403253  0  3.073794  0
N  N117  1  0.47153054  0.85157636  0.83269282  1  -1.113526  0  -0.296361  -0.392599  0  3.073999  0
N  N118  1  0.67211911  0.16591716  0.14776099  1  -1.104516  0  -0.295658  -0.392823  0  3.073128  0
N  N119  1  0.60394641  0.16357389  0.24336280  1  -1.109383  0  -0.30113  -0.402621  0  3.07194  0
N  N120  1  0.66879421  0.06570582  0.24788771  1  -1.138569  0  -0.297894  -0.397029  0  3.080207  0
N  N121  1  0.42622508  0.84542264  0.34877460  1  -1.094459  0  -0.301283  -0.402026  0  3.069926  0
N  N122  1  0.49780776  0.76057791  0.43400163  1  -1.125512  0  -0.298087  -0.396229  0  3.081337  0
N  N123  1  0.42992979  0.73416795  0.35621555  1  -1.112928  0  -0.297254  -0.392835  0  3.077497  0
N  N124  1  0.42903196  0.27632497  0.92442417  1  -1.116094  0  -0.29821  -0.395177  0  3.073402  0
N  N125  1  0.50404466  0.35704476  0.83854936  1  -1.09422  0  -0.30076  -0.400055  0  3.083471  0
N  N126  1  0.42713842  0.28336223  0.81339138  1  -1.14005  0  -0.297255  -0.393487  0  3.076083  0
N  N127  1  0.71376670  0.64169562  0.26757099  1  -1.104497  0  -0.296519  -0.391277  0  3.075639  0
N  N128  1  0.64346026  0.56562921  0.24049576  1  -1.121325  0  -0.299154  -0.398009  0  3.082572  0
N  N129  1  0.71868359  0.64821990  0.15664440  1  -1.114538  0  -0.301035  -0.402419  0  3.073075  0
O  O130  1  0.24353246  0.03638132  0.10179427  1  -1.268616  0  -0.583681  -0.785102  0  2.073133  0
O  O131  1  0.28999697  0.92599421  0.00235943  1  -1.132977  0  -0.314082  -0.549734  0  2.245761  0
O  O132  1  0.27266944  0.90459667  0.12924179  1  -1.163326  0  -0.338029  -0.58058  0  2.268543  0
O  O133  1  0.18095918  0.12874991  0.91162832  1  -1.15515  0  -0.306203  -0.564988  0  2.26673  0
O  O134  1  0.19177931  0.82257786  0.19125337  1  -1.16362  0  -0.30661  -0.578727  0  2.251733  0
O  O135  1  0.27023890  0.05695415  0.97676442  1  -1.154615  0  -0.341024  -0.573083  0  2.26541  0
O  O136  1  0.21894367  0.87608802  0.95232512  1  -1.158362  0  -0.326637  -0.579803  0  2.274903  0
O  O137  1  0.14017147  0.89680709  0.05617270  1  -1.22618  0  -0.754906  -1.0956  0  2.193649  0
O  O138  1  0.16266496  0.99493463  0.94494788  1  -1.253022  0  -0.650397  -0.964107  0  2.303546  0
O  O139  1  0.13146555  0.94611719  0.13994843  1  -1.226751  0  -0.656151  -0.976695  0  2.360294  0
O  O140  1  0.11596937  0.03835251  0.02805902  1  -1.214313  0  -0.753869  -1.050798  0  2.143907  0
O  O141  1  0.04194221  0.16281705  0.93153709  1  -1.217217  0  -0.644364  -0.896741  0  1.945351  0
O  O142  1  0.11928964  0.78608286  0.02361257  1  -1.241176  0  -0.590934  -0.799268  0  2.077751  0
O  O143  1  0.02281159  0.97529840  0.95871392  1  -1.222439  0  -0.746114  -1.062961  0  2.135427  0
O  O144  1  0.00898316  0.85955431  0.04492898  1  -1.24504  0  -0.631663  -0.939596  0  2.207472  0
O  O145  1  0.00115097  0.93812430  0.10384488  1  -1.21893  0  -0.760509  -1.073952  0  2.195715  0
O  O146  1  0.97622191  0.05210206  0.00977334  1  -1.247383  0  -0.650694  -0.963066  0  2.301788  0
O  O147  1  0.09451535  0.76148613  0.14426152  1  -1.231186  0  -0.648008  -0.896955  0  1.944457  0
O  O148  1  0.95754307  0.80375683  0.17351567  1  -1.141521  0  -0.294469  -0.525424  0  2.257152  0
O  O149  1  0.87089106  0.86688362  0.09803483  1  -1.176708  0  -0.344245  -0.607369  0  2.294789  0
O  O150  1  0.12039083  0.06783384  0.14572213  1  -1.230153  0  -0.642929  -0.919607  0  1.919972  0
O  O151  1  0.85068295  0.99433457  0.07411712  1  -1.131374  0  -0.314941  -0.549721  0  2.239666  0
O  O152  1  0.05504814  0.84840741  0.23679837  1  -1.256334  0  -0.642033  -0.895725  0  1.961828  0
O  O153  1  0.02474779  0.96601585  0.21760843  1  -1.25834  0  -0.593216  -0.809954  0  2.046607  0
O  O154  1  0.02723087  0.13628908  0.05342716  1  -1.23931  0  -0.601072  -0.792117  0  2.056565  0
O  O155  1  0.92241343  0.03661957  0.13090931  1  -1.165401  0  -0.331009  -0.588993  0  2.263652  0
O  O156  1  0.87000688  0.89454794  0.97521149  1  -1.204515  0  -0.557347  -0.741412  0  2.066976  0
O  O157  1  0.09494676  0.08198448  0.83668221  1  -1.230861  0  -0.651054  -0.903737  0  1.931833  0
O  O158  1  0.87146411  0.02007583  0.94007767  1  -1.17808  0  -0.344269  -0.607269  0  2.27708  0
O  O159  1  0.95639078  0.09638147  0.87506644  1  -1.149306  0  -0.2974  -0.546113  0  2.266397  0
O  O160  1  0.11623326  0.96113074  0.85442836  1  -1.273515  0  -0.597637  -0.780065  0  2.073408  0
O  O161  1  0.04042781  0.86043032  0.91429248  1  -1.248648  0  -0.691896  -0.951142  0  1.858125  0
