# generated using pymatgen
data_KHC8(N2O)2
_symmetry_space_group_name_H-M   'P 1'
_cell_length_a   4.17748212
_cell_length_b   9.40114042
_cell_length_c   21.60396356
_cell_angle_alpha   89.99983970
_cell_angle_beta   95.68510253
_cell_angle_gamma   89.99981185
_symmetry_Int_Tables_number   1
_chemical_formula_structural   KHC8(N2O)2
_chemical_formula_sum   'K4 H4 C32 N16 O8'
_cell_volume   844.28129290
_cell_formula_units_Z   4
loop_
 _symmetry_equiv_pos_site_id
 _symmetry_equiv_pos_as_xyz
  1  'x, y, z'
loop_
 _atom_site_type_symbol
 _atom_site_label
 _atom_site_symmetry_multiplicity
 _atom_site_fract_x
 _atom_site_fract_y
 _atom_site_fract_z
 _atom_site_occupancy
 _atom_site_hle17_bader_spin_density
 _atom_site_hle17_ddec_charge
 _atom_site_hle17_ddec_spin_density
 _atom_site_hle17_ddec_sum_bond_order
 _atom_site_hle17_magmom
 _atom_site_hse06_10hf_bader_spin_density
 _atom_site_hse06_10hf_ddec_charge
 _atom_site_hse06_10hf_ddec_spin_density
 _atom_site_hse06_10hf_ddec_sum_bond_order
 _atom_site_hse06_10hf_magmom
 _atom_site_hse06_bader_spin_density
 _atom_site_hse06_ddec_charge
 _atom_site_hse06_ddec_spin_density
 _atom_site_hse06_ddec_sum_bond_order
 _atom_site_hse06_magmom
 _atom_site_pbe_bader_spin_density
 _atom_site_pbe_cm5_charge
 _atom_site_pbe_ddec_charge
 _atom_site_pbe_ddec_spin_density
 _atom_site_pbe_ddec_sum_bond_order
 _atom_site_pbe_magmom
K  K0  1  0.14870894  0.88573582  0.40313113  1  0  0.931234  0  0.424824  0  0  0.876886  0  0.62107  0  0  0.889066  0  0.601564  0  0  0.790591  0.86807  0  0.634508  0
K  K1  1  0.14871463  0.61426396  0.90313174  1  0  0.931245  0  0.424809  0  0  0.876906  0  0.621049  0  0  0.889082  0  0.601546  0  0  0.790596  0.868088  0  0.634487  0
K  K2  1  0.85129104  0.11426445  0.59686815  1  0  0.931247  0  0.424799  0  0  0.876906  0  0.621031  0  0  0.889081  0  0.601529  0  0  0.79059  0.86809  0  0.634468  0
K  K3  1  0.85129019  0.38573525  0.09686854  1  0  0.931238  0  0.424815  0  0  0.876889  0  0.621052  0  0  0.889067  0  0.601548  0  0  0.79059  0.86807  0  0.63449  0
H  H4  1  0.92961011  0.15065997  0.26908701  1  0  0.346192  0  0.857196  0  0  0.325648  0  0.919117  0  0  0.334836  0  0.911716  0  0  0.328343  0.318886  0  0.924744  0
H  H5  1  0.92961147  0.34934064  0.76908679  1  0  0.34619  0  0.857199  0  0  0.32564  0  0.919128  0  0  0.334826  0  0.911729  0  0  0.328342  0.318878  0  0.924754  0
H  H6  1  0.07039232  0.84934137  0.73091370  1  0  0.346179  0  0.857205  0  0  0.325625  0  0.919145  0  0  0.334812  0  0.911745  0  0  0.328337  0.318863  0  0.924772  0
H  H7  1  0.07038855  0.65065644  0.23091387  1  0  0.34619  0  0.85729  0  0  0.325657  0  0.919212  0  0  0.334845  0  0.911812  0  0  0.328358  0.318891  0  0.924845  0
C  C8  1  0.82485848  0.37633582  0.28065390  1  0  0.584632  0  3.836596  0  0  0.533774  0  4.135001  0  0  0.563451  0  4.136353  0  0  0.244624  0.513654  0  4.133476  0
C  C9  1  0.82485686  0.12366487  0.78065391  1  0  0.584707  0  3.836602  0  0  0.53384  0  4.135017  0  0  0.563519  0  4.136369  0  0  0.244634  0.513717  0  4.133492  0
C  C10  1  0.17514634  0.62366551  0.71934639  1  0  0.584586  0  3.836776  0  0  0.533795  0  4.135074  0  0  0.563476  0  4.136424  0  0  0.244615  0.513672  0  4.133548  0
C  C11  1  0.17514556  0.87633328  0.21934634  1  0  0.584745  0  3.836654  0  0  0.533881  0  4.135063  0  0  0.563566  0  4.136408  0  0  0.244656  0.513757  0  4.133544  0
C  C12  1  0.65476870  0.44378718  0.32878424  1  0  -0.250513  0  3.896352  0  0  -0.238523  0  4.14956  0  0  -0.255613  0  4.17092  0  0  -0.043069  -0.227229  0  4.135169  0
C  C13  1  0.65476761  0.05621345  0.82878388  1  0  -0.250724  0  3.896495  0  0  -0.238686  0  4.149699  0  0  -0.255793  0  4.171074  0  0  -0.043098  -0.227379  0  4.135289  0
C  C14  1  0.34523612  0.55621522  0.67121604  1  0  -0.250711  0  3.896507  0  0  -0.238699  0  4.149681  0  0  -0.255809  0  4.171055  0  0  -0.043067  -0.227395  0  4.135273  0
C  C15  1  0.34523480  0.94378363  0.17121636  1  0  -0.25079  0  3.896494  0  0  -0.238744  0  4.149666  0  0  -0.255858  0  4.17105  0  0  -0.043072  -0.227437  0  4.135263  0
C  C16  1  0.55819816  0.33923704  0.36914537  1  0  -0.017  0  3.779209  0  0  -0.026988  0  4.027956  0  0  -0.018995  0  4.045709  0  0  0.016138  -0.031861  0  4.015585  0
C  C17  1  0.55819625  0.16076453  0.86914579  1  0  -0.01683  0  3.779112  0  0  -0.0269  0  4.027963  0  0  -0.01889  0  4.045708  0  0  0.016165  -0.031777  0  4.015588  0
C  C18  1  0.44180424  0.66076536  0.63085442  1  0  -0.016822  0  3.779124  0  0  -0.026876  0  4.027955  0  0  -0.01887  0  4.045706  0  0  0.016156  -0.031752  0  4.015583  0
C  C19  1  0.44180133  0.83923255  0.13085391  1  0  -0.016739  0  3.77914  0  0  -0.02678  0  4.027929  0  0  -0.018774  0  4.045687  0  0  0.016191  -0.03166  0  4.01556  0
C  C20  1  0.67465369  0.19908169  0.34570471  1  0  0.578417  0  3.799286  0  0  0.534894  0  4.086902  0  0  0.563398  0  4.082982  0  0  0.262456  0.515288  0  4.08903  0
C  C21  1  0.67465545  0.30091879  0.84570456  1  0  0.578285  0  3.799492  0  0  0.534779  0  4.087118  0  0  0.563275  0  4.083207  0  0  0.262394  0.515173  0  4.089244  0
C  C22  1  0.32534391  0.80091964  0.65429545  1  0  0.578254  0  3.79951  0  0  0.53473  0  4.087169  0  0  0.563227  0  4.083258  0  0  0.262382  0.515124  0  4.089295  0
C  C23  1  0.32534214  0.69907828  0.15429513  1  0  0.578216  0  3.799515  0  0  0.534696  0  4.08716  0  0  0.563188  0  4.083261  0  0  0.262409  0.51509  0  4.089286  0
C  C24  1  0.62373615  0.59122462  0.33299465  1  0  0.336003  0  3.834807  0  0  0.319289  0  4.109162  0  0  0.334566  0  4.125277  0  0  0.186373  0.308687  0  4.099153  0
C  C25  1  0.62373704  0.90877704  0.83299481  1  0  0.336173  0  3.83472  0  0  0.319457  0  4.109064  0  0  0.334743  0  4.125173  0  0  0.186441  0.30885  0  4.099052  0
C  C26  1  0.37626386  0.40877778  0.66700555  1  0  0.336267  0  3.834702  0  0  0.319547  0  4.109043  0  0  0.334835  0  4.125153  0  0  0.186449  0.308941  0  4.099032  0
C  C27  1  0.37626056  0.09122323  0.16700534  1  0  0.3362  0  3.834865  0  0  0.319468  0  4.109211  0  0  0.334757  0  4.125321  0  0  0.18643  0.30886  0  4.099202  0
C  C28  1  0.38925568  0.34957723  0.42158459  1  0  -0.106826  0  3.910314  0  0  -0.089986  0  4.147722  0  0  -0.1027  0  4.169515  0  0  -0.004823  -0.081636  0  4.133017  0
C  C29  1  0.38925628  0.15042531  0.92158553  1  0  -0.106963  0  3.910398  0  0  -0.090118  0  4.147867  0  0  -0.102838  0  4.169655  0  0  -0.004865  -0.081767  0  4.133163  0
C  C30  1  0.61074190  0.65042517  0.57841510  1  0  -0.10688  0  3.910377  0  0  -0.090028  0  4.14783  0  0  -0.102745  0  4.169617  0  0  -0.004811  -0.08168  0  4.133129  0
C  C31  1  0.61073890  0.84957389  0.07841412  1  0  -0.107127  0  3.910511  0  0  -0.090274  0  4.147969  0  0  -0.102992  0  4.169759  0  0  -0.004931  -0.081918  0  4.133258  0
C  C32  1  0.27008973  0.48339826  0.43827198  1  0  0.303829  0  3.787728  0  0  0.28829  0  4.057617  0  0  0.300153  0  4.077886  0  0  0.193287  0.280407  0  4.043738  0
C  C33  1  0.27008653  0.01660222  0.93827070  1  0  0.30384  0  3.787667  0  0  0.288308  0  4.057552  0  0  0.300173  0  4.077822  0  0  0.193313  0.280424  0  4.043675  0
C  C34  1  0.72990786  0.51660520  0.56172772  1  0  0.303869  0  3.787631  0  0  0.288333  0  4.057517  0  0  0.300197  0  4.077787  0  0  0.193286  0.280451  0  4.04364  0
C  C35  1  0.72990622  0.98339592  0.06172798  1  0  0.303858  0  3.787648  0  0  0.288316  0  4.057536  0  0  0.300183  0  4.077805  0  0  0.193267  0.280432  0  4.043656  0
C  C36  1  0.33021074  0.23364334  0.46046335  1  0  0.313221  0  3.819737  0  0  0.290315  0  4.100391  0  0  0.304245  0  4.118154  0  0  0.197096  0.280883  0  4.088447  0
C  C37  1  0.33021761  0.26635798  0.96046426  1  0  0.31334  0  3.819915  0  0  0.290444  0  4.100563  0  0  0.304379  0  4.118327  0  0  0.197217  0.28101  0  4.088618  0
C  C38  1  0.66978684  0.76635906  0.53953588  1  0  0.313239  0  3.819777  0  0  0.290337  0  4.100427  0  0  0.304269  0  4.118188  0  0  0.19712  0.280905  0  4.088482  0
C  C39  1  0.66978237  0.73364229  0.03953502  1  0  0.313383  0  3.819812  0  0  0.290473  0  4.100459  0  0  0.304407  0  4.118222  0  0  0.197227  0.281039  0  4.088513  0
N  N40  1  0.83130076  0.22909087  0.29420579  1  0  -0.511272  0  3.221768  0  0  -0.452941  0  3.461879  0  0  -0.478128  0  3.464788  0  0  -0.386979  -0.43522  0  3.459531  0
N  N41  1  0.83130034  0.27090866  0.79420517  1  0  -0.511247  0  3.221809  0  0  -0.452902  0  3.4619  0  0  -0.478085  0  3.464813  0  0  -0.386974  -0.435183  0  3.459555  0
N  N42  1  0.16870167  0.77090940  0.70579492  1  0  -0.511198  0  3.221882  0  0  -0.452888  0  3.46197  0  0  -0.478072  0  3.46488  0  0  -0.386991  -0.435168  0  3.459624  0
N  N43  1  0.16869725  0.72908842  0.20579452  1  0  -0.511207  0  3.22189  0  0  -0.452907  0  3.461963  0  0  -0.478091  0  3.464877  0  0  -0.387012  -0.435184  0  3.459618  0
N  N44  1  0.60449495  0.71527872  0.33676344  1  0  -0.487328  0  2.619846  0  0  -0.468041  0  2.866767  0  0  -0.47917  0  2.875285  0  0  -0.401611  -0.460791  0  2.861458  0
N  N45  1  0.60449444  0.78472188  0.83676373  1  0  -0.487458  0  2.619734  0  0  -0.468169  0  2.866655  0  0  -0.4793  0  2.87517  0  0  -0.401679  -0.460919  0  2.861348  0
N  N46  1  0.39550746  0.28472261  0.66323680  1  0  -0.487511  0  2.619736  0  0  -0.468234  0  2.86667  0  0  -0.479364  0  2.875182  0  0  -0.40167  -0.460983  0  2.861363  0
N  N47  1  0.39551039  0.21527413  0.16323702  1  0  -0.487421  0  2.61992  0  0  -0.468135  0  2.866857  0  0  -0.479265  0  2.87537  0  0  -0.401655  -0.460883  0  2.86155  0
N  N48  1  0.17298642  0.59624099  0.44944673  1  0  -0.442455  0  2.634545  0  0  -0.419158  0  2.873647  0  0  -0.432892  0  2.889781  0  0  -0.356512  -0.409705  0  2.862683  0
N  N49  1  0.17298495  0.90375952  0.94944686  1  0  -0.442417  0  2.634482  0  0  -0.419132  0  2.873592  0  0  -0.432866  0  2.889727  0  0  -0.356521  -0.409679  0  2.862629  0
N  N50  1  0.82701117  0.40376035  0.55055297  1  0  -0.442499  0  2.634433  0  0  -0.419213  0  2.87356  0  0  -0.432946  0  2.889694  0  0  -0.35653  -0.409762  0  2.862599  0
N  N51  1  0.82701506  0.09623969  0.05055334  1  0  -0.442415  0  2.634456  0  0  -0.419122  0  2.873559  0  0  -0.432858  0  2.889694  0  0  -0.356488  -0.409668  0  2.862594  0
N  N52  1  0.27163259  0.14432219  0.49544790  1  0  -0.495565  0  2.643324  0  0  -0.474372  0  2.895285  0  0  -0.4864  0  2.904656  0  0  -0.407053  -0.466028  0  2.888921  0
N  N53  1  0.27163870  0.35567686  0.99544730  1  0  -0.495626  0  2.643487  0  0  -0.474426  0  2.895421  0  0  -0.486456  0  2.904792  0  0  -0.407132  -0.466083  0  2.889056  0
N  N54  1  0.72836740  0.85567914  0.50455183  1  0  -0.495574  0  2.643363  0  0  -0.474391  0  2.89534  0  0  -0.486419  0  2.90471  0  0  -0.407071  -0.466048  0  2.888975  0
N  N55  1  0.72836128  0.64432128  0.00455197  1  0  -0.495593  0  2.643359  0  0  -0.47441  0  2.895335  0  0  -0.486439  0  2.904705  0  0  -0.407107  -0.466065  0  2.88897  0
O  O56  1  0.63773794  0.08089173  0.36849137  1  0  -0.552474  0  1.955322  0  0  -0.509628  0  2.180464  0  0  -0.526926  0  2.173257  0  0  -0.332989  -0.497221  0  2.184483  0
O  O57  1  0.63774116  0.41910760  0.86849156  1  0  -0.552393  0  1.955416  0  0  -0.509567  0  2.180587  0  0  -0.526863  0  2.173386  0  0  -0.332942  -0.497158  0  2.184605  0
O  O58  1  0.36225966  0.91910960  0.63150879  1  0  -0.552383  0  1.955469  0  0  -0.509518  0  2.180588  0  0  -0.526814  0  2.173389  0  0  -0.332923  -0.49711  0  2.184606  0
O  O59  1  0.36225885  0.58088948  0.13150864  1  0  -0.552388  0  1.955461  0  0  -0.509529  0  2.18058  0  0  -0.526824  0  2.173383  0  0  -0.332957  -0.497121  0  2.184597  0
O  O60  1  0.94735363  0.43294389  0.23722527  1  0  -0.530082  0  1.936931  0  0  -0.489442  0  2.161203  0  0  -0.508874  0  2.155222  0  0  -0.285872  -0.476165  0  2.165479  0
O  O61  1  0.94735727  0.06705795  0.73722498  1  0  -0.530116  0  1.93686  0  0  -0.489461  0  2.161129  0  0  -0.508893  0  2.155145  0  0  -0.285887  -0.476185  0  2.165406  0
O  O62  1  0.05265120  0.56705744  0.76277548  1  0  -0.530076  0  1.936976  0  0  -0.489444  0  2.161192  0  0  -0.508876  0  2.155205  0  0  -0.285872  -0.476168  0  2.165469  0
O  O63  1  0.05264752  0.93294125  0.26277438  1  0  -0.530155  0  1.936974  0  0  -0.489491  0  2.161232  0  0  -0.508922  0  2.155241  0  0  -0.285907  -0.476215  0  2.165514  0
