# generated using pymatgen
data_Zn4H9C24S4N2O13F
_symmetry_space_group_name_H-M   'P 1'
_cell_length_a   19.68133496
_cell_length_b   19.67403800
_cell_length_c   33.37285672
_cell_angle_alpha   79.18959108
_cell_angle_beta   79.16255340
_cell_angle_gamma   63.87229863
_symmetry_Int_Tables_number   1
_chemical_formula_structural   Zn4H9C24S4N2O13F
_chemical_formula_sum   'Zn16 H36 C96 S16 N8 O52 F4'
_cell_volume   11314.25208904
_cell_formula_units_Z   4
loop_
 _symmetry_equiv_pos_site_id
 _symmetry_equiv_pos_as_xyz
  1  'x, y, z'
loop_
 _atom_site_type_symbol
 _atom_site_label
 _atom_site_symmetry_multiplicity
 _atom_site_fract_x
 _atom_site_fract_y
 _atom_site_fract_z
 _atom_site_occupancy
 _atom_site_pbe_bader_charge
 _atom_site_pbe_bader_spin_density
 _atom_site_pbe_cm5_charge
 _atom_site_pbe_ddec_charge
 _atom_site_pbe_ddec_spin_density
 _atom_site_pbe_ddec_sum_bond_order
 _atom_site_pbe_magmom
Zn  Zn0  1  0.05556676  0.40062957  0.47817938  1  1.322408  0  0.673901  0.975422  0  2.353223  0
Zn  Zn1  1  0.98422052  0.48389427  0.56024338  1  1.300815  0  0.661954  0.945846  0  2.388647  0
Zn  Zn2  1  0.05888191  0.56071784  0.48251528  1  1.317786  0  0.669713  0.958685  0  2.394524  0
Zn  Zn3  1  0.90093588  0.55583944  0.47948887  1  1.318706  0  0.670047  0.959083  0  2.393956  0
Zn  Zn4  1  0.69424020  0.34951228  0.27134794  1  1.31858  0  0.672051  0.969918  0  2.368311  0
Zn  Zn5  1  0.68865377  0.19000879  0.26646845  1  1.313369  0  0.67204  0.969091  0  2.356679  0
Zn  Zn6  1  0.76856653  0.26634525  0.19052379  1  1.312599  0  0.668241  0.95627  0  2.39402  0
Zn  Zn7  1  0.84830210  0.19411300  0.27213010  1  1.315939  0  0.66662  0.95374  0  2.381533  0
Zn  Zn8  1  0.26725197  0.76723371  0.68966275  1  1.312803  0  0.67237  0.964768  0  2.371119  0
Zn  Zn9  1  0.34815701  0.69593437  0.77223972  1  1.314541  0  0.666186  0.957615  0  2.375903  0
Zn  Zn10  1  0.19260603  0.84883670  0.77167324  1  1.319883  0  0.675226  0.972735  0  2.374442  0
Zn  Zn11  1  0.19117851  0.68897467  0.76710927  1  1.316947  0  0.666318  0.954735  0  2.388951  0
Zn  Zn12  1  0.56069592  0.05961394  0.98304831  1  1.318286  0  0.671299  0.964096  0  2.372784  0
Zn  Zn13  1  0.40110131  0.05586791  0.97853583  1  1.315344  0  0.671961  0.963614  0  2.371002  0
Zn  Zn14  1  0.55524245  0.90108039  0.97827709  1  1.313237  0  0.670634  0.965642  0  2.374203  0
Zn  Zn15  1  0.48382647  0.98261218  0.06042635  1  1.314056  0  0.671667  0.965393  0  2.369744  0
H  H16  1  0.95487419  0.24831362  0.35174017  1  0.080992  0  0.108483  0.116702  0  0.995121  0
H  H17  1  0.74713880  0.45442432  0.35023290  1  0.107097  0  0.119274  0.148135  0  0.978532  0
H  H18  1  0.99988424  0.29918141  0.39992924  1  0.084436  0  0.113087  0.120908  0  0.986054  0
H  H19  1  0.09718062  0.59726223  0.70021071  1  0.101768  0  0.108349  0.116193  0  0.996264  0
H  H20  1  0.20163714  0.70140280  0.59775947  1  0.145318  0  0.118872  0.147954  0  0.978583  0
H  H21  1  0.05066063  0.55029696  0.65076308  1  0.079371  0  0.108739  0.114712  0  0.993646  0
H  H22  1  0.46290482  0.24090415  0.34077718  1  0.1485  0  0.120356  0.145258  0  0.969222  0
H  H23  1  0.48004894  0.70098191  0.60206447  1  0.134329  0  0.121738  0.147672  0  0.966658  0
H  H24  1  0.20395675  0.97999796  0.60157712  1  0.130803  0  0.121103  0.146625  0  0.968849  0
H  H25  1  0.94804115  0.96936679  0.34745994  1  0.120907  0  0.11932  0.144029  0  0.970397  0
H  H26  1  0.55012064  0.05009801  0.15303340  1  0.103527  0  0.110809  0.119329  0  0.991909  0
H  H27  1  0.65197383  0.15285642  0.04853202  1  0.149367  0  0.118435  0.147533  0  0.979897  0
H  H28  1  0.59984218  0.09924788  0.19974141  1  0.128989  0  0.112741  0.12013  0  0.98762  0
H  H29  1  0.54838660  0.76996898  0.14815429  1  0.128802  0  0.120807  0.146515  0  0.968184  0
H  H30  1  0.16299414  0.14250667  0.04105171  1  0.098794  0  0.121034  0.146478  0  0.968263  0
H  H31  1  0.50104705  0.79577344  0.89862331  1  0.105883  0  0.110478  0.118783  0  0.992636  0
H  H32  1  0.29527377  0.00385969  0.89967095  1  0.090363  0  0.118571  0.147455  0  0.979009  0
H  H33  1  0.45042232  0.75071040  0.85031535  1  0.09111  0  0.111171  0.117694  0  0.989848  0
H  H34  1  0.30203965  0.27975983  0.90171425  1  0.109724  0  0.121135  0.146802  0  0.968276  0
H  H35  1  0.78645252  0.00948622  0.90814110  1  0.110373  0  0.121485  0.146643  0  0.967504  0
H  H36  1  0.31329885  0.55730153  0.39604931  1  0.432557  0  0.315879  0.311414  0  0.930628  0
H  H37  1  0.23323015  0.55291183  0.42730693  1  0.483221  0  0.309312  0.323618  0  0.952994  0
H  H38  1  0.76789909  0.52137376  0.68557434  1  0.44531  0  0.311384  0.305056  0  0.93856  0
H  H39  1  0.83631714  0.51808086  0.64362325  1  0.485126  0  0.30325  0.314861  0  0.96444  0
H  H40  1  0.04585371  0.26844346  0.68570893  1  0.418483  0  0.311341  0.305487  0  0.937383  0
H  H41  1  0.02054569  0.33626844  0.64307805  1  0.478236  0  0.301809  0.312691  0  0.967877  0
H  H42  1  0.74242240  0.80241398  0.38526931  1  0.452254  0  0.315278  0.31044  0  0.931398  0
H  H43  1  0.79417145  0.72534133  0.41904844  1  0.496263  0  0.309235  0.323401  0  0.951586  0
H  H44  1  0.72645612  0.48174384  0.06446138  1  0.454897  0  0.315734  0.310649  0  0.932231  0
H  H45  1  0.73267104  0.41289362  0.10673566  1  0.479481  0  0.30931  0.323947  0  0.951377  0
H  H46  1  0.14531096  0.08487212  0.22746644  1  0.440399  0  0.314403  0.309314  0  0.933221  0
H  H47  1  0.04713705  0.11550004  0.24013737  1  0.501165  0  0.306828  0.319905  0  0.957871  0
H  H48  1  0.51682256  0.43640275  0.85445319  1  0.46025  0  0.314516  0.309844  0  0.933787  0
H  H49  1  0.45630126  0.52344893  0.83046486  1  0.507694  0  0.306846  0.320001  0  0.957892  0
H  H50  1  0.92624120  0.70076320  0.84399008  1  0.448296  0  0.313603  0.308637  0  0.935703  0
H  H51  1  0.01547786  0.69688384  0.82230572  1  0.502103  0  0.306911  0.320295  0  0.957564  0
C  C52  1  0.05873996  0.31626136  0.56266331  1  1.497781  0  0.205371  0.61555  0  4.218234  0
C  C53  1  0.06962293  0.56978755  0.56907902  1  1.571788  0  0.226661  0.621819  0  4.166974  0
C  C54  1  0.18542317  0.43917328  0.43930570  1  1.514585  0  0.204993  0.612291  0  4.223612  0
C  C55  1  0.93563461  0.68564931  0.43890629  1  1.495611  0  0.204021  0.610231  0  4.228677  0
C  C56  1  0.93000390  0.43189759  0.43087789  1  1.587327  0  0.228825  0.623452  0  4.164395  0
C  C57  1  0.81631308  0.56308165  0.56337271  1  1.533535  0  0.205057  0.61361  0  4.221054  0
C  C58  1  0.56482129  0.31250175  0.31076139  1  1.569483  0  0.216166  0.609037  0  4.217527  0
C  C59  1  0.68201380  0.18042994  0.18038035  1  1.582072  0  0.228444  0.621356  0  4.166685  0
C  C60  1  0.68817456  0.43388503  0.18746167  1  1.487297  0  0.204777  0.612897  0  4.223729  0
C  C61  1  0.93655433  0.18633750  0.18967582  1  1.510098  0  0.204169  0.611966  0  4.224245  0
C  C62  1  0.82016201  0.31878822  0.31918349  1  1.575966  0  0.230091  0.605406  0  4.156614  0
C  C63  1  0.81084444  0.06533873  0.31114295  1  1.591981  0  0.216475  0.61025  0  4.219667  0
C  C64  1  0.43425195  0.68707730  0.68887782  1  1.551984  0  0.215664  0.608793  0  4.222365  0
C  C65  1  0.31820782  0.82076188  0.81909052  1  1.578663  0  0.228552  0.62346  0  4.16605  0
C  C66  1  0.18923898  0.93420661  0.68840141  1  1.601506  0  0.217521  0.609545  0  4.221458  0
C  C67  1  0.06544700  0.80818468  0.81221885  1  1.528809  0  0.204752  0.612942  0  4.222488  0
C  C68  1  0.18064575  0.68080242  0.68100104  1  1.558023  0  0.230576  0.607193  0  4.161707  0
C  C69  1  0.31335475  0.56559877  0.81247248  1  1.519279  0  0.204392  0.613656  0  4.223081  0
C  C70  1  0.43925064  0.18364131  0.93812134  1  1.570997  0  0.217701  0.610045  0  4.218425  0
C  C71  1  0.43048421  0.93068148  0.93091879  1  1.563002  0  0.231631  0.606518  0  4.157531  0
C  C72  1  0.68373723  0.93871950  0.93794831  1  1.563275  0  0.216634  0.607926  0  4.222078  0
C  C73  1  0.56277063  0.81541109  0.06136538  1  1.567178  0  0.217707  0.610379  0  4.218945  0
C  C74  1  0.56931579  0.06909216  0.06946431  1  1.557101  0  0.230915  0.604425  0  4.159906  0
C  C75  1  0.31608531  0.06241916  0.06158001  1  1.596963  0  0.216478  0.608572  0  4.222454  0
C  C76  1  0.90006535  0.40450281  0.40211650  1  0.047243  0  -0.019116  -0.14471  0  3.94018  0
C  C77  1  0.84841356  0.34806059  0.34786966  1  -0.039975  0  -0.008032  0.001961  0  3.974516  0
C  C78  1  0.82873625  0.44698044  0.38744800  1  0.453017  0  0.111518  0.288773  0  4.027521  0
C  C79  1  0.91983944  0.30420573  0.36192713  1  0.025313  0  -0.087203  -0.114792  0  3.984656  0
C  C80  1  0.80275631  0.41983618  0.36079862  1  0.068792  0  -0.089979  -0.222255  0  3.961342  0
C  C81  1  0.94471429  0.33240742  0.38859533  1  -0.033665  0  -0.075642  -0.065552  0  3.974647  0
C  C82  1  0.09926885  0.59903743  0.59700598  1  0.0238  0  -0.018482  -0.142658  0  3.941346  0
C  C83  1  0.15209009  0.65228730  0.65213249  1  -0.0371  0  -0.008739  0.000597  0  3.978075  0
C  C84  1  0.14224783  0.64194661  0.58295556  1  0.467654  0  0.112809  0.289117  0  4.025921  0
C  C85  1  0.10946106  0.60955296  0.66716608  1  -0.073184  0  -0.087552  -0.114201  0  3.989706  0
C  C86  1  0.16849683  0.66842891  0.60979398  1  0.057857  0  -0.088641  -0.220389  0  3.958101  0
C  C87  1  0.08380681  0.58359840  0.63979815  1  0.029629  0  -0.078335  -0.068105  0  3.987245  0
C  C88  1  0.30394768  0.45572970  0.40218708  1  0.521474  0  0.104453  0.279078  0  4.135735  0
C  C89  1  0.44557129  0.29786351  0.34869003  1  -0.021623  0  -0.087747  -0.130442  0  3.960897  0
C  C90  1  0.25932533  0.41417346  0.41510209  1  -0.107278  0  -0.050031  -0.263688  0  3.9584  0
C  C91  1  0.49010007  0.33798614  0.33578915  1  -0.135879  0  -0.025401  -0.11881  0  3.98397  0
C  C92  1  0.37765872  0.34036988  0.37269823  1  -0.132246  0  -0.021992  0.00686  0  4.105062  0
C  C93  1  0.37184651  0.41225254  0.37767814  1  -0.189718  0  -0.030457  -0.125039  0  4.041177  0
C  C94  1  0.72764659  0.57681402  0.63075664  1  0.564666  0  0.101838  0.276388  0  4.131733  0
C  C95  1  0.52484038  0.67200924  0.62202727  1  0.046903  0  -0.085909  -0.130634  0  3.957307  0
C  C96  1  0.74249001  0.58799508  0.58773621  1  -0.174786  0  -0.04818  -0.261705  0  3.961272  0
C  C97  1  0.50939993  0.66165705  0.66436346  1  -0.21402  0  -0.025801  -0.116093  0  3.985527  0
C  C98  1  0.60408641  0.64087031  0.60953021  1  -0.116806  0  -0.021795  0.007441  0  4.102575  0
C  C99  1  0.64754074  0.60749754  0.64274937  1  -0.183643  0  -0.03063  -0.123826  0  4.045986  0
C  C100  1  0.07286386  0.22752690  0.63003491  1  0.4675  0  0.101159  0.275667  0  4.128237  0
C  C101  1  0.17440055  0.02480720  0.62153441  1  0.07862  0  -0.087259  -0.131525  0  3.960768  0
C  C102  1  0.08297472  0.24234061  0.58696058  1  -0.075251  0  -0.04857  -0.26297  0  3.960499  0
C  C103  1  0.16426745  0.00939850  0.66388513  1  -0.194575  0  -0.025016  -0.117058  0  3.983602  0
C  C104  1  0.14150623  0.10401953  0.60897828  1  -0.170467  0  -0.021731  0.006699  0  4.104027  0
C  C105  1  0.10691762  0.14748579  0.64217118  1  -0.171823  0  -0.031166  -0.125512  0  4.045012  0
C  C106  1  0.84112800  0.80061560  0.39831731  1  0.498912  0  0.105572  0.280572  0  4.131863  0
C  C107  1  0.90367929  0.94897650  0.35205045  1  0.059103  0  -0.087453  -0.13008  0  3.96227  0
C  C108  1  0.91098396  0.75942773  0.41466956  1  -0.07596  0  -0.049426  -0.262334  0  3.961619  0
C  C109  1  0.83514949  0.99038405  0.33585806  1  -0.183077  0  -0.025573  -0.118646  0  3.986477  0
C  C110  1  0.90653843  0.87968115  0.37453622  1  -0.140611  0  -0.022608  0.006647  0  4.108011  0
C  C111  1  0.83978056  0.86973653  0.37513959  1  -0.173836  0  -0.030794  -0.126115  0  4.043339  0
C  C112  1  0.65353917  0.15297771  0.15096417  1  -0.048319  0  -0.0187  -0.144092  0  3.940774  0
C  C113  1  0.59804933  0.09816004  0.09795254  1  0.019462  0  -0.008119  0.001296  0  3.977835  0
C  C114  1  0.66712741  0.16736946  0.10798351  1  0.508374  0  0.11203  0.289816  0  4.02541  0
C  C115  1  0.58315901  0.08308357  0.14068387  1  -0.021656  0  -0.086207  -0.112169  0  3.981961  0
C  C116  1  0.64018460  0.14064841  0.08162047  1  0.003162  0  -0.090173  -0.223986  0  3.963098  0
C  C117  1  0.61069683  0.11029210  0.16648997  1  -0.046932  0  -0.07502  -0.065419  0  3.977257  0
C  C118  1  0.67373985  0.52194603  0.11985124  1  0.488428  0  0.104716  0.279865  0  4.133388  0
C  C119  1  0.57743361  0.72506134  0.12824009  1  0.065896  0  -0.086398  -0.130177  0  3.959753  0
C  C120  1  0.66263079  0.50745411  0.16295615  1  -0.062618  0  -0.049314  -0.263585  0  3.959622  0
C  C121  1  0.58792006  0.74030669  0.08588821  1  -0.212298  0  -0.026073  -0.118903  0  3.98802  0
C  C122  1  0.60868879  0.64584379  0.14083077  1  -0.144369  0  -0.022246  0.006553  0  4.105115  0
C  C123  1  0.64238204  0.60214261  0.10770112  1  -0.171647  0  -0.030232  -0.124929  0  4.039577  0
C  C124  1  0.08189486  0.12172171  0.17906499  1  0.542326  0  0.104021  0.279313  0  4.13034  0
C  C125  1  0.17050243  0.12567694  0.07343102  1  0.120494  0  -0.086912  -0.129918  0  3.959954  0
C  C126  1  0.00989145  0.16105542  0.16491179  1  -0.141389  0  -0.048791  -0.262255  0  3.959684  0
C  C127  1  0.24173652  0.08693183  0.08690485  1  -0.245875  0  -0.025704  -0.118815  0  3.986829  0
C  C128  1  0.11209464  0.13887539  0.10676245  1  -0.127498  0  -0.021488  0.006889  0  4.105302  0
C  C129  1  0.14012339  0.10965439  0.14508122  1  -0.23588  0  -0.030287  -0.12454  0  4.042354  0
C  C130  1  0.34538395  0.85078779  0.84784769  1  0.027277  0  -0.018949  -0.144836  0  3.943823  0
C  C131  1  0.40145649  0.90246095  0.90214954  1  -0.038615  0  -0.00867  0.000598  0  3.976185  0
C  C132  1  0.30279896  0.92223961  0.86241297  1  0.44389  0  0.112972  0.289648  0  4.029793  0
C  C133  1  0.44537639  0.83088737  0.88822694  1  0.019522  0  -0.085742  -0.111818  0  3.980386  0
C  C134  1  0.32985213  0.94821940  0.88910353  1  0.070971  0  -0.089721  -0.222583  0  3.960196  0
C  C135  1  0.41728128  0.80602359  0.86152462  1  -0.01611  0  -0.076741  -0.066477  0  3.978164  0
C  C136  1  0.40734304  0.45059019  0.85338745  1  0.501591  0  0.104738  0.280057  0  4.131017  0
C  C137  1  0.34642184  0.30011957  0.89717248  1  0.081827  0  -0.086973  -0.1313  0  3.959884  0
C  C138  1  0.33732882  0.49231999  0.83726905  1  -0.118375  0  -0.049209  -0.261851  0  3.960482  0
C  C139  1  0.41503968  0.25843615  0.91323209  1  -0.180978  0  -0.024741  -0.116742  0  3.983377  0
C  C140  1  0.34335263  0.36986917  0.87519068  1  -0.185501  0  -0.022254  0.007882  0  4.105434  0
C  C141  1  0.40984335  0.38002849  0.87504910  1  -0.131514  0  -0.030359  -0.125313  0  4.042028  0
C  C142  1  0.94704793  0.79183226  0.84966910  1  0.49395  0  0.103749  0.279057  0  4.131948  0
C  C143  1  0.80357528  0.95245347  0.90040172  1  -0.019668  0  -0.086727  -0.129632  0  3.958763  0
C  C144  1  0.99232477  0.83267812  0.83715737  1  -0.097756  0  -0.048597  -0.263658  0  3.960561  0
C  C145  1  0.75843606  0.91294442  0.91302070  1  -0.124369  0  -0.025344  -0.117834  0  3.987415  0
C  C146  1  0.87210357  0.90894000  0.87719753  1  -0.123001  0  -0.021646  0.005784  0  4.106086  0
C  C147  1  0.87783099  0.83684683  0.87266103  1  -0.180833  0  -0.030386  -0.124494  0  4.042048  0
S  S148  1  0.30027810  0.32419831  0.39790567  1  0.24006  0  0.052774  0.093403  0  2.745807  0
S  S149  1  0.44989963  0.42746597  0.35284044  1  0.249815  0  0.071552  0.119672  0  2.757793  0
S  S150  1  0.66032393  0.63533047  0.56290282  1  0.262024  0  0.059416  0.102222  0  2.748306  0
S  S151  1  0.59092233  0.61438467  0.68927483  1  0.238117  0  0.063679  0.108544  0  2.766696  0
S  S152  1  0.13268319  0.16012675  0.56222243  1  0.251965  0  0.058359  0.101203  0  2.746676  0
S  S153  1  0.11457530  0.09090821  0.68874123  1  0.238023  0  0.072626  0.120923  0  2.756669  0
S  S154  1  0.97258856  0.80471160  0.40218103  1  0.233195  0  0.052404  0.093197  0  2.751907  0
S  S155  1  0.77366430  0.94557957  0.34798145  1  0.243549  0  0.070581  0.118557  0  2.759784  0
S  S156  1  0.61442556  0.58996119  0.18758126  1  0.249155  0  0.054892  0.0965  0  2.749219  0
S  S157  1  0.63552907  0.65859057  0.06109347  1  0.240417  0  0.070117  0.117491  0  2.75892  0
S  S158  1  0.01392514  0.18172310  0.11143184  1  0.271623  0  0.053967  0.095273  0  2.749541  0
S  S159  1  0.23824271  0.06593953  0.14006953  1  0.304123  0  0.071297  0.119336  0  2.760664  0
S  S160  1  0.27634954  0.44630462  0.84880081  1  0.255495  0  0.052322  0.092369  0  2.751217  0
S  S161  1  0.47608141  0.30375431  0.90191560  1  0.256078  0  0.070701  0.118406  0  2.759987  0
S  S162  1  0.95119522  0.92329130  0.85351458  1  0.257673  0  0.058344  0.101961  0  2.747508  0
S  S163  1  0.79899285  0.82262207  0.89697399  1  0.254569  0  0.069235  0.116441  0  2.75975  0
N  N164  1  0.28635349  0.52574353  0.41256966  1  -1.228151  0  -0.579541  -0.591409  0  3.333234  0
N  N165  1  0.78183992  0.54398129  0.65715637  1  -1.269931  0  -0.585061  -0.594181  0  3.327757  0
N  N166  1  0.03378641  0.28163219  0.65629875  1  -1.201232  0  -0.586096  -0.595301  0  3.324781  0
N  N167  1  0.78269569  0.77899400  0.40474200  1  -1.247279  0  -0.580114  -0.591455  0  3.325478  0
N  N168  1  0.70709527  0.46768218  0.09364550  1  -1.239915  0  -0.579948  -0.591874  0  3.329976  0
N  N169  1  0.09407978  0.09669175  0.21911900  1  -1.264027  0  -0.581703  -0.592725  0  3.327912  0
N  N170  1  0.46325678  0.47509086  0.84999011  1  -1.284814  0  -0.582648  -0.594475  0  3.329331  0
N  N171  1  0.96737565  0.71922788  0.84214511  1  -1.255245  0  -0.581957  -0.593892  0  3.331588  0
O  O172  1  0.00014277  0.49939895  0.50037660  1  -1.225542  0  -0.571671  -1.021482  0  2.538129  0
O  O173  1  0.07491884  0.31753007  0.52357813  1  -1.154065  0  -0.325288  -0.552621  0  2.335953  0
O  O174  1  0.03502279  0.52810679  0.58648594  1  -1.16184  0  -0.319065  -0.553232  0  2.327041  0
O  O175  1  0.15741899  0.50637166  0.45102788  1  -1.171772  0  -0.32148  -0.555088  0  2.32829  0
O  O176  1  0.02276987  0.37542460  0.58243065  1  -1.178491  0  -0.324426  -0.560583  0  2.328848  0
O  O177  1  0.15305365  0.39319094  0.44718517  1  -1.18006  0  -0.328816  -0.557063  0  2.337557  0
O  O178  1  0.08073630  0.58864023  0.53071094  1  -1.155673  0  -0.310927  -0.538471  0  2.369089  0
O  O179  1  0.00327724  0.65613848  0.44933512  1  -1.173779  0  -0.329499  -0.555351  0  2.34569  0
O  O180  1  0.88802025  0.49760625  0.44212321  1  -1.161991  0  -0.313691  -0.543741  0  2.371825  0
O  O181  1  0.88778436  0.65484814  0.44808606  1  -1.178867  0  -0.320247  -0.553538  0  2.329165  0
O  O182  1  0.99561532  0.38662593  0.44167555  1  -1.175912  0  -0.313223  -0.545806  0  2.319325  0
O  O183  1  0.87574757  0.52858372  0.58290945  1  -1.188074  0  -0.322691  -0.558945  0  2.323721  0
O  O184  1  0.81711006  0.57689460  0.52424046  1  -1.14755  0  -0.326397  -0.550546  0  2.343529  0
O  O185  1  0.74971960  0.24953732  0.25066987  1  -1.221682  0  -0.570734  -1.025335  0  2.531435  0
O  O186  1  0.59587774  0.35942724  0.30269328  1  -1.154621  0  -0.320153  -0.548172  0  2.333821  0
O  O187  1  0.66272744  0.16497549  0.21855977  1  -1.166997  0  -0.314449  -0.546692  0  2.323654  0
O  O188  1  0.72423258  0.37436660  0.16806067  1  -1.177774  0  -0.320147  -0.554164  0  2.325598  0
O  O189  1  0.59203363  0.24599035  0.29944114  1  -1.174035  0  -0.317649  -0.541206  0  2.312415  0
O  O190  1  0.67346781  0.43322156  0.22664790  1  -1.157709  0  -0.328435  -0.55573  0  2.341196  0
O  O191  1  0.72286325  0.21639913  0.16527871  1  -1.157284  0  -0.312575  -0.539927  0  2.370395  0
O  O192  1  0.87743971  0.22429878  0.17071176  1  -1.174126  0  -0.328144  -0.553747  0  2.344313  0
O  O193  1  0.86445546  0.25313140  0.30814943  1  -1.173684  0  -0.314446  -0.546265  0  2.333494  0
O  O194  1  0.93607360  0.16912550  0.22907903  1  -1.178252  0  -0.32172  -0.557317  0  2.325557  0
O  O195  1  0.75426799  0.36191392  0.30828877  1  -1.1796  0  -0.31154  -0.540891  0  2.33232  0
O  O196  1  0.74465873  0.09299106  0.29923882  1  -1.172033  0  -0.321516  -0.551488  0  2.334897  0
O  O197  1  0.85779264  0.09616160  0.30389433  1  -1.185818  0  -0.31959  -0.541955  0  2.315616  0
O  O198  1  0.25032761  0.74996302  0.74982839  1  -1.230569  0  -0.571271  -1.025233  0  2.532101  0
O  O199  1  0.37634150  0.72340125  0.66914334  1  -1.169382  0  -0.317026  -0.538609  0  2.313474  0
O  O200  1  0.36417342  0.75540661  0.80795957  1  -1.172147  0  -0.317248  -0.550597  0  2.326229  0
O  O201  1  0.17193152  0.93393170  0.72735664  1  -1.182217  0  -0.319422  -0.546513  0  2.337526  0
O  O202  1  0.43386414  0.67065681  0.72790354  1  -1.149906  0  -0.323711  -0.554713  0  2.340982  0
O  O203  1  0.22562825  0.87609395  0.66871781  1  -1.172769  0  -0.317975  -0.541626  0  2.313708  0
O  O204  1  0.25232917  0.86198348  0.80810974  1  -1.155727  0  -0.309947  -0.538504  0  2.368929  0
O  O205  1  0.09631106  0.85542231  0.80322327  1  -1.182997  0  -0.326473  -0.552267  0  2.343069  0
O  O206  1  0.16394689  0.66459842  0.71931986  1  -1.178488  0  -0.313283  -0.544449  0  2.336916  0
O  O207  1  0.09399518  0.74078400  0.80072955  1  -1.179293  0  -0.321626  -0.556527  0  2.325154  0
O  O208  1  0.21929547  0.71886433  0.66472803  1  -1.163985  0  -0.313209  -0.543738  0  2.336092  0
O  O209  1  0.35997316  0.59788579  0.80486340  1  -1.184305  0  -0.321933  -0.557908  0  2.325  0
O  O210  1  0.24770009  0.59294847  0.79975813  1  -1.182451  0  -0.329728  -0.556619  0  2.344835  0
O  O211  1  0.49999358  0.99988580  0.00011331  1  -1.228664  0  -0.570651  -1.02872  0  2.525917  0
O  O212  1  0.50584815  0.15579410  0.94953536  1  -1.171927  0  -0.32187  -0.550082  0  2.338052  0
O  O213  1  0.38702653  0.99641606  0.94205722  1  -1.17271  0  -0.313338  -0.543686  0  2.334528  0
O  O214  1  0.65251371  0.89193489  0.94599771  1  -1.159505  0  -0.321822  -0.549042  0  2.3393  0
O  O215  1  0.39187820  0.15332494  0.94620343  1  -1.164485  0  -0.317409  -0.540189  0  2.312152  0
O  O216  1  0.65678074  0.00507591  0.94942057  1  -1.171128  0  -0.317161  -0.538744  0  2.314685  0
O  O217  1  0.49617172  0.88659662  0.94181546  1  -1.168065  0  -0.311343  -0.54066  0  2.333669  0
O  O218  1  0.57894902  0.81563151  0.02233208  1  -1.151781  0  -0.322103  -0.550122  0  2.337829  0
O  O219  1  0.53124812  0.03060028  0.08601022  1  -1.160049  0  -0.311347  -0.540846  0  2.334641  0
O  O220  1  0.52697721  0.87358806  0.08100794  1  -1.169859  0  -0.318018  -0.54053  0  2.313885  0
O  O221  1  0.58543039  0.08523783  0.03103450  1  -1.175089  0  -0.313156  -0.542374  0  2.335111  0
O  O222  1  0.31558649  0.07914814  0.02269706  1  -1.179607  0  -0.317894  -0.540365  0  2.314451  0
O  O223  1  0.37476689  0.02623548  0.08090760  1  -1.177685  0  -0.320977  -0.549538  0  2.339477  0
F  F224  1  0.78158253  0.51698222  0.39877325  1  -0.625718  0  -0.102876  -0.141191  0  1.346462  0
F  F225  1  0.16043256  0.65920483  0.54230936  1  -0.630367  0  -0.10077  -0.138294  0  1.346748  0
F  F226  1  0.70722920  0.20851876  0.09018804  1  -0.630073  0  -0.101889  -0.139967  0  1.34496  0
F  F227  1  0.23307507  0.96935302  0.85091564  1  -0.619833  0  -0.099216  -0.136353  0  1.348549  0
