# generated using pymatgen
data_CdH18C20(N2O3)2
_symmetry_space_group_name_H-M   'P 1'
_cell_length_a   9.77093907
_cell_length_b   11.72670233
_cell_length_c   12.36939404
_cell_angle_alpha   86.22837149
_cell_angle_beta   66.73826455
_cell_angle_gamma   65.37261070
_symmetry_Int_Tables_number   1
_chemical_formula_structural   CdH18C20(N2O3)2
_chemical_formula_sum   'Cd2 H36 C40 N8 O12'
_cell_volume   1175.33199234
_cell_formula_units_Z   2
loop_
 _symmetry_equiv_pos_site_id
 _symmetry_equiv_pos_as_xyz
  1  'x, y, z'
loop_
 _atom_site_type_symbol
 _atom_site_label
 _atom_site_symmetry_multiplicity
 _atom_site_fract_x
 _atom_site_fract_y
 _atom_site_fract_z
 _atom_site_occupancy
 _atom_site_hle17_bader_spin_density
 _atom_site_hle17_ddec_charge
 _atom_site_hle17_ddec_spin_density
 _atom_site_hle17_ddec_sum_bond_order
 _atom_site_hle17_magmom
 _atom_site_hse06_10hf_bader_spin_density
 _atom_site_hse06_10hf_ddec_charge
 _atom_site_hse06_10hf_ddec_spin_density
 _atom_site_hse06_10hf_ddec_sum_bond_order
 _atom_site_hse06_10hf_magmom
 _atom_site_hse06_bader_spin_density
 _atom_site_hse06_ddec_charge
 _atom_site_hse06_ddec_spin_density
 _atom_site_hse06_ddec_sum_bond_order
 _atom_site_hse06_magmom
 _atom_site_pbe_bader_spin_density
 _atom_site_pbe_cm5_charge
 _atom_site_pbe_ddec_charge
 _atom_site_pbe_ddec_spin_density
 _atom_site_pbe_ddec_sum_bond_order
 _atom_site_pbe_magmom
Cd  Cd0  1  0.54673436  0.50005662  0.49999190  1  0  1.176873  0  1.622058  0  0  0.974217  0  2.081585  0  0  1.030904  0  2.02722  0  0  0.78794  0.934124  0  2.119142  0
Cd  Cd1  1  0.33519118  0.99989266  0.99999829  1  0  1.154313  0  1.621172  0  0  0.948715  0  2.075404  0  0  1.00671  0  2.022253  0  0  0.780351  0.90748  0  2.112171  0
H  H2  1  0.38233895  0.68271851  0.76253008  1  0  0.134273  0  0.965955  0  0  0.140296  0  1.031321  0  0  0.145039  0  1.026649  0  0  0.110568  0.136895  0  1.034603  0
H  H3  1  0.82767734  0.31733867  0.23748432  1  0  0.135683  0  0.9652  0  0  0.141992  0  1.030053  0  0  0.146573  0  1.025599  0  0  0.111162  0.138569  0  1.033413  0
H  H4  1  0.15023963  0.61732533  0.12356521  1  0  0.094703  0  0.953954  0  0  0.105406  0  1.014982  0  0  0.108858  0  1.012626  0  0  0.103302  0.102865  0  1.016812  0
H  H5  1  0.89140269  0.38273952  0.87641286  1  0  0.094755  0  0.953804  0  0  0.10556  0  1.014629  0  0  0.108935  0  1.012372  0  0  0.102887  0.102977  0  1.01651  0
H  H6  1  0.11394880  0.44016465  0.05606000  1  0  0.116506  0  0.940042  0  0  0.131137  0  0.987933  0  0  0.133626  0  0.987785  0  0  0.113302  0.129316  0  0.988177  0
H  H7  1  0.61034703  0.55976904  0.94384714  1  0  0.115762  0  0.938471  0  0  0.130146  0  0.98685  0  0  0.132628  0  0.986702  0  0  0.112917  0.128328  0  0.987092  0
H  H8  1  0.38379389  0.19502021  0.61385137  1  0  0.047609  0  0.909344  0  0  0.058963  0  0.965787  0  0  0.059636  0  0.966276  0  0  0.109526  0.058481  0  0.965534  0
H  H9  1  0.19250446  0.80492080  0.38611963  1  0  0.048867  0  0.908401  0  0  0.059419  0  0.965261  0  0  0.06013  0  0.965787  0  0  0.110312  0.058958  0  0.964987  0
H  H10  1  0.20578284  0.27061034  0.49785059  1  0  0.116686  0  0.958203  0  0  0.136296  0  1.019091  0  0  0.137407  0  1.020419  0  0  0.092702  0.135487  0  1.018239  0
H  H11  1  0.97412621  0.72936698  0.50220891  1  0  0.116914  0  0.958467  0  0  0.13679  0  1.018933  0  0  0.137906  0  1.020239  0  0  0.093421  0.135983  0  1.018086  0
H  H12  1  0.13481474  0.42964555  0.55770169  1  0  0.115263  0  0.955544  0  0  0.136001  0  1.01492  0  0  0.137704  0  1.014393  0  0  0.093077  0.134721  0  1.015405  0
H  H13  1  0.12201052  0.57032454  0.44239264  1  0  0.115132  0  0.955338  0  0  0.135907  0  1.01467  0  0  0.137608  0  1.014129  0  0  0.092875  0.134612  0  1.015188  0
H  H14  1  0.09116780  0.31626147  0.65201387  1  0  0.121846  0  0.937808  0  0  0.144986  0  0.993604  0  0  0.146625  0  0.993129  0  0  0.097688  0.143702  0  0.994138  0
H  H15  1  0.05920567  0.68367243  0.34807901  1  0  0.123171  0  0.935715  0  0  0.145652  0  0.992251  0  0  0.147279  0  0.991777  0  0  0.097767  0.144397  0  0.992735  0
H  H16  1  0.04668818  0.18195288  0.26649037  1  0  0.133638  0  0.972073  0  0  0.139751  0  1.037012  0  0  0.144385  0  1.032585  0  0  0.108748  0.136411  0  1.040219  0
H  H17  1  0.49524619  0.81801322  0.73358409  1  0  0.132854  0  0.971468  0  0  0.138926  0  1.036399  0  0  0.1435  0  1.032055  0  0  0.108955  0.135632  0  1.03952  0
H  H18  1  0.00771557  0.12337401  0.62412958  1  0  0.093476  0  0.956093  0  0  0.103784  0  1.016953  0  0  0.107403  0  1.0145  0  0  0.10021  0.101165  0  1.018739  0
H  H19  1  0.75525857  0.87659605  0.37593457  1  0  0.093353  0  0.956466  0  0  0.103826  0  1.017131  0  0  0.107472  0  1.014664  0  0  0.100259  0.101142  0  1.019068  0
H  H20  1  0.29399064  0.95113334  0.55033900  1  0  0.114874  0  0.950526  0  0  0.125202  0  1.007737  0  0  0.128157  0  1.00693  0  0  0.105702  0.122983  0  1.00857  0
H  H21  1  0.79522473  0.04898279  0.44970394  1  0  0.115416  0  0.948315  0  0  0.125171  0  1.006384  0  0  0.12812  0  1.005559  0  0  0.106099  0.122955  0  1.007242  0
H  H22  1  0.71971733  0.90034261  0.04157518  1  0  0.052569  0  0.882388  0  0  0.069007  0  0.930831  0  0  0.069551  0  0.930422  0  0  0.11645  0.068606  0  0.93113  0
H  H23  1  0.66211210  0.09957682  0.95827889  1  0  0.053677  0  0.880902  0  0  0.069217  0  0.929836  0  0  0.069748  0  0.929441  0  0  0.116932  0.068807  0  0.930165  0
H  H24  1  0.90378799  0.67239223  0.02391802  1  0  0.116731  0  0.970976  0  0  0.136935  0  1.030416  0  0  0.13805  0  1.031789  0  0  0.090746  0.136066  0  1.029575  0
H  H25  1  0.60054075  0.32754567  0.97590128  1  0  0.116425  0  0.971822  0  0  0.137006  0  1.030915  0  0  0.138151  0  1.032256  0  0  0.090856  0.136134  0  1.030061  0
H  H26  1  0.74767601  0.65163252  0.14909399  1  0  0.116708  0  0.964807  0  0  0.135095  0  1.028144  0  0  0.136057  0  1.0299  0  0  0.090777  0.134311  0  1.027007  0
H  H27  1  0.54873207  0.34831197  0.85078492  1  0  0.115391  0  0.965636  0  0  0.134136  0  1.028727  0  0  0.135095  0  1.030497  0  0  0.090503  0.133337  0  1.027599  0
H  H28  1  0.83480746  0.75133871  0.16559749  1  0  0.123418  0  0.933864  0  0  0.14557  0  0.99017  0  0  0.147206  0  0.989488  0  0  0.098026  0.144299  0  0.990768  0
H  H29  1  0.75212072  0.24859786  0.83421288  1  0  0.123109  0  0.934726  0  0  0.145253  0  0.991201  0  0  0.146943  0  0.990455  0  0  0.09759  0.143949  0  0.991817  0
H  H30  1  0.49110245  0.24698645  0.41954378  1  0  0.38096  0  0.825681  0  0  0.375177  0  0.867519  0  0  0.382276  0  0.860595  0  0  0.335876  0.370107  0  0.872583  0
H  H31  1  0.15760072  0.75308326  0.58040110  1  0  0.382495  0  0.824226  0  0  0.376583  0  0.86621  0  0  0.383708  0  0.859241  0  0  0.335923  0.37155  0  0.871177  0
H  H32  1  0.63856618  0.71235425  0.99265253  1  0  0.349251  0  0.901377  0  0  0.330864  0  0.970364  0  0  0.33873  0  0.961605  0  0  0.297648  0.325307  0  0.976565  0
H  H33  1  0.34389822  0.28755579  0.00732232  1  0  0.348293  0  0.90397  0  0  0.330002  0  0.972876  0  0  0.337871  0  0.964116  0  0  0.297127  0.324425  0  0.979116  0
H  H34  1  0.19342328  0.29924138  0.83646345  1  0  0.326021  0  0.951428  0  0  0.302177  0  1.020881  0  0  0.311787  0  1.013407  0  0  0.301051  0.295379  0  1.026253  0
H  H35  1  0.32908171  0.70071373  0.16349265  1  0  0.327061  0  0.951743  0  0  0.302933  0  1.02151  0  0  0.312523  0  1.014048  0  0  0.301441  0.296159  0  1.02681  0
H  H36  1  0.56902285  0.81765952  0.32902506  1  0  0.322808  0  0.945044  0  0  0.298529  0  1.015749  0  0  0.308163  0  1.008429  0  0  0.30097  0.291744  0  1.020946  0
H  H37  1  0.71555483  0.18241927  0.67103647  1  0  0.324932  0  0.944006  0  0  0.300374  0  1.015153  0  0  0.310019  0  1.007746  0  0  0.301384  0.293593  0  1.020364  0
C  C38  1  0.31358327  0.52654578  0.78696419  1  0  0.145839  0  3.822011  0  0  0.14634  0  4.069514  0  0  0.148477  0  4.092835  0  0  0.087112  0.144689  0  4.053769  0
C  C39  1  0.62715583  0.47348639  0.21300929  1  0  0.145367  0  3.823551  0  0  0.145363  0  4.071056  0  0  0.147498  0  4.094365  0  0  0.086663  0.143744  0  4.05529  0
C  C40  1  0.32588119  0.62948132  0.82562608  1  0  -0.120105  0  3.667211  0  0  -0.151137  0  3.913187  0  0  -0.149539  0  3.929597  0  0  -0.078782  -0.151868  0  3.902021  0
C  C41  1  0.78110741  0.37059340  0.17437022  1  0  -0.121339  0  3.667576  0  0  -0.1526  0  3.914003  0  0  -0.150883  0  3.930491  0  0  -0.07966  -0.153362  0  3.902922  0
C  C42  1  0.26458141  0.66137851  0.94814724  1  0  -0.086788  0  3.775087  0  0  -0.066642  0  4.020652  0  0  -0.077105  0  4.046993  0  0  -0.030555  -0.059841  0  4.00298  0
C  C43  1  0.87433907  0.33868699  0.05186397  1  0  -0.089364  0  3.777625  0  0  -0.069603  0  4.023954  0  0  -0.080079  0  4.050222  0  0  -0.030735  -0.062764  0  4.006253  0
C  C44  1  0.19637679  0.58915556  0.02921873  1  0  -0.060128  0  3.761236  0  0  -0.090764  0  4.021317  0  0  -0.089638  0  4.042353  0  0  -0.088382  -0.091411  0  4.007082  0
C  C45  1  0.81498978  0.41091552  0.97076788  1  0  -0.060176  0  3.760128  0  0  -0.090805  0  4.020229  0  0  -0.089618  0  4.041291  0  0  -0.088121  -0.091422  0  4.006003  0
C  C46  1  0.17855389  0.48847783  0.99200718  1  0  -0.195023  0  3.797519  0  0  -0.205468  0  4.049932  0  0  -0.210478  0  4.069171  0  0  -0.10098  -0.201998  0  4.036782  0
C  C47  1  0.65918731  0.51151424  0.00794963  1  0  -0.191965  0  3.793597  0  0  -0.202569  0  4.045765  0  0  -0.207558  0  4.064982  0  0  -0.099895  -0.199156  0  4.032661  0
C  C48  1  0.23646644  0.45917055  0.86965149  1  0  0.156677  0  3.818479  0  0  0.143129  0  4.071177  0  0  0.149282  0  4.092388  0  0  0.093191  0.139043  0  4.056913  0
C  C49  1  0.56534704  0.54085076  0.13029951  1  0  0.155845  0  3.819635  0  0  0.143466  0  4.070401  0  0  0.14961  0  4.091623  0  0  0.093294  0.139333  0  4.056157  0
C  C50  1  0.31981448  0.37763258  0.68682771  1  0  0.364739  0  3.653834  0  0  0.335037  0  3.919989  0  0  0.353033  0  3.932372  0  0  0.240117  0.323278  0  3.911082  0
C  C51  1  0.38420997  0.62232566  0.31311701  1  0  0.362757  0  3.657288  0  0  0.330846  0  3.925986  0  0  0.348853  0  3.938436  0  0  0.236668  0.319011  0  3.917065  0
C  C52  1  0.34403371  0.29229390  0.58933124  1  0  0.212353  0  3.666901  0  0  0.190647  0  3.929542  0  0  0.195579  0  3.937431  0  0  0.011198  0.187107  0  3.92405  0
C  C53  1  0.22556002  0.70763993  0.41062333  1  0  0.21071  0  3.668581  0  0  0.190805  0  3.92999  0  0  0.195516  0  3.938333  0  0  0.011099  0.187282  0  3.924446  0
C  C54  1  0.18403739  0.33022102  0.57308020  1  0  -0.357389  0  3.674556  0  0  -0.438497  0  3.910232  0  0  -0.441414  0  3.918519  0  0  -0.242812  -0.436263  0  3.904598  0
C  C55  1  0.08720732  0.66972956  0.42696796  1  0  -0.357374  0  3.674625  0  0  -0.438257  0  3.910066  0  0  -0.441107  0  3.91837  0  0  -0.242388  -0.436023  0  3.904406  0
C  C56  1  0.26637322  0.77656288  0.99344438  1  0  0.633137  0  3.935672  0  0  0.583897  0  4.229146  0  0  0.6183  0  4.222921  0  0  0.194782  0.560586  0  4.232598  0
C  C57  1  0.03664605  0.22349378  0.00661665  1  0  0.633056  0  3.939032  0  0  0.584011  0  4.232403  0  0  0.618447  0  4.226149  0  0  0.196898  0.560639  0  4.235898  0
C  C58  1  0.25780537  0.03394023  0.28615376  1  0  0.148815  0  3.827925  0  0  0.148295  0  4.075323  0  0  0.15086  0  4.098709  0  0  0.084901  0.146261  0  4.05968  0
C  C59  1  0.57792592  0.96605167  0.71390686  1  0  0.149636  0  3.82325  0  0  0.148564  0  4.071037  0  0  0.151129  0  4.094415  0  0  0.084143  0.146574  0  4.055324  0
C  C60  1  0.09922941  0.13151878  0.32773241  1  0  -0.125826  0  3.684872  0  0  -0.156153  0  3.929953  0  0  -0.154887  0  3.946342  0  0  -0.083075  -0.156774  0  3.918874  0
C  C61  1  0.55854775  0.86847929  0.67232744  1  0  -0.126099  0  3.683455  0  0  -0.156011  0  3.929351  0  0  -0.154719  0  3.945698  0  0  -0.082908  -0.156603  0  3.918165  0
C  C62  1  0.01155712  0.16317809  0.45030481  1  0  -0.091042  0  3.795292  0  0  -0.070438  0  4.038864  0  0  -0.080238  0  4.064701  0  0  -0.03277  -0.063938  0  4.021297  0
C  C63  1  0.62508362  0.83682104  0.54975930  1  0  -0.08943  0  3.792658  0  0  -0.069983  0  4.037544  0  0  -0.079715  0  4.06329  0  0  -0.03315  -0.063497  0  4.019969  0
C  C64  1  0.08047364  0.09548300  0.52927578  1  0  -0.087374  0  3.791717  0  0  -0.115837  0  4.052868  0  0  -0.115841  0  4.074654  0  0  -0.097046  -0.115613  0  4.037711  0
C  C65  1  0.70521045  0.90455018  0.47078376  1  0  -0.08899  0  3.790121  0  0  -0.117218  0  4.051456  0  0  -0.117288  0  4.07325  0  0  -0.097322  -0.116931  0  4.036418  0
C  C66  1  0.23980744  0.99974456  0.48914258  1  0  -0.168154  0  3.779883  0  0  -0.185499  0  4.040429  0  0  -0.189568  0  4.060222  0  0  -0.102481  -0.182681  0  4.026986  0
C  C67  1  0.72855681  0.00033324  0.51091430  1  0  -0.167016  0  3.776101  0  0  -0.184203  0  4.036698  0  0  -0.188246  0  4.056482  0  0  -0.102279  -0.181451  0  4.023306  0
C  C68  1  0.32844979  0.97132369  0.36618274  1  0  0.156545  0  3.804811  0  0  0.14294  0  4.059162  0  0  0.148502  0  4.080722  0  0  0.090905  0.139208  0  4.044658  0
C  C69  1  0.66583482  0.02875941  0.63387710  1  0  0.156181  0  3.79974  0  0  0.143561  0  4.05278  0  0  0.149117  0  4.074322  0  0  0.091941  0.139851  0  4.038282  0
C  C70  1  0.50899497  0.89871063  0.18125464  1  0  0.329612  0  3.681184  0  0  0.294108  0  3.956735  0  0  0.311959  0  3.969499  0  0  0.224421  0.28229  0  3.947729  0
C  C71  1  0.58903961  0.10128882  0.81878753  1  0  0.327867  0  3.685712  0  0  0.293705  0  3.959008  0  0  0.31155  0  3.97176  0  0  0.224311  0.282056  0  3.949764  0
C  C72  1  0.66942577  0.83048471  0.07635197  1  0  0.215303  0  3.682207  0  0  0.193786  0  3.946355  0  0  0.199238  0  3.953577  0  0  0.007903  0.189909  0  3.941268  0
C  C73  1  0.57660494  0.16947443  0.92359550  1  0  0.212819  0  3.683507  0  0  0.19243  0  3.945686  0  0  0.197879  0  3.952904  0  0  0.006559  0.188518  0  3.940647  0
C  C74  1  0.79554029  0.71994575  0.10595482  1  0  -0.369073  0  3.693384  0  0  -0.450213  0  3.933901  0  0  -0.453473  0  3.942927  0  0  -0.253225  -0.447584  0  3.927608  0
C  C75  1  0.62181776  0.27998135  0.89389517  1  0  -0.364659  0  3.695288  0  0  -0.446668  0  3.934834  0  0  -0.449981  0  3.943874  0  0  -0.250717  -0.444  0  3.928583  0
C  C76  1  0.84560357  0.27456444  0.49797987  1  0  0.638941  0  3.929262  0  0  0.589776  0  4.222672  0  0  0.624342  0  4.216021  0  0  0.197194  0.566065  0  4.227199  0
C  C77  1  0.61817477  0.72545144  0.50207371  1  0  0.638538  0  3.92959  0  0  0.590078  0  4.22257  0  0  0.624626  0  4.215895  0  0  0.19796  0.566412  0  4.227081  0
N  N78  1  0.36477209  0.47207507  0.67292980  1  0  -0.473175  0  3.137002  0  0  -0.409211  0  3.413918  0  0  -0.431762  0  3.426289  0  0  -0.351908  -0.393682  0  3.40506  0
N  N79  1  0.50975047  0.52794629  0.32703691  1  0  -0.470254  0  3.135703  0  0  -0.405335  0  3.412877  0  0  -0.427867  0  3.425285  0  0  -0.350342  -0.38985  0  3.404029  0
N  N80  1  0.24169837  0.36674717  0.80283479  1  0  -0.391768  0  3.334863  0  0  -0.335877  0  3.571741  0  0  -0.35596  0  3.584208  0  0  -0.375244  -0.322336  0  3.563175  0
N  N81  1  0.41126227  0.63323729  0.19710455  1  0  -0.393243  0  3.3381  0  0  -0.336766  0  3.575126  0  0  -0.356795  0  3.587534  0  0  -0.374952  -0.323186  0  3.566536  0
N  N82  1  0.37409579  0.98462178  0.17123804  1  0  -0.472353  0  3.169438  0  0  -0.404932  0  3.449204  0  0  -0.428384  0  3.46289  0  0  -0.354538  -0.388791  0  3.439562  0
N  N83  1  0.53009669  0.01534871  0.82881549  1  0  -0.470577  0  3.169972  0  0  -0.403491  0  3.449219  0  0  -0.426972  0  3.462982  0  0  -0.353201  -0.387236  0  3.439273  0
N  N84  1  0.48744705  0.88705905  0.29645598  1  0  -0.379549  0  3.335275  0  0  -0.318489  0  3.568446  0  0  -0.338116  0  3.581073  0  0  -0.371149  -0.305241  0  3.559789  0
N  N85  1  0.67084814  0.11301959  0.70358027  1  0  -0.381193  0  3.333776  0  0  -0.320849  0  3.566695  0  0  -0.340467  0  3.579272  0  0  -0.372391  -0.307617  0  3.557917  0
O  O86  1  0.47285918  0.30030256  0.48539768  1  0  -0.560249  0  2.063974  0  0  -0.519325  0  2.286546  0  0  -0.534447  0  2.275203  0  0  -0.386618  -0.508424  0  2.294415  0
O  O87  1  0.25847498  0.69966278  0.51455475  1  0  -0.56257  0  2.062366  0  0  -0.521715  0  2.284461  0  0  -0.536795  0  2.27317  0  0  -0.387442  -0.510795  0  2.29223  0
O  O88  1  0.31051346  0.84686293  0.91673774  1  0  -0.628999  0  2.01137  0  0  -0.55838  0  2.256027  0  0  -0.588435  0  2.244578  0  0  -0.325064  -0.53748  0  2.263376  0
O  O89  1  0.07427671  0.15317635  0.08332683  1  0  -0.628476  0  2.012509  0  0  -0.557865  0  2.257199  0  0  -0.587912  0  2.245691  0  0  -0.325499  -0.536978  0  2.264604  0
O  O90  1  0.22491723  0.80001098  0.10374063  1  0  -0.646  0  1.965292  0  0  -0.597255  0  2.186546  0  0  -0.620673  0  2.175994  0  0  -0.342751  -0.580829  0  2.193352  0
O  O91  1  0.12899477  0.20003178  0.89631366  1  0  -0.645765  0  1.967061  0  0  -0.597197  0  2.18836  0  0  -0.620637  0  2.177795  0  0  -0.344454  -0.58072  0  2.195183  0
O  O92  1  0.63893217  0.79564461  0.98161353  1  0  -0.552588  0  2.024691  0  0  -0.509871  0  2.238997  0  0  -0.524179  0  2.227715  0  0  -0.398901  -0.499557  0  2.246446  0
O  O93  1  0.41662704  0.20437854  0.01849882  1  0  -0.552125  0  2.025584  0  0  -0.509897  0  2.239154  0  0  -0.524188  0  2.227868  0  0  -0.39906  -0.499702  0  2.246876  0
O  O94  1  0.80416272  0.34522228  0.42233610  1  0  -0.640689  0  2.011637  0  0  -0.569737  0  2.259471  0  0  -0.599987  0  2.247452  0  0  -0.330529  -0.548702  0  2.267467  0
O  O95  1  0.57186856  0.65473007  0.57768934  1  0  -0.640529  0  2.011818  0  0  -0.569933  0  2.259745  0  0  -0.600201  0  2.247718  0  0  -0.330856  -0.548905  0  2.267706  0
O  O96  1  0.75617306  0.29460252  0.60834618  1  0  -0.639436  0  1.976926  0  0  -0.591308  0  2.203231  0  0  -0.615321  0  2.194238  0  0  -0.335493  -0.574552  0  2.209342  0
O  O97  1  0.65907413  0.70544413  0.39171982  1  0  -0.639702  0  1.977782  0  0  -0.591784  0  2.203778  0  0  -0.615806  0  2.194784  0  0  -0.336656  -0.575052  0  2.209902  0
