# generated using pymatgen
data_Pr2H16C28N4O17
_symmetry_space_group_name_H-M   'P 1'
_cell_length_a   10.53403749
_cell_length_b   12.19284972
_cell_length_c   12.68900000
_cell_angle_alpha   109.83919807
_cell_angle_beta   100.69034602
_cell_angle_gamma   90.67769621
_symmetry_Int_Tables_number   1
_chemical_formula_structural   Pr2H16C28N4O17
_chemical_formula_sum   'Pr4 H32 C56 N8 O34'
_cell_volume   1501.49934667
_cell_formula_units_Z   2
loop_
 _symmetry_equiv_pos_site_id
 _symmetry_equiv_pos_as_xyz
  1  'x, y, z'
loop_
 _atom_site_type_symbol
 _atom_site_label
 _atom_site_symmetry_multiplicity
 _atom_site_fract_x
 _atom_site_fract_y
 _atom_site_fract_z
 _atom_site_occupancy
 _atom_site_hle17_bader_spin_density
 _atom_site_hle17_ddec_charge
 _atom_site_hle17_ddec_spin_density
 _atom_site_hle17_ddec_sum_bond_order
 _atom_site_hle17_magmom
 _atom_site_hse06_10hf_bader_spin_density
 _atom_site_hse06_10hf_ddec_charge
 _atom_site_hse06_10hf_ddec_spin_density
 _atom_site_hse06_10hf_ddec_sum_bond_order
 _atom_site_hse06_10hf_magmom
 _atom_site_hse06_bader_spin_density
 _atom_site_hse06_ddec_charge
 _atom_site_hse06_ddec_spin_density
 _atom_site_hse06_ddec_sum_bond_order
 _atom_site_hse06_magmom
 _atom_site_pbe_bader_charge
 _atom_site_pbe_bader_spin_density
 _atom_site_pbe_cm5_charge
 _atom_site_pbe_ddec_charge
 _atom_site_pbe_ddec_spin_density
 _atom_site_pbe_ddec_sum_bond_order
 _atom_site_pbe_magmom
Pr  Pr0  1  0.99051178  0.32372661  0.89096415  1  0  2.31518  0  1.658471  0  0  2.147471  0  2.128329  0  0  2.232313  0  2.000335  0  2.272803  0  1.495736  2.113023  0  2.166886  0
Pr  Pr1  1  0.00949199  0.67627423  0.10903694  1  0  2.315181  0  1.658496  0  0  2.14746  0  2.128349  0  0  2.232298  0  2.000358  0  2.272798  0  1.495736  2.113022  0  2.166891  0
Pr  Pr2  1  0.14411693  0.05955689  0.64478157  1  0  2.281727  0  1.63224  0  0  2.104264  0  2.104584  0  0  2.146891  0  2.059202  0  2.24871  0  1.492688  2.071722  0  2.140014  0
Pr  Pr3  1  0.85588081  0.94044132  0.35521616  1  0  2.281706  0  1.632204  0  0  2.10422  0  2.104574  0  0  2.146841  0  2.059209  0  2.248715  0  1.492672  2.071678  0  2.140003  0
H  H4  1  0.65756979  0.22711101  0.89148573  1  0  0.068082  0  0.984435  0  0  0.076064  0  1.05312  0  0  0.078412  0  1.051203  0  0.08774  0  0.11137  0.074171  0  1.054954  0
H  H5  1  0.34242938  0.77289246  0.10852024  1  0  0.068032  0  0.98451  0  0  0.076024  0  1.053187  0  0  0.078368  0  1.051274  0  0.087688  0  0.111389  0.074135  0  1.055024  0
H  H6  1  0.86463775  0.86481580  0.87328151  1  0  0.119712  0  0.959992  0  0  0.126745  0  1.024626  0  0  0.130254  0  1.022791  0  0.134411  0  0.1141  0.124146  0  1.02613  0
H  H7  1  0.13535909  0.13518329  0.12671480  1  0  0.119689  0  0.96006  0  0  0.126722  0  1.02468  0  0  0.13023  0  1.022845  0  0.134371  0  0.114109  0.124128  0  1.026179  0
H  H8  1  0.62602177  0.86926225  0.87854953  1  0  0.101303  0  0.962973  0  0  0.112414  0  1.020563  0  0  0.115448  0  1.017985  0  0.098463  0  0.108158  0.110088  0  1.022659  0
H  H9  1  0.37397411  0.13073684  0.12144898  1  0  0.101341  0  0.962966  0  0  0.112396  0  1.020615  0  0  0.115429  0  1.018037  0  0.098521  0  0.108133  0.110058  0  1.022724  0
H  H10  1  0.52098568  0.05524341  0.89002473  1  0  0.11897  0  0.93434  0  0  0.129005  0  0.991593  0  0  0.132624  0  0.989574  0  0.135982  0  0.113862  0.12659  0  0.992834  0
H  H11  1  0.47901430  0.94475831  0.10997842  1  0  0.119067  0  0.93428  0  0  0.129067  0  0.991566  0  0  0.132687  0  0.989545  0  0.135721  0  0.113854  0.12665  0  0.992808  0
H  H12  1  0.30115664  0.88766127  0.74842618  1  0  0.431841  0  0.833791  0  0  0.401354  0  0.911279  0  0  0.411068  0  0.896705  0  0.637528  0  0.312202  0.39439  0  0.921739  0
H  H13  1  0.69884110  0.11233695  0.25157155  1  0  0.431732  0  0.833905  0  0  0.401238  0  0.911433  0  0  0.410953  0  0.896859  0  0.637076  0  0.312149  0.394275  0  0.921894  0
H  H14  1  0.21222042  0.96122583  0.82852266  1  0  0.429241  0  0.877497  0  0  0.394438  0  0.947309  0  0  0.406952  0  0.928975  0  0.652429  0  0.295284  0.385756  0  0.959993  0
H  H15  1  0.78777828  0.03877238  0.17147601  1  0  0.429203  0  0.877559  0  0  0.394371  0  0.947411  0  0  0.406885  0  0.929078  0  0.65243  0  0.295257  0.385689  0  0.960096  0
H  H16  1  0.21217154  0.51405096  0.79970497  1  0  0.133998  0  0.942154  0  0  0.136923  0  1.012038  0  0  0.141209  0  1.008282  0  0.148934  0  0.124115  0.133572  0  1.015232  0
H  H17  1  0.78783295  0.48594726  0.20029301  1  0  0.134135  0  0.941941  0  0  0.136904  0  1.012  0  0  0.141187  0  1.008243  0  0.148889  0  0.124133  0.133576  0  1.015162  0
H  H18  1  0.54085005  0.31671884  0.83981503  1  0  0.105424  0  0.975203  0  0  0.112371  0  1.043801  0  0  0.116512  0  1.039571  0  0.12153  0  0.110771  0.109322  0  1.046928  0
H  H19  1  0.45915243  0.68327851  0.16018078  1  0  0.105471  0  0.975154  0  0  0.112386  0  1.043784  0  0  0.116557  0  1.039501  0  0.121558  0  0.110768  0.10934  0  1.046902  0
H  H20  1  0.59746144  0.68959959  0.92799014  1  0  0.135871  0  0.923056  0  0  0.142383  0  0.983901  0  0  0.147568  0  0.978608  0  0.155289  0  0.125249  0.138535  0  0.987697  0
H  H21  1  0.40254217  0.31039951  0.07201193  1  0  0.135855  0  0.923051  0  0  0.14236  0  0.983924  0  0  0.147562  0  0.97861  0  0.155266  0  0.125261  0.138514  0  0.987721  0
H  H22  1  0.63882298  0.29354708  0.66957318  1  0  0.11819  0  0.948459  0  0  0.127221  0  1.009973  0  0  0.130194  0  1.009371  0  0.134987  0  0.114228  0.125081  0  1.010472  0
H  H23  1  0.36117893  0.70645463  0.33042397  1  0  0.118155  0  0.948438  0  0  0.127185  0  1.00996  0  0  0.130148  0  1.009372  0  0.13498  0  0.114221  0.125055  0  1.010444  0
H  H24  1  0.40541993  0.25980112  0.56034008  1  0  0.101593  0  0.944243  0  0  0.111814  0  1.003934  0  0  0.114178  0  1.002516  0  0.118034  0  0.112235  0.109995  0  1.005135  0
H  H25  1  0.59458101  0.74020059  0.43965850  1  0  0.101591  0  0.944232  0  0  0.111809  0  1.003935  0  0  0.114175  0  1.002515  0  0.118038  0  0.11224  0.109988  0  1.005139  0
H  H26  1  0.52058730  0.96057938  0.30875018  1  0  0.081542  0  0.965471  0  0  0.087881  0  1.034367  0  0  0.090211  0  1.03281  0  0.129982  0  0.121257  0.086287  0  1.035318  0
H  H27  1  0.47941172  0.03942234  0.69124731  1  0  0.081583  0  0.965481  0  0  0.087883  0  1.034413  0  0  0.09021  0  1.032857  0  0.130095  0  0.121276  0.08629  0  1.035364  0
H  H28  1  0.34733634  0.09065493  0.37623484  1  0  0.109492  0  0.940689  0  0  0.119191  0  0.998586  0  0  0.121459  0  0.999703  0  0.098789  0  0.112092  0.11748  0  0.998107  0
H  H29  1  0.65266163  0.90934591  0.62376536  1  0  0.109471  0  0.940719  0  0  0.119147  0  0.998644  0  0  0.121413  0  0.999765  0  0.098803  0  0.112091  0.117437  0  0.998165  0
H  H30  1  0.22040717  0.39351218  0.57594976  1  0  0.123147  0  0.945834  0  0  0.12854  0  1.01454  0  0  0.132324  0  1.011209  0  0.100409  0  0.116104  0.125821  0  1.016868  0
H  H31  1  0.77959048  0.60648517  0.42405161  1  0  0.123149  0  0.94586  0  0  0.128535  0  1.014567  0  0  0.13232  0  1.011237  0  0.100444  0  0.116111  0.125817  0  1.016895  0
H  H32  1  0.13089104  0.58265384  0.34174157  1  0  0.133982  0  0.964693  0  0  0.136937  0  1.035328  0  0  0.141317  0  1.032009  0  0.150497  0  0.120614  0.133668  0  1.038054  0
H  H33  1  0.86910878  0.41734613  0.65826257  1  0  0.133997  0  0.964646  0  0  0.136956  0  1.035284  0  0  0.141338  0  1.031963  0  0.150455  0  0.120631  0.133687  0  1.03801  0
H  H34  1  0.99766434  0.21797230  0.23593320  1  0  0.133254  0  0.958279  0  0  0.134289  0  1.031334  0  0  0.139156  0  1.026478  0  0.174413  0  0.118676  0.130825  0  1.034623  0
H  H35  1  0.00233363  0.78202855  0.76406463  1  0  0.133306  0  0.958292  0  0  0.134332  0  1.031368  0  0  0.139198  0  1.026513  0  0.174422  0  0.118666  0.130865  0  1.034652  0
C  C36  1  0.69741677  0.14351022  0.88414012  1  0  0.132172  0  3.711352  0  0  0.101031  0  3.975375  0  0  0.10516  0  3.995472  0  0.48069  0  0.047048  0.098154  0  3.962989  0
C  C37  1  0.30258216  0.85649063  0.11586417  1  0  0.132204  0  3.711435  0  0  0.101043  0  3.975461  0  0  0.105171  0  3.995564  0  0.480893  0  0.046939  0.098158  0  3.963082  0
C  C38  1  0.87833258  0.04006179  0.87073091  1  0  0.107041  0  3.744066  0  0  0.110407  0  3.990139  0  0  0.110607  0  4.009858  0  0.490193  0  0.11979  0.109963  0  3.978109  0
C  C39  1  0.12166435  0.95993817  0.12926647  1  0  0.107097  0  3.744015  0  0  0.110375  0  3.990166  0  0  0.11057  0  4.009892  0  0.489723  0  0.119762  0.10993  0  3.978136  0
C  C40  1  0.81226695  0.94123212  0.87298726  1  0  -0.090272  0  3.677865  0  0  -0.114207  0  3.927205  0  0  -0.117671  0  3.94672  0  -0.001347  0  -0.06733  -0.111785  0  3.913899  0
C  C41  1  0.18773006  0.05876873  0.12701042  1  0  -0.090288  0  3.677941  0  0  -0.114176  0  3.927258  0  0  -0.117637  0  3.946772  0  -0.001328  0  -0.067307  -0.111757  0  3.913944  0
C  C42  1  0.68152142  0.94488078  0.87806266  1  0  -0.005723  0  3.695515  0  0  -0.022619  0  3.941948  0  0  -0.021068  0  3.959994  0  0.004844  0  -0.065031  -0.023293  0  3.929401  0
C  C43  1  0.31847550  0.05511919  0.12193709  1  0  -0.005674  0  3.695651  0  0  -0.022535  0  3.942048  0  0  -0.020984  0  3.960093  0  0.004907  0  -0.065034  -0.0232  0  3.929503  0
C  C44  1  0.62289435  0.04834410  0.88470025  1  0  -0.099121  0  3.6961  0  0  -0.114231  0  3.950646  0  0  -0.118606  0  3.970278  0  -0.079978  0  -0.075755  -0.111281  0  3.936822  0
C  C45  1  0.37710273  0.95165761  0.11530246  1  0  -0.099274  0  3.69617  0  0  -0.114345  0  3.950695  0  0  -0.118724  0  3.97033  0  -0.079791  0  -0.07569  -0.111394  0  3.93687  0
C  C46  1  0.28432763  0.29151499  0.77567694  1  0  0.676404  0  3.897098  0  0  0.629267  0  4.186585  0  0  0.664531  0  4.177546  0  1.540881  0  0.213946  0.605466  0  4.192639  0
C  C47  1  0.71567293  0.70848235  0.22431778  1  0  0.6765  0  3.897119  0  0  0.629366  0  4.186598  0  0  0.664629  0  4.177559  0  1.540657  0  0.213997  0.605565  0  4.192654  0
C  C48  1  0.83604874  0.16252944  0.60446318  1  0  0.705684  0  3.846779  0  0  0.652539  0  4.143954  0  0  0.688406  0  4.131148  0  1.6073  0  0.251068  0.628165  0  4.15272  0
C  C49  1  0.16395004  0.83746965  0.39553578  1  0  0.705664  0  3.846758  0  0  0.652522  0  4.143886  0  0  0.688395  0  4.131078  0  1.607406  0  0.251063  0.628146  0  4.152655  0
C  C50  1  0.69683852  0.14565952  0.54380944  1  0  0.096648  0  3.768505  0  0  0.103824  0  4.007238  0  0  0.103918  0  4.026464  0  0.519324  0  0.118273  0.103779  0  3.994003  0
C  C51  1  0.30316049  0.85434219  0.45618884  1  0  0.096609  0  3.768646  0  0  0.103855  0  4.007281  0  0  0.103931  0  4.026534  0  0.519154  0  0.118289  0.103809  0  3.994048  0
C  C52  1  0.31613763  0.50981008  0.82346875  1  0  -0.062287  0  3.640003  0  0  -0.104814  0  3.900856  0  0  -0.099407  0  3.915382  0  0.010788  0  -0.055863  -0.107976  0  3.891313  0
C  C53  1  0.68386597  0.49018901  0.17652780  1  0  -0.062443  0  3.640059  0  0  -0.104831  0  3.900938  0  0  -0.09942  0  3.915458  0  0.010401  0  -0.055876  -0.108013  0  3.891382  0
C  C54  1  0.36822677  0.40383795  0.81743679  1  0  -0.053695  0  3.721446  0  0  -0.026522  0  3.955384  0  0  -0.037233  0  3.978066  0  -0.000776  0  -0.004342  -0.019839  0  3.940356  0
C  C55  1  0.63177684  0.59616114  0.18255898  1  0  -0.053618  0  3.721412  0  0  -0.026438  0  3.955285  0  0  -0.037147  0  3.977968  0  -0.00044  0  -0.004305  -0.019755  0  3.940264  0
C  C56  1  0.50249371  0.40082612  0.84827016  1  0  -0.035262  0  3.658851  0  0  -0.077116  0  3.907555  0  0  -0.072641  0  3.925725  0  -0.006783  0  -0.059902  -0.079945  0  3.895487  0
C  C57  1  0.49750982  0.59917210  0.15172610  1  0  -0.035414  0  3.65873  0  0  -0.077256  0  3.907474  0  0  -0.072794  0  3.925635  0  -0.006758  0  -0.059955  -0.080086  0  3.895407  0
C  C58  1  0.58580192  0.50269908  0.89072533  1  0  -0.064477  0  3.72625  0  0  -0.036131  0  3.958116  0  0  -0.046939  0  3.98193  0  -0.078567  0  -0.009253  -0.029215  0  3.941549  0
C  C59  1  0.41420153  0.49729826  0.10927220  1  0  -0.06448  0  3.726155  0  0  -0.036131  0  3.958064  0  0  -0.046943  0  3.98189  0  -0.078402  0  -0.009262  -0.029215  0  3.941499  0
C  C60  1  0.40135033  0.60984428  0.85969669  1  0  0.072132  0  3.712232  0  0  0.060429  0  3.971075  0  0  0.055616  0  3.992502  0  0.283956  0  0.079543  0.063156  0  3.956425  0
C  C61  1  0.59865231  0.39015481  0.14030286  1  0  0.072031  0  3.712302  0  0  0.0604  0  3.971128  0  0  0.055589  0  3.992553  0  0.283949  0  0.079512  0.063127  0  3.956483  0
C  C62  1  0.72906144  0.49942220  0.93263250  1  0  0.700967  0  3.887921  0  0  0.653559  0  4.180699  0  0  0.688058  0  4.174988  0  1.620547  0  0.229054  0.630109  0  4.185683  0
C  C63  1  0.27094217  0.50057689  0.06736800  1  0  0.700955  0  3.887956  0  0  0.653557  0  4.180725  0  0  0.688055  0  4.175018  0  1.620559  0  0.229045  0.630106  0  4.18571  0
C  C64  1  0.53431697  0.60918208  0.89612168  1  0  -0.064624  0  3.647526  0  0  -0.103868  0  3.899109  0  0  -0.099096  0  3.913902  0  -0.03019  0  -0.057138  -0.105833  0  3.888245  0
C  C65  1  0.46568559  0.39081614  0.10387759  1  0  -0.064497  0  3.647395  0  0  -0.103785  0  3.899044  0  0  -0.099024  0  3.913824  0  -0.030354  0  -0.05711  -0.10575  0  3.888178  0
C  C66  1  0.60685504  0.22187464  0.58871256  1  0  -0.105258  0  3.672459  0  0  -0.129269  0  3.918927  0  0  -0.134478  0  3.940144  0  -0.017229  0  -0.070644  -0.125936  0  3.904591  0
C  C67  1  0.39314494  0.77812708  0.41128665  1  0  -0.105191  0  3.672411  0  0  -0.129221  0  3.918875  0  0  -0.13442  0  3.940103  0  -0.017198  0  -0.070658  -0.125894  0  3.904538  0
C  C68  1  0.47919811  0.20333479  0.52810813  1  0  0.01407  0  3.677735  0  0  -0.003778  0  3.928336  0  0  -0.000607  0  3.945539  0  -0.094265  0  -0.054921  -0.005647  0  3.916667  0
C  C69  1  0.52080284  0.79666693  0.47189202  1  0  0.01402  0  3.677797  0  0  -0.003832  0  3.928401  0  0  -0.000658  0  3.945597  0  -0.094023  0  -0.054929  -0.005702  0  3.916737  0
C  C70  1  0.54185467  0.03611396  0.38751480  1  0  0.139935  0  3.706753  0  0  0.111466  0  3.962596  0  0  0.116926  0  3.981121  0  0.456022  0  0.056851  0.107971  0  3.949699  0
C  C71  1  0.45814531  0.96388776  0.61248363  1  0  0.139869  0  3.706738  0  0  0.111435  0  3.962573  0  0  0.116899  0  3.981092  0  0.455933  0  0.056846  0.107942  0  3.949674  0
C  C72  1  0.44622127  0.10879064  0.42567724  1  0  -0.093586  0  3.681337  0  0  -0.10929  0  3.933755  0  0  -0.114682  0  3.954792  0  0.026349  0  -0.070108  -0.105756  0  3.919729  0
C  C73  1  0.55377967  0.89121108  0.57432291  1  0  -0.093483  0  3.681361  0  0  -0.109166  0  3.933762  0  0  -0.114555  0  3.954796  0  0.026089  0  -0.070081  -0.105632  0  3.919736  0
C  C74  1  0.08812387  0.18416160  0.43592297  1  0  0.71353  0  3.860336  0  0  0.665929  0  4.152094  0  0  0.701425  0  4.140983  0  1.598513  0  0.233776  0.642043  0  4.158781  0
C  C75  1  0.91187483  0.81583661  0.56407570  1  0  0.71353  0  3.860166  0  0  0.665899  0  4.151968  0  0  0.701394  0  4.140861  0  1.598531  0  0.233789  0.642014  0  4.158655  0
C  C76  1  0.10450966  0.29448571  0.40951610  1  0  -0.054382  0  3.710481  0  0  -0.029358  0  3.947902  0  0  -0.039454  0  3.969795  0  0.00143  0  -0.007194  -0.023238  0  3.933244  0
C  C77  1  0.89548888  0.70551076  0.59048276  1  0  -0.054399  0  3.710553  0  0  -0.029357  0  3.947976  0  0  -0.039447  0  3.96986  0  0.001413  0  -0.007224  -0.023239  0  3.933319  0
C  C78  1  0.17439025  0.39455665  0.49213556  1  0  -0.084023  0  3.675226  0  0  -0.121137  0  3.925244  0  0  -0.116693  0  3.94178  0  0.086318  0  -0.065729  -0.123452  0  3.913683  0
C  C79  1  0.82560860  0.60544332  0.50786607  1  0  -0.084024  0  3.675339  0  0  -0.121137  0  3.925358  0  0  -0.116694  0  3.941893  0  0.086196  0  -0.065731  -0.123453  0  3.913799  0
C  C80  1  0.06346385  0.39819656  0.27457259  1  0  -0.049555  0  3.704956  0  0  -0.02265  0  3.938162  0  0  -0.033149  0  3.960146  0  -0.000188  0  -0.006375  -0.015948  0  3.922934  0
C  C81  1  0.93653250  0.60180778  0.72543007  1  0  -0.049426  0  3.704994  0  0  -0.022518  0  3.938166  0  0  -0.033017  0  3.960154  0  -0.000174  0  -0.006417  -0.015819  0  3.922938  0
C  C82  1  0.12376187  0.50155314  0.35935384  1  0  -0.089451  0  3.651649  0  0  -0.125507  0  3.899698  0  0  -0.121695  0  3.916468  0  -0.021485  0  -0.06318  -0.127501  0  3.888042  0
C  C83  1  0.87623513  0.49844771  0.64064936  1  0  -0.08952  0  3.651524  0  0  -0.125598  0  3.899575  0  0  -0.121792  0  3.91635  0  -0.021468  0  -0.063218  -0.127592  0  3.88792  0
C  C84  1  0.05046296  0.29649155  0.30094088  1  0  -0.026595  0  3.616826  0  0  -0.071646  0  3.873095  0  0  -0.065881  0  3.888417  0  -0.021993  0  -0.056285  -0.074784  0  3.862317  0
C  C85  1  0.94953597  0.70350929  0.69906026  1  0  -0.026703  0  3.617047  0  0  -0.071775  0  3.873308  0  0  -0.066015  0  3.888634  0  -0.022045  0  -0.056281  -0.074905  0  3.862522  0
C  C86  1  0.18010186  0.49640949  0.46591843  1  0  0.060947  0  3.729672  0  0  0.058916  0  3.985587  0  0  0.053696  0  4.008343  0  0.138133  0  0.075315  0.061978  0  3.970123  0
C  C87  1  0.81989498  0.50358960  0.53408576  1  0  0.060928  0  3.729733  0  0  0.058926  0  3.98564  0  0  0.053706  0  4.008397  0  0.13825  0  0.075386  0.061987  0  3.970176  0
C  C88  1  0.01812457  0.03951944  0.86271095  1  0  0.662174  0  3.856021  0  0  0.607982  0  4.152321  0  0  0.641632  0  4.143769  0  1.569799  0  0.235054  0.585209  0  4.158365  0
C  C89  1  0.98187139  0.96048053  0.13728865  1  0  0.661797  0  3.856257  0  0  0.607664  0  4.152481  0  0  0.641311  0  4.143936  0  1.570119  0  0.234854  0.584892  0  4.158524  0
C  C90  1  0.01976194  0.39172240  0.15311802  1  0  0.698362  0  3.883677  0  0  0.650985  0  4.17251  0  0  0.685975  0  4.166244  0  1.597086  0  0.223139  0.627086  0  4.178913  0
C  C91  1  0.98023900  0.60827932  0.84688450  1  0  0.698219  0  3.883816  0  0  0.650884  0  4.172568  0  0  0.685874  0  4.166307  0  1.597116  0  0.223171  0.626985  0  4.178967  0
N  N92  1  0.82224438  0.13979945  0.87510215  1  0  -0.393087  0  3.206711  0  0  -0.344278  0  3.466701  0  0  -0.359641  0  3.485666  0  -1.232277  0  -0.350993  -0.336273  0  3.454623  0
N  N93  1  0.17775552  0.86020140  0.12490071  1  0  -0.393033  0  3.206695  0  0  -0.344202  0  3.466708  0  0  -0.359564  0  3.485675  0  -1.23211  0  -0.35095  -0.336197  0  3.454633  0
N  N94  1  0.66523993  0.05425842  0.44495875  1  0  -0.418913  0  3.248196  0  0  -0.366325  0  3.507185  0  0  -0.37928  0  3.525881  0  -1.260147  0  -0.376561  -0.357177  0  3.494361  0
N  N95  1  0.33475908  0.94574330  0.55503874  1  0  -0.418908  0  3.248268  0  0  -0.366346  0  3.507227  0  0  -0.379298  0  3.525928  0  -1.260207  0  -0.376577  -0.357194  0  3.494394  0
N  N96  1  0.34932312  0.71911516  0.85446940  1  0  0.467702  0  3.969756  0  0  0.5151  0  4.236498  0  0  0.536629  0  4.244512  0  0.385664  0  0.054797  0.500802  0  4.230997  0
N  N97  1  0.65067863  0.28088480  0.14553424  1  0  0.468062  0  3.969481  0  0  0.51531  0  4.236439  0  0  0.536842  0  4.244447  0  0.385516  0  0.054872  0.501009  0  4.230939  0
N  N98  1  0.25248275  0.60152523  0.55313724  1  0  0.503554  0  3.900233  0  0  0.533556  0  4.197454  0  0  0.554761  0  4.205529  0  0.366301  0  0.058156  0.519361  0  4.191991  0
N  N99  1  0.74751699  0.39847386  0.44686660  1  0  0.503702  0  3.90041  0  0  0.533699  0  4.197623  0  0  0.554904  0  4.205697  0  0.366311  0  0.058215  0.519503  0  4.19216  0
O  O100  1  0.16058761  0.29237839  0.76219562  1  0  -0.769989  0  2.052042  0  0  -0.715757  0  2.306244  0  0  -0.744067  0  2.293347  0  -1.1749  0  -0.39624  -0.698863  0  2.314007  0
O  O101  1  0.83941333  0.70762332  0.23780453  1  0  -0.769993  0  2.052079  0  0  -0.715768  0  2.306279  0  0  -0.744079  0  2.293387  0  -1.174755  0  -0.396229  -0.698876  0  2.314044  0
O  O102  1  0.34027947  0.19692710  0.75070388  1  0  -0.667788  0  1.953405  0  0  -0.618339  0  2.193467  0  0  -0.641845  0  2.183952  0  -1.184174  0  -0.370729  -0.601617  0  2.199274  0
O  O103  1  0.65972108  0.80307024  0.24929006  1  0  -0.667878  0  1.953396  0  0  -0.618403  0  2.193433  0  0  -0.641912  0  2.183924  0  -1.184047  0  -0.3708  -0.601684  0  2.19924  0
O  O104  1  0.91170158  0.08632570  0.56032795  1  0  -0.79068  0  2.147013  0  0  -0.727689  0  2.407782  0  0  -0.750829  0  2.394109  0  -1.208976  0  -0.407802  -0.711205  0  2.417009  0
O  O105  1  0.08829542  0.91367514  0.43967209  1  0  -0.790657  0  2.147073  0  0  -0.727675  0  2.407851  0  0  -0.750815  0  2.394172  0  -1.208921  0  -0.407758  -0.711191  0  2.417079  0
O  O106  1  0.87019752  0.24977889  0.69476265  1  0  -0.706256  0  2.080567  0  0  -0.658625  0  2.34985  0  0  -0.687021  0  2.333861  0  -1.213015  0  -0.377805  -0.642335  0  2.359422  0
O  O107  1  0.12980014  0.75021845  0.30523636  1  0  -0.706256  0  2.080497  0  0  -0.65864  0  2.349788  0  0  -0.687034  0  2.333794  0  -1.213049  0  -0.377846  -0.642351  0  2.359361  0
O  O108  1  0.23068275  0.71984647  0.82484642  1  0  -0.321593  0  1.807292  0  0  -0.308364  0  2.011134  0  0  -0.321015  0  2.009346  0  -0.469519  0  -0.101678  -0.299974  0  2.012513  0
O  O109  1  0.76931885  0.28015175  0.17515584  1  0  -0.321712  0  1.807238  0  0  -0.308436  0  2.011167  0  0  -0.321103  0  2.009399  0  -0.469595  0  -0.101699  -0.300044  0  2.012547  0
O  O110  1  0.79207924  0.59688720  0.99155790  1  0  -0.718683  0  2.052123  0  0  -0.665738  0  2.299348  0  0  -0.695863  0  2.289319  0  -1.198666  0  -0.37963  -0.64766  0  2.305002  0
O  O111  1  0.20792050  0.40311189  0.00844279  1  0  -0.718669  0  2.052051  0  0  -0.665715  0  2.299258  0  0  -0.695842  0  2.289232  0  -1.198656  0  -0.37965  -0.647636  0  2.304912  0
O  O112  1  0.77476335  0.39964081  0.90654508  1  0  -0.726342  0  2.027189  0  0  -0.681278  0  2.29081  0  0  -0.710583  0  2.278856  0  -1.205446  0  -0.381248  -0.663961  0  2.298221  0
O  O113  1  0.22524130  0.60035916  0.09345428  1  0  -0.726343  0  2.027271  0  0  -0.681253  0  2.290821  0  0  -0.710559  0  2.278871  0  -1.205395  0  -0.381216  -0.663941  0  2.298236  0
O  O114  1  0.42751509  0.80530877  0.87814539  1  0  -0.3633  0  1.812996  0  0  -0.349258  0  2.014816  0  0  -0.363272  0  2.011006  0  -0.491672  0  -0.118521  -0.339988  0  2.017657  0
O  O115  1  0.57248779  0.19469295  0.12186373  1  0  -0.363511  0  1.812993  0  0  -0.349387  0  2.014835  0  0  -0.3634  0  2.011025  0  -0.491466  0  -0.118559  -0.340115  0  2.017674  0
O  O116  1  0.06224938  0.12130946  0.83035479  1  0  -0.853203  0  2.092402  0  0  -0.787385  0  2.355063  0  0  -0.816629  0  2.340455  0  -1.225117  0  -0.463043  -0.769534  0  2.363913  0
O  O117  1  0.93774835  0.87868876  0.16964294  1  0  -0.853112  0  2.092434  0  0  -0.787325  0  2.355108  0  0  -0.816565  0  2.340499  0  -1.225224  0  -0.463035  -0.769478  0  2.363958  0
O  O118  1  0.16523738  0.17557050  0.52232105  1  0  -0.724907  0  2.014545  0  0  -0.673969  0  2.270325  0  0  -0.698434  0  2.260124  0  -1.198968  0  -0.388253  -0.656725  0  2.277097  0
O  O119  1  0.83475834  0.82442685  0.47767766  1  0  -0.724876  0  2.014328  0  0  -0.673928  0  2.270138  0  0  -0.698397  0  2.259946  0  -1.198993  0  -0.388266  -0.656676  0  2.276889  0
O  O120  1  0.99876708  0.10835675  0.36968706  1  0  -0.718632  0  2.063679  0  0  -0.666357  0  2.317478  0  0  -0.691607  0  2.308526  0  -1.204578  0  -0.384705  -0.648366  0  2.322809  0
O  O121  1  0.00123073  0.89164234  0.63031018  1  0  -0.718582  0  2.063726  0  0  -0.666299  0  2.317539  0  0  -0.691543  0  2.308573  0  -1.204481  0  -0.384668  -0.648309  0  2.322868  0
O  O122  1  0.35134182  0.58762427  0.61643581  1  0  -0.369176  0  1.740433  0  0  -0.357957  0  1.943235  0  0  -0.370673  0  1.941161  0  -0.475809  0  -0.138474  -0.349297  0  1.944605  0
O  O123  1  0.64865970  0.41237307  0.38356537  1  0  -0.369164  0  1.740543  0  0  -0.358032  0  1.943348  0  0  -0.370747  0  1.941273  0  -0.475784  0  -0.138537  -0.34937  0  1.944715  0
O  O124  1  0.21170679  0.69805160  0.55857972  1  0  -0.352379  0  1.774983  0  0  -0.334105  0  1.985706  0  0  -0.347124  0  1.984363  0  -0.467528  0  -0.109757  -0.325252  0  1.986668  0
O  O125  1  0.78829802  0.30195011  0.44142576  1  0  -0.352507  0  1.775131  0  0  -0.334138  0  1.985825  0  0  -0.347155  0  1.984481  0  -0.467551  0  -0.109764  -0.325286  0  1.986788  0
O  O126  1  0.08443011  0.96311796  0.88440632  1  0  -0.539132  0  2.004886  0  0  -0.479976  0  2.217756  0  0  -0.504074  0  2.210545  0  -1.144669  0  -0.260284  -0.463356  0  2.222171  0
O  O127  1  0.91556480  0.03688113  0.11558968  1  0  -0.538864  0  2.004954  0  0  -0.479721  0  2.217824  0  0  -0.503813  0  2.210615  0  -1.144739  0  -0.260092  -0.463101  0  2.222238  0
O  O128  1  0.27195396  0.96597233  0.77599172  1  0  -0.907455  0  1.873955  0  0  -0.862086  0  2.082402  0  0  -0.879065  0  2.049019  0  -1.281793  0  -0.640971  -0.849821  0  2.10544  0
O  O129  1  0.72804570  0.03402589  0.22400867  1  0  -0.907336  0  1.874107  0  0  -0.86194  0  2.082643  0  0  -0.878919  0  2.049267  0  -1.28135  0  -0.640909  -0.849665  0  2.105659  0
O  O130  1  0.01046968  0.29192351  0.07571410  1  0  -0.666449  0  1.994084  0  0  -0.622436  0  2.24038  0  0  -0.650677  0  2.230515  0  -1.170374  0  -0.369608  -0.605478  0  2.246159  0
O  O131  1  0.98953142  0.70807995  0.92428980  1  0  -0.666474  0  1.994206  0  0  -0.62242  0  2.240411  0  0  -0.650663  0  2.230552  0  -1.17045  0  -0.369627  -0.605461  0  2.246186  0
O  O132  1  0.99738552  0.48554049  0.13092570  1  0  -0.807604  0  2.089407  0  0  -0.752223  0  2.356811  0  0  -0.784415  0  2.341068  0  -1.224644  0  -0.409176  -0.73541  0  2.367351  0
O  O133  1  0.00261824  0.51446035  0.86907539  1  0  -0.807528  0  2.089367  0  0  -0.752213  0  2.356831  0  0  -0.784406  0  2.341092  0  -1.224636  0  -0.409196  -0.735394  0  2.367361  0
