# generated using pymatgen
data_UCdH12C16(NO5)2
_symmetry_space_group_name_H-M   'P 1'
_cell_length_a   7.57363446
_cell_length_b   11.66125816
_cell_length_c   11.66112213
_cell_angle_alpha   96.11863317
_cell_angle_beta   105.92362826
_cell_angle_gamma   105.92469873
_symmetry_Int_Tables_number   1
_chemical_formula_structural   UCdH12C16(NO5)2
_chemical_formula_sum   'U2 Cd2 H24 C32 N4 O20'
_cell_volume   933.76284834
_cell_formula_units_Z   2
loop_
 _symmetry_equiv_pos_site_id
 _symmetry_equiv_pos_as_xyz
  1  'x, y, z'
loop_
 _atom_site_type_symbol
 _atom_site_label
 _atom_site_symmetry_multiplicity
 _atom_site_fract_x
 _atom_site_fract_y
 _atom_site_fract_z
 _atom_site_occupancy
 _atom_site_hle17_bader_spin_density
 _atom_site_hle17_ddec_charge
 _atom_site_hle17_ddec_spin_density
 _atom_site_hle17_ddec_sum_bond_order
 _atom_site_hle17_magmom
 _atom_site_hse06_10hf_bader_spin_density
 _atom_site_hse06_10hf_ddec_charge
 _atom_site_hse06_10hf_ddec_spin_density
 _atom_site_hse06_10hf_ddec_sum_bond_order
 _atom_site_hse06_10hf_magmom
 _atom_site_hse06_bader_spin_density
 _atom_site_hse06_ddec_charge
 _atom_site_hse06_ddec_spin_density
 _atom_site_hse06_ddec_sum_bond_order
 _atom_site_hse06_magmom
 _atom_site_pbe_bader_spin_density
 _atom_site_pbe_cm5_charge
 _atom_site_pbe_ddec_charge
 _atom_site_pbe_ddec_spin_density
 _atom_site_pbe_ddec_sum_bond_order
 _atom_site_pbe_magmom
U  U0  1  0.22020007  0.12649836  0.78150376  1  0  2.451255  0  4.110252  0  0  2.503385  0  4.766199  0  0  2.616416  0  4.729298  0  0  2.132807  2.424791  0  4.791819  0
U  U1  1  0.72018161  0.78148131  0.12649266  1  0  2.451042  0  4.110484  0  0  2.503091  0  4.766504  0  0  2.616178  0  4.729523  0  0  2.13257  2.424513  0  4.792089  0
Cd  Cd2  1  0.79392329  0.29099621  0.81485883  1  0  1.157611  0  1.658497  0  0  0.966022  0  2.096558  0  0  1.028392  0  2.043139  0  0  0.818744  0.921486  0  2.132937  0
Cd  Cd3  1  0.29389859  0.81485382  0.29099546  1  0  1.157687  0  1.658462  0  0  0.96611  0  2.096541  0  0  1.028478  0  2.043121  0  0  0.818795  0.921573  0  2.132923  0
H  H4  1  0.29511915  0.48962556  0.69254533  1  0  0.141756  0  0.900304  0  0  0.156702  0  0.952657  0  0  0.159647  0  0.951463  0  0  0.119273  0.154835  0  0.953426  0
H  H5  1  0.79509597  0.69254623  0.48963447  1  0  0.141686  0  0.900284  0  0  0.156659  0  0.95259  0  0  0.159602  0  0.951407  0  0  0.119266  0.154782  0  0.953354  0
H  H6  1  0.42679540  0.58090598  0.83730332  1  0  0.172153  0  0.940994  0  0  0.179046  0  1.002198  0  0  0.183822  0  0.99901  0  0  0.123493  0.17577  0  1.004522  0
H  H7  1  0.92675080  0.83730867  0.58089740  1  0  0.172272  0  0.940945  0  0  0.179038  0  1.002295  0  0  0.183815  0  0.999109  0  0  0.123475  0.175752  0  1.004615  0
H  H8  1  0.57157903  0.86674440  0.65822330  1  0  0.185387  0  0.918905  0  0  0.196164  0  0.973962  0  0  0.20156  0  0.969986  0  0  0.126669  0.192216  0  0.977008  0
H  H9  1  0.07157501  0.65821520  0.86673832  1  0  0.185537  0  0.918688  0  0  0.196184  0  0.973922  0  0  0.201597  0  0.96993  0  0  0.126678  0.192234  0  0.976967  0
H  H10  1  0.60666029  0.85298310  0.81136112  1  0  0.190437  0  0.9189  0  0  0.199201  0  0.976019  0  0  0.204794  0  0.971718  0  0  0.129609  0.195254  0  0.979146  0
H  H11  1  0.10666051  0.81135562  0.85297687  1  0  0.190445  0  0.918888  0  0  0.199235  0  0.975969  0  0  0.204823  0  0.971663  0  0  0.129632  0.195288  0  0.979095  0
H  H12  1  0.85274114  0.13187584  0.01625726  1  0  0.096052  0  0.936051  0  0  0.109133  0  0.989372  0  0  0.111492  0  0.987524  0  0  0.127175  0.107341  0  0.990819  0
H  H13  1  0.35274599  0.01625154  0.13187467  1  0  0.096029  0  0.935946  0  0  0.109179  0  0.98921  0  0  0.111537  0  0.987363  0  0  0.127194  0.107387  0  0.990657  0
H  H14  1  0.85458275  0.12814631  0.22587958  1  0  0.123218  0  0.974025  0  0  0.134604  0  1.031753  0  0  0.138119  0  1.02977  0  0  0.114118  0.132125  0  1.033336  0
H  H15  1  0.35458892  0.22587695  0.12814134  1  0  0.123126  0  0.974288  0  0  0.134612  0  1.031873  0  0  0.138127  0  1.02989  0  0  0.114127  0.13213  0  1.033459  0
H  H16  1  0.74330247  0.47551007  0.23612759  1  0  0.117567  0  0.943697  0  0  0.128749  0  1.002001  0  0  0.132148  0  1.00048  0  0  0.114848  0.126267  0  1.003342  0
H  H17  1  0.24328754  0.23612769  0.47549753  1  0  0.117501  0  0.943691  0  0  0.128677  0  1.002007  0  0  0.132082  0  1.000487  0  0  0.114831  0.126194  0  1.003348  0
H  H18  1  0.75427217  0.46595955  0.02770441  1  0  0.094189  0  0.941854  0  0  0.104216  0  1.001898  0  0  0.106378  0  1.000063  0  0  0.12727  0.102524  0  1.003438  0
H  H19  1  0.25426964  0.02770876  0.46595460  1  0  0.094121  0  0.941922  0  0  0.104227  0  1.001905  0  0  0.10639  0  1.000067  0  0  0.127237  0.10253  0  1.003449  0
H  H20  1  0.86345566  0.49720775  0.43498954  1  0  0.105691  0  0.95512  0  0  0.118347  0  1.012253  0  0  0.121093  0  1.0119  0  0  0.109263  0.116318  0  1.012728  0
H  H21  1  0.36347387  0.43498608  0.49720452  1  0  0.10569  0  0.955108  0  0  0.118327  0  1.012281  0  0  0.121074  0  1.011925  0  0  0.109271  0.116298  0  1.012757  0
H  H22  1  0.83782960  0.48258064  0.64267925  1  0  0.095606  0  0.933958  0  0  0.105605  0  0.992612  0  0  0.108261  0  0.990475  0  0  0.122917  0.10348  0  0.994438  0
H  H23  1  0.33784624  0.64268004  0.48258495  1  0  0.095685  0  0.933787  0  0  0.105667  0  0.992466  0  0  0.108326  0  0.990327  0  0  0.122965  0.103515  0  0.994323  0
H  H24  1  0.71273006  0.10823124  0.57181987  1  0  0.094834  0  0.931875  0  0  0.10286  0  0.995479  0  0  0.105118  0  0.993344  0  0  0.126916  0.101131  0  0.997082  0
H  H25  1  0.21272989  0.57181557  0.10822722  1  0  0.094741  0  0.931939  0  0  0.102794  0  0.995495  0  0  0.105049  0  0.993368  0  0  0.126921  0.101067  0  0.997094  0
H  H26  1  0.73104338  0.10543310  0.36418029  1  0  0.120129  0  0.937052  0  0  0.1325  0  0.991591  0  0  0.135321  0  0.991123  0  0  0.119911  0.130487  0  0.992055  0
H  H27  1  0.23103547  0.36417523  0.10543422  1  0  0.120141  0  0.937038  0  0  0.13246  0  0.991657  0  0  0.13528  0  0.991192  0  0  0.119893  0.130447  0  0.992122  0
C  C28  1  0.19161353  0.42307237  0.82977772  1  0  0.744248  0  3.812509  0  0  0.705138  0  4.104752  0  0  0.742112  0  4.095129  0  0  0.222647  0.679907  0  4.11018  0
C  C29  1  0.69159200  0.82976235  0.42306350  1  0  0.744418  0  3.812784  0  0  0.705295  0  4.105024  0  0  0.742291  0  4.095373  0  0  0.222641  0.680023  0  4.110487  0
C  C30  1  0.36013950  0.48610892  0.78884461  1  0  -0.426163  0  3.628258  0  0  -0.459186  0  3.8602  0  0  -0.470208  0  3.859062  0  0  -0.152992  -0.451791  0  3.86076  0
C  C31  1  0.86011305  0.78884028  0.48610215  1  0  -0.426196  0  3.628303  0  0  -0.459104  0  3.860303  0  0  -0.470122  0  3.859124  0  0  -0.1529  -0.451649  0  3.860817  0
C  C32  1  0.51350420  0.42490701  0.79331504  1  0  0.733986  0  3.827403  0  0  0.694661  0  4.123422  0  0  0.731301  0  4.113773  0  0  0.217767  0.669643  0  4.128918  0
C  C33  1  0.01348465  0.79331725  0.42490033  1  0  0.734112  0  3.827252  0  0  0.694729  0  4.123352  0  0  0.731373  0  4.1137  0  0  0.217741  0.669695  0  4.128849  0
C  C34  1  0.82965178  0.99077813  0.77910246  1  0  0.749872  0  3.769581  0  0  0.703907  0  4.080415  0  0  0.741842  0  4.070406  0  0  0.22372  0.678068  0  4.086148  0
C  C35  1  0.32965120  0.77910115  0.99077199  1  0  0.749973  0  3.769775  0  0  0.703929  0  4.080692  0  0  0.741866  0  4.070686  0  0  0.223757  0.678085  0  4.086435  0
C  C36  1  0.61906360  0.91973224  0.75177535  1  0  -0.447127  0  3.596164  0  0  -0.472671  0  3.813934  0  0  -0.484318  0  3.810593  0  0  -0.15502  -0.464791  0  3.816358  0
C  C37  1  0.11906480  0.75176995  0.91972513  1  0  -0.447297  0  3.595915  0  0  -0.472796  0  3.813878  0  0  -0.484436  0  3.810498  0  0  -0.155114  -0.464913  0  3.816309  0
C  C38  1  0.47993468  0.98968395  0.75488563  1  0  0.747497  0  3.77346  0  0  0.705108  0  4.078714  0  0  0.743012  0  4.069465  0  0  0.218696  0.679252  0  4.08399  0
C  C39  1  0.97993983  0.75488241  0.98968256  1  0  0.747664  0  3.773567  0  0  0.70519  0  4.078945  0  0  0.743086  0  4.069721  0  0  0.218744  0.679331  0  4.084219  0
C  C40  1  0.82965910  0.20645749  0.06852131  1  0  0.146903  0  3.676513  0  0  0.115979  0  3.926477  0  0  0.123614  0  3.944144  0  0  0.059656  0.111081  0  3.914272  0
C  C41  1  0.32965387  0.06851882  0.20644997  1  0  0.146849  0  3.676301  0  0  0.115866  0  3.926316  0  0  0.123501  0  3.943987  0  0  0.05955  0.110967  0  3.91411  0
C  C42  1  0.82994012  0.20551242  0.18742435  1  0  -0.147281  0  3.681431  0  0  -0.166899  0  3.92767  0  0  -0.174573  0  3.948624  0  0  -0.074917  -0.161782  0  3.913302  0
C  C43  1  0.32994704  0.18742452  0.20550892  1  0  -0.147193  0  3.681489  0  0  -0.166881  0  3.927763  0  0  -0.174557  0  3.948719  0  0  -0.074904  -0.161765  0  3.913396  0
C  C44  1  0.80107967  0.30268914  0.25334273  1  0  0.082895  0  3.765689  0  0  0.094178  0  4.000545  0  0  0.09774  0  4.023027  0  0  0.01168  0.091986  0  3.984988  0
C  C45  1  0.30109127  0.25334343  0.30268628  1  0  0.082924  0  3.765655  0  0  0.094171  0  4.000586  0  0  0.097732  0  4.023066  0  0  0.01172  0.09198  0  3.98503  0
C  C46  1  0.77199821  0.39768000  0.19379608  1  0  -0.142341  0  3.665028  0  0  -0.162017  0  3.913287  0  0  -0.169141  0  3.933603  0  0  -0.07338  -0.157345  0  3.899581  0
C  C47  1  0.27200255  0.19379421  0.39767537  1  0  -0.142238  0  3.664978  0  0  -0.161897  0  3.913246  0  0  -0.169032  0  3.933573  0  0  -0.073325  -0.157229  0  3.899544  0
C  C48  1  0.77523268  0.39249713  0.07474128  1  0  0.14423  0  3.679033  0  0  0.113602  0  3.929104  0  0  0.121339  0  3.947102  0  0  0.0598  0.108515  0  3.916937  0
C  C49  1  0.27522756  0.07474132  0.39248926  1  0  0.14428  0  3.679185  0  0  0.113584  0  3.929241  0  0  0.121319  0  3.947244  0  0  0.059764  0.108497  0  3.917073  0
C  C50  1  0.79708071  0.30172562  0.37935779  1  0  0.089138  0  3.764606  0  0  0.099447  0  3.999312  0  0  0.103195  0  4.021834  0  0  0.012576  0.097207  0  3.98372  0
C  C51  1  0.29710407  0.37936117  0.30172603  1  0  0.089019  0  3.764842  0  0  0.099349  0  3.999539  0  0  0.103099  0  4.022062  0  0  0.012527  0.097112  0  3.983943  0
C  C52  1  0.82796983  0.40867652  0.46082025  1  0  -0.165934  0  3.723567  0  0  -0.186072  0  3.975519  0  0  -0.194002  0  3.997696  0  0  -0.084323  -0.180944  0  3.960642  0
C  C53  1  0.32797167  0.46082006  0.40867517  1  0  -0.165878  0  3.723646  0  0  -0.18602  0  3.975614  0  0  -0.19395  0  3.997795  0  0  -0.084346  -0.180892  0  3.960729  0
C  C54  1  0.81593529  0.40198600  0.57687286  1  0  0.118999  0  3.719914  0  0  0.088861  0  3.970804  0  0  0.095562  0  3.990492  0  0  0.045121  0.084442  0  3.957629  0
C  C55  1  0.31593642  0.57687307  0.40198620  1  0  0.118881  0  3.719819  0  0  0.08878  0  3.970684  0  0  0.095474  0  3.990378  0  0  0.045093  0.084383  0  3.957516  0
C  C56  1  0.74681683  0.19282348  0.53863668  1  0  0.155263  0  3.680577  0  0  0.122486  0  3.937153  0  0  0.131084  0  3.953694  0  0  0.063263  0.116923  0  3.925935  0
C  C57  1  0.24681999  0.53863613  0.19282091  1  0  0.15553  0  3.680491  0  0  0.122732  0  3.937102  0  0  0.131331  0  3.953641  0  0  0.063344  0.11717  0  3.92588  0
C  C58  1  0.75777734  0.19226695  0.42165748  1  0  -0.139944  0  3.675512  0  0  -0.15989  0  3.923556  0  0  -0.167412  0  3.944489  0  0  -0.071212  -0.154969  0  3.909416  0
C  C59  1  0.25779059  0.42166069  0.19226806  1  0  -0.140026  0  3.675572  0  0  -0.159922  0  3.923618  0  0  -0.167445  0  3.94455  0  0  -0.071202  -0.155003  0  3.909479  0
N  N60  1  0.80408357  0.29870056  0.01292735  1  0  -0.340798  0  3.282859  0  0  -0.260383  0  3.550435  0  0  -0.282079  0  3.569363  0  0  -0.324744  -0.245599  0  3.537293  0
N  N61  1  0.30408105  0.01292613  0.29869485  1  0  -0.340752  0  3.282867  0  0  -0.260306  0  3.550451  0  0  -0.282001  0  3.569383  0  0  -0.324649  -0.245519  0  3.537299  0
N  N62  1  0.77534216  0.29565158  0.61513811  1  0  -0.329386  0  3.260953  0  0  -0.248275  0  3.519873  0  0  -0.269359  0  3.539076  0  0  -0.325293  -0.233962  0  3.506623  0
N  N63  1  0.27533487  0.61513581  0.29564944  1  0  -0.32944  0  3.260901  0  0  -0.248357  0  3.519884  0  0  -0.269439  0  3.539087  0  0  -0.325372  -0.234042  0  3.506627  0
O  O64  1  0.13620754  0.30589808  0.81641169  1  0  -0.730079  0  2.170033  0  0  -0.698091  0  2.451368  0  0  -0.73688  0  2.446953  0  0  -0.393194  -0.670132  0  2.452821  0
O  O65  1  0.63620094  0.81641056  0.30589222  1  0  -0.730095  0  2.169975  0  0  -0.698096  0  2.45133  0  0  -0.736899  0  2.446903  0  0  -0.393188  -0.670131  0  2.452803  0
O  O66  1  0.09887769  0.48311005  0.86898799  1  0  -0.598779  0  1.91964  0  0  -0.550119  0  2.147632  0  0  -0.578123  0  2.138961  0  0  -0.298034  -0.530071  0  2.152654  0
O  O67  1  0.59883634  0.86896202  0.48309728  1  0  -0.598922  0  1.919726  0  0  -0.55031  0  2.147805  0  0  -0.578323  0  2.139117  0  0  -0.298084  -0.530254  0  2.152851  0
O  O68  1  0.46638775  0.30789429  0.78507714  1  0  -0.73367  0  2.163077  0  0  -0.699014  0  2.446345  0  0  -0.738122  0  2.442114  0  0  -0.390727  -0.670729  0  2.447486  0
O  O69  1  0.96638266  0.78507546  0.30788736  1  0  -0.733778  0  2.163011  0  0  -0.699124  0  2.446382  0  0  -0.738243  0  2.442136  0  0  -0.390749  -0.670843  0  2.447529  0
O  O70  1  0.68249918  0.48666665  0.80366878  1  0  -0.589942  0  1.889131  0  0  -0.54705  0  2.112031  0  0  -0.573064  0  2.102893  0  0  -0.303535  -0.528417  0  2.117438  0
O  O71  1  0.18247459  0.80366978  0.48667016  1  0  -0.589905  0  1.889202  0  0  -0.547002  0  2.112165  0  0  -0.573011  0  2.103006  0  0  -0.303499  -0.528372  0  2.117576  0
O  O72  1  0.94612281  0.93699233  0.75849985  1  0  -0.623173  0  1.971106  0  0  -0.600068  0  2.225656  0  0  -0.632515  0  2.22068  0  0  -0.327547  -0.577333  0  2.228153  0
O  O73  1  0.44612563  0.75849500  0.93698654  1  0  -0.623387  0  1.971244  0  0  -0.600088  0  2.22566  0  0  -0.632545  0  2.220684  0  0  -0.327657  -0.577359  0  2.228166  0
O  O74  1  0.89931553  0.10615111  0.82175704  1  0  -0.696223  0  2.062636  0  0  -0.656107  0  2.334871  0  0  -0.690319  0  2.327491  0  0  -0.349405  -0.631739  0  2.338701  0
O  O75  1  0.39930256  0.82174782  0.10614277  1  0  -0.696186  0  2.062796  0  0  -0.656084  0  2.335078  0  0  -0.690303  0  2.327701  0  0  -0.349339  -0.631722  0  2.338913  0
O  O76  1  0.51474093  0.09980161  0.73660857  1  0  -0.693287  0  2.048203  0  0  -0.656397  0  2.321116  0  0  -0.691206  0  2.314947  0  0  -0.357397  -0.631722  0  2.3242  0
O  O77  1  0.01474577  0.73660584  0.09979759  1  0  -0.693284  0  2.048402  0  0  -0.656322  0  2.321326  0  0  -0.691138  0  2.315162  0  0  -0.357353  -0.631653  0  2.324411  0
O  O78  1  0.31994716  0.94018640  0.77173921  1  0  -0.607941  0  1.947109  0  0  -0.591361  0  2.199733  0  0  -0.623978  0  2.195422  0  0  -0.330138  -0.568492  0  2.201712  0
O  O79  1  0.81995009  0.77172699  0.94018686  1  0  -0.607994  0  1.947117  0  0  -0.591381  0  2.199765  0  0  -0.623996  0  2.19545  0  0  -0.330207  -0.568521  0  2.201744  0
O  O80  1  0.10996892  0.10871875  0.61847294  1  0  -0.727821  0  1.546519  0  0  -0.735947  0  1.837219  0  0  -0.757023  0  1.825798  0  0  -0.768413  -0.723314  0  1.845732  0
O  O81  1  0.60996704  0.61845758  0.10872915  1  0  -0.727733  0  1.547141  0  0  -0.735858  0  1.837896  0  0  -0.756938  0  1.82646  0  0  -0.768402  -0.72324  0  1.846417  0
O  O82  1  0.33218726  0.14341836  0.94392727  1  0  -0.719025  0  1.562881  0  0  -0.730349  0  1.851435  0  0  -0.751042  0  1.840058  0  0  -0.76764  -0.717879  0  1.859837  0
O  O83  1  0.83218217  0.94391978  0.14341105  1  0  -0.719051  0  1.562369  0  0  -0.730341  0  1.850857  0  0  -0.75105  0  1.839476  0  0  -0.767476  -0.71788  0  1.859261  0
