# generated using pymatgen
data_CuH10C7BrN2
_symmetry_space_group_name_H-M   'P 1'
_cell_length_a   7.88120838
_cell_length_b   7.75567259
_cell_length_c   15.25681062
_cell_angle_alpha   90.00010371
_cell_angle_beta   90.00031593
_cell_angle_gamma   100.43510490
_symmetry_Int_Tables_number   1
_chemical_formula_structural   CuH10C7BrN2
_chemical_formula_sum   'Cu4 H40 C28 Br4 N8'
_cell_volume   917.13450874
_cell_formula_units_Z   4
loop_
 _symmetry_equiv_pos_site_id
 _symmetry_equiv_pos_as_xyz
  1  'x, y, z'
loop_
 _atom_site_type_symbol
 _atom_site_label
 _atom_site_symmetry_multiplicity
 _atom_site_fract_x
 _atom_site_fract_y
 _atom_site_fract_z
 _atom_site_occupancy
 _atom_site_hle17_bader_spin_density
 _atom_site_hle17_ddec_charge
 _atom_site_hle17_ddec_spin_density
 _atom_site_hle17_ddec_sum_bond_order
 _atom_site_hle17_magmom
 _atom_site_hse06_10hf_bader_spin_density
 _atom_site_hse06_10hf_ddec_charge
 _atom_site_hse06_10hf_ddec_spin_density
 _atom_site_hse06_10hf_ddec_sum_bond_order
 _atom_site_hse06_10hf_magmom
 _atom_site_hse06_bader_spin_density
 _atom_site_hse06_ddec_charge
 _atom_site_hse06_ddec_spin_density
 _atom_site_hse06_ddec_sum_bond_order
 _atom_site_hse06_magmom
 _atom_site_pbe_bader_spin_density
 _atom_site_pbe_cm5_charge
 _atom_site_pbe_ddec_charge
 _atom_site_pbe_ddec_spin_density
 _atom_site_pbe_ddec_sum_bond_order
 _atom_site_pbe_magmom
Cu  Cu0  1  0.94139692  0.80623399  0.95257571  1  0  0.534149  0  2.146933  0  0  0.496682  0  2.605573  0  0  0.49554  0  2.56633  0  0  0.474349  0.498297  0  2.631183  0
Cu  Cu1  1  0.05860338  0.69375969  0.45257666  1  0  0.534223  0  2.14694  0  0  0.49677  0  2.605607  0  0  0.495629  0  2.56635  0  0  0.474388  0.498386  0  2.631213  0
Cu  Cu2  1  0.05860245  0.19376414  0.04742556  1  0  0.534163  0  2.146913  0  0  0.496665  0  2.605589  0  0  0.495539  0  2.566295  0  0  0.474331  0.498282  0  2.631182  0
Cu  Cu3  1  0.94138790  0.30623585  0.54742460  1  0  0.534265  0  2.14703  0  0  0.496809  0  2.60571  0  0  0.495673  0  2.566454  0  0  0.474403  0.498426  0  2.631311  0
H  H4  1  0.00338107  0.79297382  0.78823328  1  0  0.138079  0  0.96928  0  0  0.14883  0  1.03067  0  0  0.151287  0  1.029876  0  0  0.088407  0.147037  0  1.031288  0
H  H5  1  0.99661540  0.70703602  0.28823571  1  0  0.138032  0  0.969434  0  0  0.148768  0  1.030853  0  0  0.151213  0  1.030074  0  0  0.088356  0.146983  0  1.03146  0
H  H6  1  0.99662940  0.20705051  0.21176864  1  0  0.138038  0  0.9694  0  0  0.148758  0  1.03082  0  0  0.1512  0  1.030047  0  0  0.088386  0.14699  0  1.031406  0
H  H7  1  0.00338000  0.29297525  0.71176752  1  0  0.13808  0  0.969291  0  0  0.14883  0  1.030681  0  0  0.151289  0  1.029885  0  0  0.088398  0.147035  0  1.031299  0
H  H8  1  0.97481169  0.56968487  0.83629315  1  0  0.134432  0  0.9582  0  0  0.146594  0  1.021774  0  0  0.148723  0  1.021247  0  0  0.091218  0.145086  0  1.022122  0
H  H9  1  0.02518564  0.93031999  0.33630144  1  0  0.134457  0  0.958125  0  0  0.146574  0  1.021756  0  0  0.148703  0  1.021228  0  0  0.091208  0.145069  0  1.022103  0
H  H10  1  0.02519433  0.43032898  0.16369959  1  0  0.134379  0  0.958199  0  0  0.146495  0  1.021842  0  0  0.148623  0  1.021314  0  0  0.091163  0.144987  0  1.02219  0
H  H11  1  0.97480779  0.06968735  0.66370704  1  0  0.134488  0  0.958181  0  0  0.146635  0  1.021762  0  0  0.148762  0  1.021237  0  0  0.091244  0.145129  0  1.022109  0
H  H12  1  0.24454869  0.89591555  0.89129848  1  0  0.098453  0  0.937895  0  0  0.110193  0  0.995943  0  0  0.112438  0  0.994585  0  0  0.096437  0.108634  0  0.996884  0
H  H13  1  0.75544958  0.60408436  0.39129879  1  0  0.098454  0  0.937951  0  0  0.110206  0  0.995987  0  0  0.11245  0  0.99463  0  0  0.096444  0.108648  0  0.996927  0
H  H14  1  0.75545694  0.10408912  0.10871196  1  0  0.098503  0  0.937975  0  0  0.110238  0  0.996019  0  0  0.112479  0  0.994665  0  0  0.096445  0.108673  0  0.996966  0
H  H15  1  0.24454543  0.39591773  0.60870051  1  0  0.098507  0  0.937916  0  0  0.110237  0  0.99597  0  0  0.112481  0  0.994612  0  0  0.096471  0.108677  0  0.99691  0
H  H16  1  0.28888697  0.69289286  0.01700366  1  0  0.079427  0  0.947555  0  0  0.090031  0  1.015609  0  0  0.090986  0  1.015491  0  0  0.101458  0.089302  0  1.015763  0
H  H17  1  0.71110718  0.80709843  0.51700727  1  0  0.079448  0  0.947692  0  0  0.090097  0  1.015686  0  0  0.091057  0  1.015559  0  0  0.101488  0.089366  0  1.015842  0
H  H18  1  0.71110424  0.30708825  0.98299695  1  0  0.079382  0  0.947567  0  0  0.09005  0  1.015581  0  0  0.091009  0  1.015456  0  0  0.101445  0.089319  0  1.015737  0
H  H19  1  0.28888015  0.19288925  0.48299596  1  0  0.079446  0  0.947615  0  0  0.09005  0  1.015642  0  0  0.091005  0  1.015519  0  0  0.101501  0.08932  0  1.015794  0
H  H20  1  0.15600852  0.51454040  0.96351247  1  0  0.073807  0  0.953611  0  0  0.081606  0  1.0344  0  0  0.085176  0  1.029389  0  0  0.09947  0.078834  0  1.03829  0
H  H21  1  0.84398762  0.98545073  0.46352062  1  0  0.073843  0  0.953654  0  0  0.081673  0  1.034402  0  0  0.085217  0  1.029416  0  0  0.099481  0.078903  0  1.038288  0
H  H22  1  0.84398205  0.48545120  0.03648027  1  0  0.073821  0  0.953622  0  0  0.081638  0  1.034407  0  0  0.085168  0  1.029437  0  0  0.099479  0.078869  0  1.038291  0
H  H23  1  0.15600018  0.01453957  0.53648851  1  0  0.073948  0  0.953643  0  0  0.081756  0  1.034378  0  0  0.085317  0  1.029376  0  0  0.099557  0.078977  0  1.038273  0
H  H24  1  0.24444598  0.39688814  0.83616286  1  0  0.085292  0  0.957131  0  0  0.101351  0  1.019991  0  0  0.10206  0  1.02022  0  0  0.100774  0.100688  0  1.019961  0
H  H25  1  0.75555958  0.10310946  0.33616907  1  0  0.085248  0  0.957195  0  0  0.101331  0  1.020011  0  0  0.102041  0  1.02024  0  0  0.100781  0.10067  0  1.019986  0
H  H26  1  0.75556099  0.60308898  0.16383840  1  0  0.08528  0  0.957114  0  0  0.101361  0  1.019948  0  0  0.102073  0  1.020178  0  0  0.100786  0.100699  0  1.019922  0
H  H27  1  0.24443987  0.89688212  0.66383613  1  0  0.085303  0  0.957191  0  0  0.101353  0  1.02006  0  0  0.102066  0  1.02029  0  0  0.100772  0.100689  0  1.020031  0
H  H28  1  0.37650373  0.55952457  0.76998416  1  0  0.068115  0  0.936784  0  0  0.084173  0  0.997452  0  0  0.08431  0  0.99868  0  0  0.101151  0.083927  0  0.996737  0
H  H29  1  0.62349943  0.94048121  0.26998703  1  0  0.068248  0  0.936682  0  0  0.084258  0  0.997394  0  0  0.084396  0  0.998622  0  0  0.101194  0.084015  0  0.99668  0
H  H30  1  0.62348375  0.44047098  0.23001513  1  0  0.068106  0  0.936775  0  0  0.084151  0  0.997467  0  0  0.084288  0  0.998695  0  0  0.10114  0.083909  0  0.996749  0
H  H31  1  0.37650327  0.05951429  0.73001686  1  0  0.068169  0  0.93663  0  0  0.084204  0  0.997329  0  0  0.084343  0  0.998556  0  0  0.101171  0.083959  0  0.996615  0
H  H32  1  0.49806721  0.26125845  0.87479641  1  0  0.077701  0  0.950562  0  0  0.091168  0  1.008204  0  0  0.093542  0  1.007398  0  0  0.096408  0.089421  0  1.00893  0
H  H33  1  0.50194053  0.23874198  0.37480790  1  0  0.077743  0  0.95067  0  0  0.091161  0  1.008352  0  0  0.093558  0  1.007512  0  0  0.096423  0.089417  0  1.009074  0
H  H34  1  0.50196243  0.73875270  0.12519699  1  0  0.077563  0  0.95089  0  0  0.091109  0  1.008433  0  0  0.093499  0  1.007616  0  0  0.09637  0.089359  0  1.009161  0
H  H35  1  0.49806114  0.76125483  0.62519533  1  0  0.077677  0  0.9508  0  0  0.091184  0  1.008385  0  0  0.093553  0  1.007583  0  0  0.096405  0.089437  0  1.009111  0
H  H36  1  0.72880042  0.29465260  0.76534008  1  0  0.12222  0  0.984345  0  0  0.135207  0  1.046894  0  0  0.137686  0  1.046889  0  0  0.09008  0.133374  0  1.04703  0
H  H37  1  0.27119896  0.20534988  0.26535281  1  0  0.122209  0  0.984295  0  0  0.13522  0  1.046815  0  0  0.13769  0  1.046837  0  0  0.090099  0.133382  0  1.046952  0
H  H38  1  0.27121536  0.70537303  0.23464808  1  0  0.122236  0  0.984369  0  0  0.135249  0  1.046879  0  0  0.137713  0  1.046924  0  0  0.09009  0.133413  0  1.047016  0
H  H39  1  0.72880714  0.79465742  0.73464779  1  0  0.12222  0  0.984312  0  0  0.135235  0  1.046817  0  0  0.137728  0  1.046785  0  0  0.090079  0.1334  0  1.046955  0
H  H40  1  0.64755990  0.48061459  0.71383321  1  0  0.121475  0  0.973356  0  0  0.135004  0  1.033996  0  0  0.13759  0  1.03394  0  0  0.091208  0.133143  0  1.034115  0
H  H41  1  0.35244311  0.01939677  0.21384273  1  0  0.121574  0  0.973398  0  0  0.135105  0  1.034021  0  0  0.137696  0  1.033956  0  0  0.091256  0.133239  0  1.034147  0
H  H42  1  0.35244122  0.51940715  0.28615429  1  0  0.121525  0  0.973507  0  0  0.135044  0  1.034144  0  0  0.137634  0  1.034079  0  0  0.09121  0.133178  0  1.034271  0
H  H43  1  0.64756197  0.98061184  0.78615722  1  0  0.121535  0  0.973487  0  0  0.13506  0  1.034107  0  0  0.137647  0  1.034052  0  0  0.091251  0.133196  0  1.034232  0
C  C44  1  0.55531175  0.67343042  0.92637825  1  0  0.434918  0  3.869677  0  0  0.400485  0  4.142149  0  0  0.421509  0  4.155962  0  0  0.31209  0.385994  0  4.133077  0
C  C45  1  0.44470561  0.82657487  0.42637850  1  0  0.434743  0  3.869131  0  0  0.400304  0  4.141659  0  0  0.421331  0  4.155479  0  0  0.311889  0.385812  0  4.132574  0
C  C46  1  0.44468667  0.32656247  0.07362105  1  0  0.434931  0  3.869417  0  0  0.400489  0  4.141902  0  0  0.421512  0  4.155717  0  0  0.312058  0.385998  0  4.132824  0
C  C47  1  0.55528773  0.17341804  0.57362473  1  0  0.434578  0  3.869125  0  0  0.400138  0  4.141636  0  0  0.421165  0  4.155458  0  0  0.311821  0.385647  0  4.132556  0
C  C48  1  0.03357186  0.70833762  0.84077244  1  0  -0.296831  0  3.658476  0  0  -0.3459  0  3.937277  0  0  -0.343878  0  3.943022  0  0  -0.23511  -0.346886  0  3.93296  0
C  C49  1  0.96641997  0.79166466  0.34077814  1  0  -0.296813  0  3.658752  0  0  -0.345824  0  3.93755  0  0  -0.343788  0  3.943301  0  0  -0.235032  -0.346814  0  3.933224  0
C  C50  1  0.96643647  0.29167492  0.15922620  1  0  -0.296705  0  3.658558  0  0  -0.34568  0  3.937331  0  0  -0.343643  0  3.943079  0  0  -0.235076  -0.346682  0  3.932982  0
C  C51  1  0.03357092  0.20834269  0.65922640  1  0  -0.296932  0  3.658616  0  0  -0.345985  0  3.937419  0  0  -0.343962  0  3.943163  0  0  -0.23513  -0.346964  0  3.933096  0
C  C52  1  0.16847845  0.76383137  0.89826634  1  0  -0.099352  0  3.777673  0  0  -0.11826  0  4.071162  0  0  -0.115771  0  4.081502  0  0  -0.163298  -0.119764  0  4.063657  0
C  C53  1  0.83152195  0.73616595  0.39826896  1  0  -0.099301  0  3.777939  0  0  -0.118235  0  4.071439  0  0  -0.11574  0  4.081765  0  0  -0.163307  -0.119742  0  4.063938  0
C  C54  1  0.83152543  0.23617069  0.10173493  1  0  -0.09951  0  3.777867  0  0  -0.118413  0  4.071371  0  0  -0.115918  0  4.081704  0  0  -0.163289  -0.119913  0  4.063862  0
C  C55  1  0.16847156  0.26383483  0.60173427  1  0  -0.099304  0  3.777782  0  0  -0.11821  0  4.071236  0  0  -0.115729  0  4.081582  0  0  -0.163288  -0.119713  0  4.063724  0
C  C56  1  0.24784812  0.63747427  0.95271945  1  0  0.003524  0  3.678941  0  0  -0.060821  0  3.942592  0  0  -0.055794  0  3.950882  0  0  -0.064215  -0.064174  0  3.93706  0
C  C57  1  0.75214663  0.86251681  0.45272459  1  0  0.003425  0  3.679122  0  0  -0.060961  0  3.942766  0  0  -0.055917  0  3.95106  0  0  -0.064243  -0.064322  0  3.937263  0
C  C58  1  0.75214705  0.36251470  0.04727919  1  0  0.003593  0  3.678908  0  0  -0.060836  0  3.942616  0  0  -0.055791  0  3.950932  0  0  -0.064208  -0.064199  0  3.9371  0
C  C59  1  0.24783887  0.13747481  0.54728061  1  0  0.003298  0  3.678999  0  0  -0.06102  0  3.94261  0  0  -0.055978  0  3.950878  0  0  -0.064335  -0.064373  0  3.937101  0
C  C60  1  0.37397343  0.47721068  0.82882145  1  0  0.00631  0  3.656905  0  0  -0.052536  0  3.898139  0  0  -0.047956  0  3.910349  0  0  -0.058443  -0.055447  0  3.889828  0
C  C61  1  0.62602943  0.02279345  0.32882523  1  0  0.006138  0  3.656783  0  0  -0.052686  0  3.898046  0  0  -0.048105  0  3.910257  0  0  -0.058552  -0.055604  0  3.889747  0
C  C62  1  0.62602348  0.52278091  0.17117522  1  0  0.006189  0  3.657076  0  0  -0.052694  0  3.898428  0  0  -0.048117  0  3.910646  0  0  -0.058535  -0.055609  0  3.890119  0
C  C63  1  0.37397025  0.97719944  0.67117668  1  0  0.00631  0  3.656819  0  0  -0.052522  0  3.898065  0  0  -0.047943  0  3.910269  0  0  -0.058465  -0.055431  0  3.889753  0
C  C64  1  0.50737891  0.36281556  0.82430361  1  0  -0.052126  0  3.786633  0  0  -0.057259  0  4.045394  0  0  -0.060396  0  4.067714  0  0  -0.10016  -0.055124  0  4.030215  0
C  C65  1  0.49262517  0.13718854  0.32431432  1  0  -0.052174  0  3.786866  0  0  -0.057283  0  4.045625  0  0  -0.060432  0  4.067929  0  0  -0.100213  -0.055152  0  4.030454  0
C  C66  1  0.49263655  0.63719433  0.17568389  1  0  -0.052002  0  3.786715  0  0  -0.057184  0  4.045483  0  0  -0.060337  0  4.067806  0  0  -0.100129  -0.055045  0  4.030302  0
C  C67  1  0.50737776  0.86280827  0.67568760  1  0  -0.052137  0  3.787113  0  0  -0.057319  0  4.045885  0  0  -0.060453  0  4.068204  0  0  -0.10017  -0.055187  0  4.030707  0
C  C68  1  0.63374843  0.38063623  0.76494540  1  0  -0.248562  0  3.636789  0  0  -0.29312  0  3.875438  0  0  -0.297268  0  3.893421  0  0  -0.174682  -0.290178  0  3.863336  0
C  C69  1  0.36625443  0.11937148  0.26495702  1  0  -0.248599  0  3.636926  0  0  -0.293166  0  3.875517  0  0  -0.297319  0  3.893508  0  0  -0.174698  -0.290215  0  3.863416  0
C  C70  1  0.36625475  0.61938289  0.23504603  1  0  -0.248559  0  3.636801  0  0  -0.293131  0  3.875434  0  0  -0.297284  0  3.893416  0  0  -0.174673  -0.290186  0  3.863325  0
C  C71  1  0.63375120  0.88063319  0.73504293  1  0  -0.248582  0  3.637035  0  0  -0.293151  0  3.875661  0  0  -0.297304  0  3.89365  0  0  -0.174684  -0.290209  0  3.863563  0
Br  Br72  1  0.02172252  0.84566938  0.10501321  1  0  -0.568279  0  1.117283  0  0  -0.507969  0  1.438356  0  0  -0.52405  0  1.411099  0  0  -0.270524  -0.496413  0  1.456591  0
Br  Br73  1  0.97829401  0.65431446  0.60502009  1  0  -0.568287  0  1.117233  0  0  -0.508007  0  1.438342  0  0  -0.52411  0  1.411119  0  0  -0.270512  -0.496442  0  1.456563  0
Br  Br74  1  0.97828659  0.15431954  0.89498543  1  0  -0.568264  0  1.117268  0  0  -0.507963  0  1.438375  0  0  -0.524061  0  1.411142  0  0  -0.270516  -0.496404  0  1.456605  0
Br  Br75  1  0.02170386  0.34568237  0.39498380  1  0  -0.568276  0  1.117283  0  0  -0.508003  0  1.438377  0  0  -0.524086  0  1.411127  0  0  -0.270517  -0.49644  0  1.456605  0
N  N76  1  0.69741250  0.74246194  0.94193744  1  0  -0.524782  0  3.072225  0  0  -0.489655  0  3.398833  0  0  -0.500279  0  3.394827  0  0  -0.413912  -0.483311  0  3.401903  0
N  N77  1  0.30257278  0.75752648  0.44193983  1  0  -0.524798  0  3.071154  0  0  -0.489658  0  3.397782  0  0  -0.500293  0  3.3938  0  0  -0.413833  -0.483307  0  3.400841  0
N  N78  1  0.30258465  0.25753095  0.05806120  1  0  -0.524795  0  3.072098  0  0  -0.489649  0  3.398696  0  0  -0.500275  0  3.394693  0  0  -0.413878  -0.483304  0  3.401754  0
N  N79  1  0.69741953  0.24246774  0.55806143  1  0  -0.524702  0  3.071241  0  0  -0.489561  0  3.397858  0  0  -0.500202  0  3.393887  0  0  -0.413758  -0.483213  0  3.40092  0
N  N80  1  0.39985562  0.58919190  0.90851382  1  0  -0.187989  0  3.441963  0  0  -0.095824  0  3.666361  0  0  -0.115466  0  3.686662  0  0  -0.262731  -0.082465  0  3.652469  0
N  N81  1  0.60013808  0.91080288  0.40851790  1  0  -0.187827  0  3.442318  0  0  -0.095673  0  3.666729  0  0  -0.115307  0  3.687023  0  0  -0.262607  -0.082311  0  3.652822  0
N  N82  1  0.60014335  0.41079706  0.09148482  1  0  -0.187872  0  3.441947  0  0  -0.095684  0  3.666364  0  0  -0.115318  0  3.686658  0  0  -0.262603  -0.082322  0  3.652458  0
N  N83  1  0.39985423  0.08919135  0.59148599  1  0  -0.187864  0  3.442092  0  0  -0.095688  0  3.666448  0  0  -0.115327  0  3.686742  0  0  -0.262703  -0.082328  0  3.652545  0
