# generated using pymatgen
data_Cd3H60(C11O3)8
_symmetry_space_group_name_H-M   'P 1'
_cell_length_a   15.51131758
_cell_length_b   16.15080222
_cell_length_c   18.18005240
_cell_angle_alpha   107.36423238
_cell_angle_beta   101.82696551
_cell_angle_gamma   111.77205594
_symmetry_Int_Tables_number   1
_chemical_formula_structural   Cd3H60(C11O3)8
_chemical_formula_sum   'Cd3 H60 C88 O24'
_cell_volume   3772.16027024
_cell_formula_units_Z   1
loop_
 _symmetry_equiv_pos_site_id
 _symmetry_equiv_pos_as_xyz
  1  'x, y, z'
loop_
 _atom_site_type_symbol
 _atom_site_label
 _atom_site_symmetry_multiplicity
 _atom_site_fract_x
 _atom_site_fract_y
 _atom_site_fract_z
 _atom_site_occupancy
 _atom_site_pbe_bader_charge
 _atom_site_pbe_bader_spin_density
 _atom_site_pbe_cm5_charge
 _atom_site_pbe_ddec_charge
 _atom_site_pbe_ddec_spin_density
 _atom_site_pbe_ddec_sum_bond_order
 _atom_site_pbe_magmom
Cd  Cd0  1  0.96964190  0.81904159  0.08796589  1  1.319549  0  0.774964  1.003477  0  2.098455  0
Cd  Cd1  1  0.03037188  0.18097214  0.91203795  1  1.319549  0  0.774878  1.003445  0  2.098504  0
Cd  Cd2  1  0.00000757  0.00000969  0.99999643  1  1.418166  0  0.815596  1.14344  0  2.194681  0
H  H3  1  0.97131955  0.55654704  0.15802632  1  0.090427  0  0.112148  0.118193  0  0.986902  0
H  H4  1  0.02872739  0.44338282  0.84189268  1  0.091206  0  0.112246  0.118293  0  0.98686  0
H  H5  1  0.02678713  0.48088714  0.24552773  1  0.050339  0  0.10089  0.099077  0  1.035704  0
H  H6  1  0.97327179  0.51907563  0.75441528  1  0.050572  0  0.100776  0.099044  0  1.035606  0
H  H7  1  0.28614593  0.75834705  0.40155392  1  0.092085  0  0.10628  0.110494  0  0.996132  0
H  H8  1  0.71375926  0.24171158  0.59850267  1  0.06326  0  0.106312  0.110396  0  0.995978  0
H  H9  1  0.23174713  0.83161835  0.30994927  1  0.071749  0  0.110912  0.115736  0  0.985404  0
H  H10  1  0.76812931  0.16841972  0.69010387  1  0.070918  0  0.111229  0.115888  0  0.986133  0
H  H11  1  0.14036655  0.43521537  0.28160206  1  0.075272  0  0.110236  0.116378  0  1.004123  0
H  H12  1  0.85964524  0.56479834  0.71840362  1  0.075098  0  0.110225  0.116404  0  1.004123  0
H  H13  1  0.19778499  0.81509145  0.54072393  1  0.091583  0  0.111992  0.121224  0  0.962523  0
H  H14  1  0.80221388  0.18492955  0.45926208  1  0.090917  0  0.112044  0.121436  0  0.962611  0
H  H15  1  0.11776629  0.70186315  0.54207727  1  0.064244  0  0.097719  0.099655  0  1.039078  0
H  H16  1  0.88225310  0.29818272  0.45796024  1  0.064246  0  0.097755  0.099775  0  1.039052  0
H  H17  1  0.11714785  0.71106681  0.44557297  1  0.07704  0  0.096004  0.098337  0  1.022898  0
H  H18  1  0.88282970  0.28891902  0.55443570  1  0.052046  0  0.096101  0.09841  0  1.02292  0
H  H19  1  0.34328113  0.37581583  0.57664558  1  0.061891  0  0.113096  0.1236  0  0.961527  0
H  H20  1  0.65671840  0.62420441  0.42337995  1  0.06219  0  0.113109  0.123641  0  0.961563  0
H  H21  1  0.39131622  0.44549413  0.52105088  1  0.072803  0  0.100313  0.102058  0  1.005162  0
H  H22  1  0.60868398  0.55445234  0.47892676  1  0.072556  0  0.100232  0.101937  0  1.00513  0
H  H23  1  0.29098816  0.32209587  0.46595621  1  0.052421  0  0.094359  0.093291  0  1.036232  0
H  H24  1  0.70896539  0.67786867  0.53407223  1  0.05247  0  0.094315  0.093251  0  1.036183  0
H  H25  1  0.54140831  0.68347523  0.56631093  1  0.057652  0  0.105828  0.113734  0  0.986188  0
H  H26  1  0.45856256  0.31650696  0.43365927  1  0.056327  0  0.105798  0.113666  0  0.986335  0
H  H27  1  0.53012667  0.77483578  0.64312263  1  0.039479  0  0.100721  0.101219  0  0.987695  0
H  H28  1  0.46983559  0.22516833  0.35681878  1  0.038475  0  0.100638  0.101067  0  0.987749  0
H  H29  1  0.43182753  0.69970127  0.54412875  1  0.051888  0  0.09394  0.095181  0  1.017178  0
H  H30  1  0.56811535  0.30022530  0.45582617  1  0.052706  0  0.093881  0.095367  0  1.0171  0
H  H31  1  0.23843869  0.34848182  0.26177678  1  0.077582  0  0.104697  0.108152  0  0.995247  0
H  H32  1  0.76155998  0.65152749  0.73820668  1  0.077771  0  0.104724  0.108259  0  0.995115  0
H  H33  1  0.17813492  0.17315857  0.17383404  1  0.082939  0  0.103309  0.101788  0  1.045314  0
H  H34  1  0.82186477  0.82685439  0.82615441  1  0.082951  0  0.10323  0.10178  0  1.045308  0
H  H35  1  0.02646218  0.08898384  0.33231924  1  0.097778  0  0.109236  0.116276  0  0.989831  0
H  H36  1  0.97360039  0.91103440  0.66770669  1  0.099672  0  0.109092  0.116168  0  0.989897  0
H  H37  1  0.08821332  0.26533326  0.42277263  1  0.080235  0  0.101994  0.105212  0  0.996377  0
H  H38  1  0.91184860  0.73468352  0.57724894  1  0.079999  0  0.102101  0.105506  0  0.996455  0
H  H39  1  0.37101163  0.72464874  0.85089521  1  0.060309  0  0.109468  0.116657  0  0.992427  0
H  H40  1  0.62897225  0.27530568  0.14911623  1  0.060599  0  0.109367  0.116579  0  0.992349  0
H  H41  1  0.13555304  0.75432569  0.70153395  1  0.085334  0  0.10213  0.103563  0  1.010596  0
H  H42  1  0.86439250  0.24560819  0.29843438  1  0.085456  0  0.10201  0.103558  0  1.010678  0
H  H43  1  0.05359337  0.82263550  0.78916612  1  0.103512  0  0.103397  0.108633  0  1.029468  0
H  H44  1  0.94634932  0.17730203  0.21079550  1  0.103149  0  0.103315  0.108632  0  1.029363  0
H  H45  1  0.13027320  0.69940629  0.95589931  1  0.107679  0  0.11202  0.120617  0  0.984623  0
H  H46  1  0.86978093  0.30065870  0.04413354  1  0.107171  0  0.111935  0.120568  0  0.984813  0
H  H47  1  0.21986882  0.63704968  0.87221862  1  0.067484  0  0.106127  0.108815  0  0.990218  0
H  H48  1  0.78018210  0.36300432  0.12781901  1  0.068232  0  0.105999  0.108729  0  0.989972  0
H  H49  1  0.48040018  0.55995809  0.78528944  1  0.093981  0  0.102912  0.105724  0  0.991212  0
H  H50  1  0.51959792  0.44000732  0.21474616  1  0.095625  0  0.102941  0.105667  0  0.991138  0
H  H51  1  0.56986663  0.86062749  0.82404279  1  0.049986  0  0.104281  0.105687  0  0.993359  0
H  H52  1  0.43011898  0.13932038  0.17594524  1  0.049519  0  0.104188  0.105534  0  0.993508  0
H  H53  1  0.73561113  0.90982598  0.92368610  1  0.095767  0  0.112067  0.122933  0  0.985867  0
H  H54  1  0.26438452  0.09014751  0.07630278  1  0.089203  0  0.112034  0.123002  0  0.9859  0
H  H55  1  0.64547737  0.61061347  0.88760402  1  0.107608  0  0.108963  0.114817  0  0.99175  0
H  H56  1  0.35453030  0.38936513  0.11242193  1  0.10812  0  0.108948  0.114859  0  0.991618  0
H  H57  1  0.97971910  0.48454862  0.56091122  1  0.076528  0  0.101387  0.108715  0  1.027123  0
H  H58  1  0.02029093  0.51550457  0.43907648  1  0.077028  0  0.101414  0.108628  0  1.02699  0
H  H59  1  0.05732886  0.50064033  0.65734654  1  0.042677  0  0.092376  0.090002  0  1.033398  0
H  H60  1  0.94268255  0.49935223  0.34261665  1  0.041971  0  0.09226  0.089618  0  1.033355  0
H  H61  1  0.07315546  0.44384820  0.56340436  1  0.037906  0  0.094492  0.096225  0  0.994318  0
H  H62  1  0.92682364  0.55617060  0.43653130  1  0.037242  0  0.094476  0.096234  0  0.994482  0
C  C63  1  0.06034237  0.74496595  0.17943118  1  1.55478  0  0.19472  0.539669  0  4.249568  0
C  C64  1  0.93959716  0.25499860  0.82053478  1  1.553858  0  0.194562  0.538589  0  4.24841  0
C  C65  1  0.09720990  0.69917799  0.22989949  1  -0.059834  0  0.001009  0.005809  0  3.937275  0
C  C66  1  0.90275349  0.30080123  0.77009003  1  -0.017443  0  0.000945  0.009128  0  3.932458  0
C  C67  1  0.04069956  0.59963146  0.21090214  1  0.036395  0  -0.075461  -0.08421  0  3.957197  0
C  C68  1  0.95932696  0.40033557  0.78905376  1  0.035703  0  -0.075446  -0.085153  0  3.955236  0
C  C69  1  0.07213807  0.55793274  0.26024227  1  -0.061885  0  -0.085802  -0.130207  0  3.963794  0
C  C70  1  0.92789331  0.44204747  0.73971467  1  -0.061886  0  -0.085909  -0.13043  0  3.963557  0
C  C71  1  0.15936172  0.61497092  0.33127892  1  -0.049853  0  -0.000194  0.089615  0  3.983836  0
C  C72  1  0.84062450  0.38503322  0.66872182  1  -0.051305  0  -5.3e-05  0.089594  0  3.984155  0
C  C73  1  0.21733833  0.71415736  0.34819609  1  -0.010006  0  -0.086031  -0.129135  0  3.974232  0
C  C74  1  0.78258477  0.28587869  0.65184128  1  0.018276  0  -0.086021  -0.128606  0  3.974206  0
C  C75  1  0.18705055  0.75529318  0.29761767  1  -9e-05  0  -0.076804  -0.090317  0  3.966637  0
C  C76  1  0.81286012  0.24473041  0.70241693  1  -0.039026  0  -0.077298  -0.092158  0  3.966738  0
C  C77  1  0.18654292  0.56950555  0.38508213  1  -0.042035  0  -0.009985  -0.032305  0  4.001467  0
C  C78  1  0.81345421  0.43049935  0.61491804  1  -0.042218  0  -0.009995  -0.032346  0  4.001737  0
C  C79  1  0.17155895  0.47318355  0.34871841  1  0.038151  0  -0.081752  -0.146316  0  3.966993  0
C  C80  1  0.82844962  0.52683454  0.65128674  1  0.038471  0  -0.081783  -0.146465  0  3.967213  0
C  C81  1  0.19300641  0.42220645  0.39360669  1  0.039332  0  -0.011852  -0.030813  0  4.00626  0
C  C82  1  0.80702629  0.57781245  0.60639807  1  0.039247  0  -0.011835  -0.030729  0  4.006772  0
C  C83  1  0.23348678  0.47174134  0.48079088  1  0.425246  0  0.099506  0.187795  0  3.98285  0
C  C84  1  0.76654463  0.52828340  0.51922289  1  0.425444  0  0.099467  0.187517  0  3.983242  0
C  C85  1  0.24733301  0.56758394  0.52008026  1  0.067512  0  -0.018083  -0.107968  0  4.027717  0
C  C86  1  0.75268288  0.43243855  0.47992792  1  0.065913  0  -0.018103  -0.107912  0  4.028023  0
C  C87  1  0.22393116  0.61618183  0.47276137  1  0.520867  0  0.095083  0.175748  0  3.999795  0
C  C88  1  0.77607313  0.38383843  0.52724633  1  0.522151  0  0.095065  0.175744  0  4.000137  0
C  C89  1  0.16312884  0.73516577  0.50980242  1  0.326547  0  -0.13769  -0.174162  0  3.877772  0
C  C90  1  0.83686536  0.26484423  0.49020462  1  0.351792  0  -0.137871  -0.17463  0  3.878224  0
C  C91  1  0.32420093  0.39012092  0.52188731  1  0.378034  0  -0.136578  -0.17734  0  3.890999  0
C  C92  1  0.67579388  0.60986935  0.47812234  1  0.377784  0  -0.136712  -0.177502  0  3.891279  0
C  C93  1  0.48950158  0.70143643  0.59218204  1  0.402244  0  -0.13592  -0.167432  0  3.900954  0
C  C94  1  0.51046964  0.29854795  0.40778991  1  0.403738  0  -0.135866  -0.167445  0  3.901325  0
C  C95  1  0.16623743  0.31868376  0.34759027  1  -9.4e-05  0  -0.006159  0.081538  0  4.021469  0
C  C96  1  0.83378871  0.68133658  0.65241149  1  0.000845  0  -0.005974  0.082121  0  4.020996  0
C  C97  1  0.19179663  0.29183734  0.27746317  1  -0.097057  0  -0.089222  -0.134085  0  3.965117  0
C  C98  1  0.80820462  0.70817197  0.72252844  1  -0.097736  0  -0.089386  -0.134579  0  3.964892  0
C  C99  1  0.15835964  0.19394333  0.22810919  1  0.011612  0  -0.077866  -0.073639  0  3.963719  0
C  C100  1  0.84165592  0.80607552  0.77189082  1  0.011793  0  -0.077896  -0.073707  0  3.963802  0
C  C101  1  0.09746115  0.12068194  0.24711684  1  0.017462  0  -0.011565  -0.018939  0  3.950746  0
C  C102  1  0.90255529  0.87933180  0.75288528  1  0.017128  0  -0.011408  -0.018601  0  3.950845  0
C  C103  1  0.07383316  0.14687442  0.31828691  1  0.026776  0  -0.08031  -0.092158  0  3.977569  0
C  C104  1  0.92620513  0.85314668  0.68172659  1  0.024145  0  -0.080247  -0.092128  0  3.977535  0
C  C105  1  0.10828251  0.24494348  0.36839148  1  -0.146271  0  -0.090186  -0.1384  0  3.987709  0
C  C106  1  0.89176272  0.75507691  0.63161924  1  -0.146285  0  -0.090378  -0.139046  0  3.98809  0
C  C107  1  0.38125851  0.64167695  0.65964308  1  0.494444  0  0.092373  0.180197  0  3.993455  0
C  C108  1  0.61875535  0.35832726  0.34037093  1  0.494049  0  0.092284  0.180115  0  3.993928  0
C  C109  1  0.28369385  0.61443152  0.61155123  1  0.069679  0  -0.018311  -0.099504  0  4.032807  0
C  C110  1  0.71632195  0.38558659  0.38845797  1  0.070273  0  -0.018376  -0.099313  0  4.032766  0
C  C111  1  0.21830574  0.62670858  0.65138203  1  0.524793  0  0.088449  0.175185  0  3.983053  0
C  C112  1  0.78170939  0.37330661  0.34862189  1  0.524317  0  0.088592  0.175031  0  3.98358  0
C  C113  1  0.24862659  0.66834332  0.73819813  1  -0.079989  0  -0.008634  -0.02088  0  4.007871  0
C  C114  1  0.75137650  0.33164917  0.26181305  1  -0.080219  0  -0.008606  -0.020941  0  4.008508  0
C  C115  1  0.34559278  0.69186571  0.78369626  1  0.066943  0  -0.082584  -0.152527  0  3.969402  0
C  C116  1  0.65440147  0.30809678  0.21631753  1  0.063871  0  -0.082561  -0.152401  0  3.969175  0
C  C117  1  0.41235035  0.67901575  0.74613104  1  -0.022631  0  -0.009619  -0.023284  0  4.016833  0
C  C118  1  0.58764086  0.32094453  0.25388602  1  -0.019029  0  -0.009795  -0.023327  0  4.016597  0
C  C119  1  0.18543857  0.69298593  0.78179348  1  -0.005597  0  -0.003786  0.085419  0  3.998844  0
C  C120  1  0.81457073  0.30701973  0.21821458  1  -0.00631  0  -0.00389  0.085287  0  3.998896  0
C  C121  1  0.13438263  0.74208857  0.75714778  1  -0.027469  0  -0.086206  -0.121555  0  3.959668  0
C  C122  1  0.86560138  0.25788268  0.24284612  1  -0.027525  0  -0.08613  -0.121601  0  3.95985  0
C  C123  1  0.08816921  0.77990968  0.80564089  1  -0.04983  0  -0.083056  -0.089641  0  3.972089  0
C  C124  1  0.91181161  0.22006303  0.19434291  1  -0.049624  0  -0.082901  -0.089616  0  3.972024  0
C  C125  1  0.08789885  0.76577510  0.87805328  1  -0.026386  0  -0.007657  -0.011551  0  3.932707  0
C  C126  1  0.91211532  0.23424082  0.12194846  1  -0.026524  0  -0.007886  -0.011658  0  3.932584  0
C  C127  1  0.13315440  0.71171382  0.90049197  1  -0.025495  0  -0.079658  -0.090698  0  3.971408  0
C  C128  1  0.86688120  0.28832700  0.09953119  1  -0.025493  0  -0.079404  -0.090656  0  3.971575  0
C  C129  1  0.18268117  0.67703795  0.85360814  1  -0.087058  0  -0.08797  -0.137711  0  3.978437  0
C  C130  1  0.81735662  0.32299776  0.14641846  1  -0.087339  0  -0.087808  -0.137406  0  3.978266  0
C  C131  1  0.04345589  0.81160742  0.93343424  1  1.585326  0  0.214985  0.590255  0  4.207934  0
C  C132  1  0.95656247  0.18841875  0.06656325  1  1.592712  0  0.215044  0.590517  0  4.207763  0
C  C133  1  0.53660317  0.63654099  0.81541918  1  -0.061453  0  -0.091639  -0.138824  0  3.988499  0
C  C134  1  0.46339458  0.36342077  0.18460990  1  -0.064037  0  -0.091396  -0.138214  0  3.988693  0
C  C135  1  0.51428201  0.70714367  0.79870230  1  -0.081639  0  -0.002904  0.092829  0  4.01248  0
C  C136  1  0.48570686  0.29281442  0.20131376  1  -0.081685  0  -0.003055  0.092218  0  4.012748  0
C  C137  1  0.58678111  0.80553802  0.83711419  1  0.073487  0  -0.090495  -0.139937  0  3.983703  0
C  C138  1  0.41321442  0.19441426  0.16288174  1  0.074688  0  -0.090326  -0.139636  0  3.983369  0
C  C139  1  0.67912718  0.83340120  0.89309737  1  -0.088139  0  -0.077265  -0.079235  0  3.964175  0
C  C140  1  0.32087060  0.16656425  0.10689583  1  -0.083163  0  -0.077263  -0.079347  0  3.964129  0
C  C141  1  0.69952147  0.76306419  0.91198567  1  -0.015916  0  -0.019044  -0.036965  0  3.981526  0
C  C142  1  0.30048145  0.23691661  0.08801965  1  -0.01741  0  -0.01893  -0.036785  0  3.981382  0
C  C143  1  0.62830892  0.66431146  0.87214648  1  -0.035274  0  -0.080695  -0.086714  0  3.982432  0
C  C144  1  0.37169637  0.33566348  0.12787917  1  -0.032736  0  -0.080661  -0.086783  0  3.982228  0
C  C145  1  0.05425301  0.50013782  0.59625054  1  0.391182  0  -0.141788  -0.168939  0  3.882551  0
C  C146  1  0.94574801  0.49988467  0.40371920  1  0.392941  0  -0.141503  -0.168393  0  3.882165  0
C  C147  1  0.05542313  0.01574035  0.19013096  1  1.537012  0  0.203952  0.580734  0  4.182271  0
C  C148  1  0.94458838  0.98427410  0.80986991  1  1.53838  0  0.203739  0.580494  0  4.182593  0
C  C149  1  0.79568841  0.79389096  0.97621326  1  1.55881  0  0.206564  0.580916  0  4.204243  0
C  C150  1  0.20432581  0.20611253  0.02379457  1  1.559607  0  0.206433  0.580819  0  4.203972  0
O  O151  1  0.07542147  0.99473298  0.12348650  1  -1.155101  0  -0.336712  -0.599951  0  2.291667  0
O  O152  1  0.92458078  0.00527706  0.87650604  1  -1.155836  0  -0.336675  -0.599927  0  2.291875  0
O  O153  1  0.86431422  0.88156486  0.00432376  1  -1.190649  0  -0.335061  -0.60398  0  2.342036  0
O  O154  1  0.13569149  0.11842840  0.99565069  1  -1.190099  0  -0.335141  -0.604068  0  2.341763  0
O  O155  1  0.80566585  0.73208795  0.00284719  1  -1.095107  0  -0.306585  -0.504262  0  2.123879  0
O  O156  1  0.19434522  0.26793305  0.99718227  1  -1.096418  0  -0.30659  -0.504324  0  2.123744  0
O  O157  1  0.12123683  0.81729234  0.17197895  1  -1.081403  0  -0.296634  -0.488423  0  2.029226  0
O  O158  1  0.87870679  0.18266272  0.82799020  1  -1.081504  0  -0.296636  -0.488551  0  2.02882  0
O  O159  1  0.00152357  0.94976189  0.20833355  1  -1.12725  0  -0.315119  -0.521861  0  2.123387  0
O  O160  1  0.99849287  0.05025184  0.79166857  1  -1.127287  0  -0.314894  -0.521619  0  2.123391  0
O  O161  1  0.24462485  0.71128955  0.51511441  1  -1.077442  0  -0.200463  -0.186965  0  2.564692  0
O  O162  1  0.75537167  0.28872119  0.48489433  1  -1.07685  0  -0.200586  -0.187057  0  2.564728  0
O  O163  1  0.01160403  0.76859385  0.97753726  1  -1.139956  0  -0.315394  -0.538537  0  2.259744  0
O  O164  1  0.98841304  0.23143523  0.02246241  1  -1.138744  0  -0.31544  -0.538788  0  2.259987  0
O  O165  1  0.25505524  0.42893252  0.53160194  1  -1.075259  0  -0.187666  -0.168381  0  2.565857  0
O  O166  1  0.74498592  0.57112147  0.46841743  1  -1.075748  0  -0.187629  -0.168242  0  2.565504  0
O  O167  1  0.44707681  0.62873005  0.62241548  1  -1.084212  0  -0.200094  -0.191014  0  2.552265  0
O  O168  1  0.55294690  0.37129391  0.37760880  1  -1.084402  0  -0.199939  -0.19103  0  2.552489  0
O  O169  1  0.96602636  0.70901878  0.14535546  1  -1.065962  0  -0.306946  -0.500464  0  2.087686  0
O  O170  1  0.03393384  0.29094363  0.85462302  1  -1.06596  0  -0.306704  -0.50031  0  2.087383  0
O  O171  1  0.04350012  0.88965033  0.93117941  1  -1.134311  0  -0.314995  -0.551529  0  2.265532  0
O  O172  1  0.95652288  0.11037440  0.06881248  1  -1.142194  0  -0.315059  -0.551675  0  2.265424  0
O  O173  1  0.12113149  0.59467883  0.60339586  1  -1.0902  0  -0.203734  -0.201565  0  2.585612  0
O  O174  1  0.87889161  0.40535758  0.39661068  1  -1.091012  0  -0.204062  -0.201702  0  2.585557  0
