# generated using pymatgen
data_MgH6C6SO6
_symmetry_space_group_name_H-M   'P 1'
_cell_length_a   6.70462638
_cell_length_b   7.24903309
_cell_length_c   17.73787925
_cell_angle_alpha   90.00080775
_cell_angle_beta   90.00070140
_cell_angle_gamma   89.99951032
_symmetry_Int_Tables_number   1
_chemical_formula_structural   MgH6C6SO6
_chemical_formula_sum   'Mg4 H24 C24 S4 O24'
_cell_volume   862.09744453
_cell_formula_units_Z   4
loop_
 _symmetry_equiv_pos_site_id
 _symmetry_equiv_pos_as_xyz
  1  'x, y, z'
loop_
 _atom_site_type_symbol
 _atom_site_label
 _atom_site_symmetry_multiplicity
 _atom_site_fract_x
 _atom_site_fract_y
 _atom_site_fract_z
 _atom_site_occupancy
 _atom_site_hle17_bader_spin_density
 _atom_site_hle17_ddec_charge
 _atom_site_hle17_ddec_spin_density
 _atom_site_hle17_ddec_sum_bond_order
 _atom_site_hle17_magmom
 _atom_site_hse06_10hf_bader_spin_density
 _atom_site_hse06_10hf_ddec_charge
 _atom_site_hse06_10hf_ddec_spin_density
 _atom_site_hse06_10hf_ddec_sum_bond_order
 _atom_site_hse06_10hf_magmom
 _atom_site_hse06_bader_spin_density
 _atom_site_hse06_ddec_charge
 _atom_site_hse06_ddec_spin_density
 _atom_site_hse06_ddec_sum_bond_order
 _atom_site_hse06_magmom
 _atom_site_pbe_bader_spin_density
 _atom_site_pbe_cm5_charge
 _atom_site_pbe_ddec_charge
 _atom_site_pbe_ddec_spin_density
 _atom_site_pbe_ddec_sum_bond_order
 _atom_site_pbe_magmom
Mg  Mg0  1  0.99999956  0.49999583  0.99999872  1  0  1.518145  0  1.099139  0  0  1.408165  0  1.354698  0  0  1.431145  0  1.319233  0  0  0.807537  1.391989  0  1.379332  0
Mg  Mg1  1  0.50000091  0.99999758  0.00000234  1  0  1.518261  0  1.098827  0  0  1.408116  0  1.35459  0  0  1.431097  0  1.319124  0  0  0.807549  1.391993  0  1.37914  0
Mg  Mg2  1  0.49999869  0.00000113  0.49999779  1  0  1.518209  0  1.098941  0  0  1.408124  0  1.354642  0  0  1.4311  0  1.319178  0  0  0.807516  1.391996  0  1.37919  0
Mg  Mg3  1  0.99999891  0.49999961  0.49999982  1  0  1.518192  0  1.098989  0  0  1.408095  0  1.354697  0  0  1.431064  0  1.319247  0  0  0.807567  1.392017  0  1.379181  0
H  H4  1  0.63710185  0.40500840  0.94008458  1  0  0.43522  0  0.859652  0  0  0.4052  0  0.92064  0  0  0.414966  0  0.90642  0  0  0.303524  0.398332  0  0.930636  0
H  H5  1  0.13710288  0.09498143  0.05991474  1  0  0.435189  0  0.859733  0  0  0.405146  0  0.920762  0  0  0.414913  0  0.90654  0  0  0.303516  0.398262  0  0.930777  0
H  H6  1  0.86288971  0.90501521  0.55991426  1  0  0.435122  0  0.859794  0  0  0.405127  0  0.920737  0  0  0.414891  0  0.906516  0  0  0.303533  0.398267  0  0.930723  0
H  H7  1  0.36289265  0.59498344  0.44008391  1  0  0.435202  0  0.859707  0  0  0.405182  0  0.920696  0  0  0.414948  0  0.906475  0  0  0.303534  0.398313  0  0.930693  0
H  H8  1  0.36289393  0.59498377  0.05991501  1  0  0.435124  0  0.859786  0  0  0.405127  0  0.920734  0  0  0.414893  0  0.90651  0  0  0.303535  0.398262  0  0.930727  0
H  H9  1  0.86289290  0.90501074  0.94008485  1  0  0.435176  0  0.859736  0  0  0.405156  0  0.920725  0  0  0.414923  0  0.906503  0  0  0.303504  0.398279  0  0.930732  0
H  H10  1  0.13709861  0.09498524  0.44008533  1  0  0.435203  0  0.859696  0  0  0.405177  0  0.920695  0  0  0.414939  0  0.90648  0  0  0.303519  0.398313  0  0.930685  0
H  H11  1  0.63710761  0.40501287  0.55991512  1  0  0.435198  0  0.859706  0  0  0.405179  0  0.920693  0  0  0.414946  0  0.906472  0  0  0.303523  0.398305  0  0.930698  0
H  H12  1  0.65008205  0.60632266  0.97304460  1  0  0.418805  0  0.885267  0  0  0.385064  0  0.95632  0  0  0.396313  0  0.939662  0  0  0.300355  0.377103  0  0.968117  0
H  H13  1  0.15008077  0.89366802  0.02696104  1  0  0.418698  0  0.885412  0  0  0.384958  0  0.956477  0  0  0.396212  0  0.93981  0  0  0.300309  0.376989  0  0.968286  0
H  H14  1  0.84991225  0.10632472  0.52695309  1  0  0.418704  0  0.885361  0  0  0.384958  0  0.956466  0  0  0.396205  0  0.93981  0  0  0.300327  0.377001  0  0.968258  0
H  H15  1  0.34992097  0.39367307  0.47304214  1  0  0.418725  0  0.885383  0  0  0.384993  0  0.956429  0  0  0.396241  0  0.939772  0  0  0.300325  0.377026  0  0.968233  0
H  H16  1  0.34991671  0.39366813  0.02695499  1  0  0.418744  0  0.885299  0  0  0.385017  0  0.95637  0  0  0.396265  0  0.939713  0  0  0.300341  0.377056  0  0.968167  0
H  H17  1  0.84991800  0.10632415  0.97303967  1  0  0.418765  0  0.885344  0  0  0.38502  0  0.956398  0  0  0.396273  0  0.939732  0  0  0.300332  0.377052  0  0.968204  0
H  H18  1  0.15008055  0.89367434  0.47304650  1  0  0.418698  0  0.885412  0  0  0.384963  0  0.956469  0  0  0.396208  0  0.939817  0  0  0.300322  0.377007  0  0.96826  0
H  H19  1  0.65007928  0.60632461  0.52695632  1  0  0.41872  0  0.885391  0  0  0.384983  0  0.956445  0  0  0.39623  0  0.93979  0  0  0.300319  0.377021  0  0.968242  0
H  H20  1  0.16865655  0.32150730  0.17498559  1  0  0.13033  0  0.934827  0  0  0.140115  0  0.993146  0  0  0.143566  0  0.990723  0  0  0.113993  0.13759  0  0.994968  0
H  H21  1  0.66862850  0.17846711  0.82501444  1  0  0.130218  0  0.935016  0  0  0.140008  0  0.993361  0  0  0.143449  0  0.990946  0  0  0.113958  0.137493  0  0.995182  0
H  H22  1  0.33137120  0.82149730  0.32502451  1  0  0.130212  0  0.934944  0  0  0.140013  0  0.993242  0  0  0.143469  0  0.990818  0  0  0.113901  0.137485  0  0.995064  0
H  H23  1  0.83136215  0.67848918  0.67498197  1  0  0.130275  0  0.934913  0  0  0.140068  0  0.993243  0  0  0.143514  0  0.990819  0  0  0.113946  0.137549  0  0.995064  0
H  H24  1  0.83134818  0.67849315  0.82501569  1  0  0.130291  0  0.934776  0  0  0.140073  0  0.993116  0  0  0.143522  0  0.990692  0  0  0.113936  0.137547  0  0.994938  0
H  H25  1  0.33137921  0.82152092  0.17499023  1  0  0.130198  0  0.935072  0  0  0.139986  0  0.993398  0  0  0.143434  0  0.990972  0  0  0.113944  0.137461  0  0.995221  0
H  H26  1  0.66865142  0.17850176  0.67497959  1  0  0.130294  0  0.934935  0  0  0.140078  0  0.993267  0  0  0.143526  0  0.99084  0  0  0.11394  0.137555  0  0.995087  0
H  H27  1  0.16863512  0.32151541  0.32502100  1  0  0.130272  0  0.934888  0  0  0.140062  0  0.993227  0  0  0.14351  0  0.990799  0  0  0.113935  0.137536  0  0.995045  0
C  C28  1  0.79715623  0.20890921  0.10198194  1  0  0.711306  0  3.882902  0  0  0.653024  0  4.183063  0  0  0.688321  0  4.171467  0  0  0.226646  0.629101  0  4.190264  0
C  C29  1  0.29714688  0.29106969  0.89800628  1  0  0.710688  0  3.882419  0  0  0.652641  0  4.18235  0  0  0.687936  0  4.170771  0  0  0.226394  0.628736  0  4.189529  0
C  C30  1  0.70287757  0.70889448  0.39801968  1  0  0.711263  0  3.882771  0  0  0.652904  0  4.183033  0  0  0.688189  0  4.171443  0  0  0.226556  0.628997  0  4.190222  0
C  C31  1  0.20285861  0.79109302  0.60198734  1  0  0.710992  0  3.883139  0  0  0.652783  0  4.183278  0  0  0.688072  0  4.171688  0  0  0.226534  0.628891  0  4.190465  0
C  C32  1  0.20283359  0.79109538  0.89801709  1  0  0.711244  0  3.882826  0  0  0.653006  0  4.182936  0  0  0.688303  0  4.171342  0  0  0.226677  0.629082  0  4.190132  0
C  C33  1  0.70285040  0.70892385  0.10199162  1  0  0.710574  0  3.882625  0  0  0.652471  0  4.18267  0  0  0.687759  0  4.17109  0  0  0.226332  0.628567  0  4.189852  0
C  C34  1  0.29714505  0.29110872  0.60197935  1  0  0.71152  0  3.882548  0  0  0.65314  0  4.182824  0  0  0.688426  0  4.171229  0  0  0.226761  0.629222  0  4.190029  0
C  C35  1  0.79713120  0.20891984  0.39801000  1  0  0.710828  0  3.882985  0  0  0.652614  0  4.183082  0  0  0.687895  0  4.171503  0  0  0.226337  0.628721  0  4.190264  0
C  C36  1  0.04169421  0.28510770  0.21031636  1  0  -0.060853  0  3.70352  0  0  -0.092956  0  3.970252  0  0  -0.091693  0  3.986971  0  0  -0.087602  -0.093545  0  3.95855  0
C  C37  1  0.54168109  0.21488427  0.78968083  1  0  -0.061031  0  3.70354  0  0  -0.093135  0  3.970346  0  0  -0.091856  0  3.987052  0  0  -0.087727  -0.09375  0  3.958668  0
C  C38  1  0.45833238  0.78510650  0.28969127  1  0  -0.060894  0  3.703869  0  0  -0.093028  0  3.970576  0  0  -0.091778  0  3.987302  0  0  -0.087628  -0.09362  0  3.958874  0
C  C39  1  0.95831370  0.71489965  0.71031635  1  0  -0.061117  0  3.703812  0  0  -0.093183  0  3.970619  0  0  -0.091915  0  3.987331  0  0  -0.087631  -0.093781  0  3.958919  0
C  C40  1  0.95830455  0.71489965  0.78968379  1  0  -0.060859  0  3.703599  0  0  -0.092943  0  3.970324  0  0  -0.091677  0  3.987042  0  0  -0.08753  -0.093533  0  3.958618  0
C  C41  1  0.45832811  0.78510927  0.21032046  1  0  -0.060913  0  3.703538  0  0  -0.092978  0  3.970321  0  0  -0.091705  0  3.987033  0  0  -0.08761  -0.093576  0  3.958627  0
C  C42  1  0.54168577  0.21489946  0.71031001  1  0  -0.060876  0  3.703793  0  0  -0.093012  0  3.970506  0  0  -0.091749  0  3.987216  0  0  -0.087545  -0.093608  0  3.958814  0
C  C43  1  0.04168059  0.28511183  0.28968549  1  0  -0.061157  0  3.703675  0  0  -0.093269  0  3.970461  0  0  -0.092002  0  3.987176  0  0  -0.087721  -0.09386  0  3.958754  0
C  C44  1  0.85632101  0.23645056  0.18088392  1  0  -0.169154  0  3.7361  0  0  -0.157131  0  4.017437  0  0  -0.16479  0  4.038234  0  0  -0.026368  -0.152014  0  4.003493  0
C  C45  1  0.35629741  0.26355546  0.81910908  1  0  -0.168907  0  3.736136  0  0  -0.157015  0  4.017496  0  0  -0.164683  0  4.038294  0  0  -0.026288  -0.151889  0  4.003535  0
C  C46  1  0.64369912  0.73643220  0.31911785  1  0  -0.169333  0  3.736472  0  0  -0.157214  0  4.017731  0  0  -0.164863  0  4.038522  0  0  -0.0264  -0.152087  0  4.003763  0
C  C47  1  0.14368894  0.76356405  0.68088889  1  0  -0.16887  0  3.735964  0  0  -0.157047  0  4.017508  0  0  -0.164703  0  4.038301  0  0  -0.026375  -0.151921  0  4.003541  0
C  C48  1  0.14367925  0.76356368  0.81911567  1  0  -0.169214  0  3.736293  0  0  -0.157256  0  4.017679  0  0  -0.164918  0  4.03848  0  0  -0.026475  -0.152134  0  4.003726  0
C  C49  1  0.64371179  0.73644085  0.18088994  1  0  -0.168869  0  3.736175  0  0  -0.157027  0  4.017629  0  0  -0.164684  0  4.038416  0  0  -0.026335  -0.151903  0  4.00367  0
C  C50  1  0.35632053  0.26356963  0.68088230  1  0  -0.169208  0  3.736202  0  0  -0.15709  0  4.017478  0  0  -0.164735  0  4.038263  0  0  -0.026416  -0.151969  0  4.003525  0
C  C51  1  0.85630088  0.23645157  0.31911014  1  0  -0.168893  0  3.736019  0  0  -0.156931  0  4.017368  0  0  -0.16459  0  4.038167  0  0  -0.026316  -0.151798  0  4.003389  0
S  S52  1  0.68379072  0.19243967  0.24999425  1  0  0.208885  0  2.689475  0  0  0.206818  0  3.012491  0  0  0.205403  0  3.025482  0  0  0.126344  0.207214  0  3.004401  0
S  S53  1  0.18379133  0.30757738  0.74999232  1  0  0.208938  0  2.689554  0  0  0.20686  0  3.012544  0  0  0.205452  0  3.025535  0  0  0.126341  0.20725  0  3.004451  0
S  S54  1  0.81622235  0.69243410  0.25000501  1  0  0.20901  0  2.689592  0  0  0.206953  0  3.012607  0  0  0.205548  0  3.025595  0  0  0.126424  0.207345  0  3.004516  0
S  S55  1  0.31620357  0.80757871  0.75000478  1  0  0.208903  0  2.689405  0  0  0.206907  0  3.01247  0  0  0.205494  0  3.025464  0  0  0.126358  0.207298  0  3.004377  0
O  O56  1  0.92689846  0.24478981  0.04954541  1  0  -0.768362  0  2.082701  0  0  -0.688538  0  2.30563  0  0  -0.714125  0  2.292596  0  0  -0.348364  -0.670741  0  2.314254  0
O  O57  1  0.42686727  0.25520323  0.95044172  1  0  -0.76799  0  2.082776  0  0  -0.688194  0  2.305615  0  0  -0.713784  0  2.292606  0  0  -0.348136  -0.670463  0  2.314277  0
O  O58  1  0.57312457  0.74479172  0.45045641  1  0  -0.768354  0  2.082424  0  0  -0.688498  0  2.305382  0  0  -0.714094  0  2.292383  0  0  -0.348296  -0.670763  0  2.314056  0
O  O59  1  0.07311766  0.75521750  0.54955338  1  0  -0.768081  0  2.082707  0  0  -0.688278  0  2.305636  0  0  -0.713846  0  2.292604  0  0  -0.348245  -0.670599  0  2.31434  0
O  O60  1  0.07309881  0.75520374  0.95045475  1  0  -0.768361  0  2.082663  0  0  -0.688557  0  2.305566  0  0  -0.714153  0  2.292556  0  0  -0.3484  -0.670766  0  2.314206  0
O  O61  1  0.57312851  0.74478756  0.04955843  1  0  -0.767914  0  2.082961  0  0  -0.688089  0  2.305794  0  0  -0.713675  0  2.292793  0  0  -0.348116  -0.670357  0  2.31445  0
O  O62  1  0.42688463  0.25521286  0.54954205  1  0  -0.768431  0  2.082464  0  0  -0.688599  0  2.30545  0  0  -0.714181  0  2.292421  0  0  -0.348357  -0.670821  0  2.314084  0
O  O63  1  0.92687066  0.24478846  0.45044677  1  0  -0.768095  0  2.082703  0  0  -0.688249  0  2.305589  0  0  -0.713804  0  2.29256  0  0  -0.34819  -0.670572  0  2.314291  0
O  O64  1  0.62518997  0.14529014  0.08868552  1  0  -0.68053  0  1.98977  0  0  -0.623151  0  2.228262  0  0  -0.645145  0  2.216437  0  0  -0.340263  -0.607963  0  2.235902  0
O  O65  1  0.12512827  0.35470668  0.91130586  1  0  -0.680346  0  1.988457  0  0  -0.623195  0  2.226961  0  0  -0.645191  0  2.215135  0  0  -0.340347  -0.607996  0  2.234587  0
O  O66  1  0.87482651  0.64527588  0.41131460  1  0  -0.68032  0  1.98991  0  0  -0.622944  0  2.228417  0  0  -0.644964  0  2.216672  0  0  -0.340173  -0.607758  0  2.236036  0
O  O67  1  0.37483040  0.85471025  0.58869095  1  0  -0.680451  0  1.989751  0  0  -0.623129  0  2.228253  0  0  -0.645111  0  2.216409  0  0  -0.340276  -0.607934  0  2.235871  0
O  O68  1  0.37480879  0.85470754  0.91131745  1  0  -0.680509  0  1.989629  0  0  -0.623117  0  2.228068  0  0  -0.645115  0  2.216252  0  0  -0.340272  -0.607928  0  2.235703  0
O  O69  1  0.87486453  0.64527445  0.08869092  1  0  -0.680405  0  1.988581  0  0  -0.623193  0  2.227056  0  0  -0.645213  0  2.215288  0  0  -0.340351  -0.607991  0  2.23468  0
O  O70  1  0.12518418  0.35472456  0.58868668  1  0  -0.680634  0  1.989949  0  0  -0.623166  0  2.228348  0  0  -0.645202  0  2.216635  0  0  -0.340326  -0.607979  0  2.235975  0
O  O71  1  0.62515345  0.14529571  0.41130639  1  0  -0.680348  0  1.989463  0  0  -0.623062  0  2.227986  0  0  -0.645035  0  2.21613  0  0  -0.34018  -0.60788  0  2.235631  0
O  O72  1  0.72697220  0.51278386  0.94397169  1  0  -0.880214  0  1.838094  0  0  -0.828956  0  2.021404  0  0  -0.845517  0  1.989094  0  0  -0.608732  -0.817282  0  2.043915  0
O  O73  1  0.22696951  0.98720759  0.05603205  1  0  -0.880112  0  1.838155  0  0  -0.828852  0  2.021532  0  0  -0.845417  0  1.989219  0  0  -0.608731  -0.817169  0  2.044078  0
O  O74  1  0.77302147  0.01278892  0.55602658  1  0  -0.880087  0  1.838218  0  0  -0.828843  0  2.021592  0  0  -0.845402  0  1.989297  0  0  -0.608762  -0.817173  0  2.044072  0
O  O75  1  0.27302988  0.48720811  0.44396886  1  0  -0.88014  0  1.838108  0  0  -0.828916  0  2.021472  0  0  -0.845475  0  1.989173  0  0  -0.608787  -0.817249  0  2.043973  0
O  O76  1  0.27302209  0.48721106  0.05602677  1  0  -0.880103  0  1.838248  0  0  -0.828874  0  2.021598  0  0  -0.845431  0  1.989295  0  0  -0.608749  -0.817202  0  2.044102  0
O  O77  1  0.77302627  0.01278596  0.94396980  1  0  -0.880153  0  1.838105  0  0  -0.828899  0  2.021458  0  0  -0.845462  0  1.989143  0  0  -0.608738  -0.817232  0  2.043986  0
O  O78  1  0.22696984  0.98720877  0.44397245  1  0  -0.880137  0  1.838175  0  0  -0.828887  0  2.02153  0  0  -0.845452  0  1.989233  0  0  -0.608726  -0.817213  0  2.044017  0
O  O79  1  0.72697037  0.51279096  0.55603073  1  0  -0.880112  0  1.838086  0  0  -0.828872  0  2.021432  0  0  -0.84543  0  1.989134  0  0  -0.608759  -0.817203  0  2.043938  0
