# generated using pymatgen
data_CuH12C14(NO2)3
_symmetry_space_group_name_H-M   'P 1'
_cell_length_a   6.84397163
_cell_length_b   10.36779053
_cell_length_c   10.86772831
_cell_angle_alpha   68.98895301
_cell_angle_beta   81.05791304
_cell_angle_gamma   75.45889270
_symmetry_Int_Tables_number   1
_chemical_formula_structural   CuH12C14(NO2)3
_chemical_formula_sum   'Cu2 H24 C28 N6 O12'
_cell_volume   694.98062568
_cell_formula_units_Z   2
loop_
 _symmetry_equiv_pos_site_id
 _symmetry_equiv_pos_as_xyz
  1  'x, y, z'
loop_
 _atom_site_type_symbol
 _atom_site_label
 _atom_site_symmetry_multiplicity
 _atom_site_fract_x
 _atom_site_fract_y
 _atom_site_fract_z
 _atom_site_occupancy
 _atom_site_hle17_ddec_charge
 _atom_site_hle17_ddec_spin_density
 _atom_site_hle17_ddec_sum_bond_order
 _atom_site_hle17_magmom
 _atom_site_hse06_10hf_ddec_charge
 _atom_site_hse06_10hf_ddec_spin_density
 _atom_site_hse06_10hf_ddec_sum_bond_order
 _atom_site_hse06_10hf_magmom
 _atom_site_hse06_ddec_charge
 _atom_site_hse06_ddec_spin_density
 _atom_site_hse06_ddec_sum_bond_order
 _atom_site_hse06_magmom
 _atom_site_pbe_cm5_charge
 _atom_site_pbe_ddec_charge
 _atom_site_pbe_ddec_spin_density
 _atom_site_pbe_ddec_sum_bond_order
 _atom_site_pbe_magmom
Cu  Cu0  1  0.14755962  0.08479905  0.36509865  1  0.898592  -0.740337  1.775914  -0.522  0.874155  -0.819798  2.168097  -0.637  0.959763  -0.892621  2.103283  -0.72  0.738396  0.821039  -0.763801  2.214269  -0.58
Cu  Cu1  1  0.85244167  0.91520201  0.63490140  1  0.898615  0.740333  1.775901  0.522  0.874214  0.819807  2.168073  0.637  0.959801  0.892619  2.103243  0.72  0.738416  0.821072  0.763786  2.214299  0.581
H  H2  1  0.17294630  0.08459185  0.58297563  1  0.408988  0.000163  0.908081  0.001  0.376868  -0.000285  0.976988  0.0  0.390769  -0.000102  0.957487  0.0  0.283176  0.367364  -0.000546  0.990214  0.0
H  H3  1  0.82705351  0.91540921  0.41702457  1  0.408993  -0.000163  0.908069  -0.001  0.376867  0.000286  0.976991  0.0  0.390768  0.000102  0.957489  0.0  0.283178  0.367361  0.000547  0.99022  0.0
H  H4  1  0.31782131  0.92788831  0.59478540  1  0.42606  -0.000329  0.875811  0.0  0.401186  -0.000771  0.930952  -0.001  0.414539  -0.000567  0.911831  -0.001  0.291281  0.392046  -0.000892  0.943926  -0.001
H  H5  1  0.68217882  0.07211169  0.40521604  1  0.4261  0.000329  0.875775  0.0  0.401229  0.000771  0.930904  0.001  0.414582  0.000567  0.911783  0.001  0.291299  0.392087  0.000893  0.943881  0.001
H  H6  1  0.37141230  0.76337847  0.49033663  1  0.092684  -0.001488  0.980654  -0.003  0.09696  -0.001141  1.047655  -0.002  0.099446  -0.000805  1.044481  -0.002  0.118448  0.094545  -0.001388  1.050482  -0.002
H  H7  1  0.62859935  0.23662257  0.50966243  1  0.092678  0.001488  0.980665  0.003  0.096965  0.001141  1.047665  0.002  0.099455  0.000805  1.044482  0.002  0.11844  0.094543  0.001389  1.050491  0.002
H  H8  1  0.51720430  0.57263479  0.39264017  1  0.107411  -0.000523  0.957684  -0.001  0.120418  -0.000453  1.012696  -0.001  0.123  -0.000335  1.012436  0.0  0.111349  0.118217  -0.000582  1.013617  -0.001
H  H9  1  0.48280618  0.42736521  0.60735843  1  0.107421  0.000523  0.957719  0.001  0.120433  0.000453  1.012711  0.001  0.123016  0.000335  1.012451  0.0  0.111372  0.118233  0.000581  1.013629  0.001
H  H10  1  0.50927879  0.62259525  0.15183911  1  0.117661  -0.000363  0.932273  -0.001  0.12507  -5.9e-05  0.995117  0.0  0.128765  -2.2e-05  0.991334  0.0  0.115172  0.122339  -0.0001  0.99791  0.0
H  H11  1  0.49072577  0.37740475  0.84816006  1  0.117704  0.000363  0.932221  0.001  0.125093  5.9e-05  0.995102  0.0  0.128791  2.2e-05  0.991316  0.0  0.115166  0.122358  0.0001  0.997895  0.0
H  H12  1  0.25620432  0.05335658  0.79719038  1  0.118393  -0.000477  0.940164  -0.001  0.130597  -0.000322  0.996503  -0.001  0.13308  -0.00019  0.995843  0.0  0.109943  0.128504  -0.000622  0.997138  -0.001
H  H13  1  0.74379317  0.94664237  0.20281075  1  0.118388  0.000477  0.940175  0.001  0.130593  0.000321  0.996512  0.001  0.133075  0.00019  0.995853  0.0  0.109926  0.128497  0.000622  0.997147  0.001
H  H14  1  0.42715967  0.81070521  0.92539179  1  0.110666  -0.000389  0.984279  -0.001  0.114677  -0.000259  1.055469  0.0  0.117393  -0.000155  1.054516  0.0  0.103044  0.112435  -0.00029  1.05656  0.0
H  H15  1  0.57284162  0.18929586  0.07460735  1  0.110651  0.000389  0.984305  0.001  0.114661  0.000259  1.055492  0.0  0.117363  0.000156  1.054554  0.0  0.10304  0.112411  0.000291  1.056585  0.0
H  H16  1  0.04370995  0.29331153  0.79608809  1  0.107774  -0.000421  0.959948  -0.001  0.114465  -6.8e-05  1.029101  0.0  0.117624  -1.6e-05  1.026758  0.0  0.109164  0.111533  -0.00013  1.031741  0.0
H  H17  1  0.95628605  0.70668742  0.20391411  1  0.107745  0.00042  0.959929  0.001  0.114461  6.8e-05  1.029064  0.0  0.117611  1.6e-05  1.026737  0.0  0.109177  0.111524  0.00013  1.031707  0.0
H  H18  1  0.86513988  0.45059844  0.92910485  1  0.120384  -0.000606  0.964154  -0.001  0.129453  -0.000539  1.023222  -0.001  0.13242  -0.000395  1.022517  0.0  0.110457  0.126524  -0.00062  1.025249  -0.001
H  H19  1  0.13485316  0.54940051  0.07089763  1  0.120398  0.000607  0.964156  0.001  0.129475  0.000539  1.023212  0.001  0.132443  0.000395  1.02251  0.0  0.110454  0.126543  0.00062  1.025238  0.001
H  H20  1  0.90546656  0.36251700  0.17464588  1  0.097382  -0.001833  0.93539  -0.003  0.103458  -0.001313  1.000156  -0.002  0.105761  -0.000878  0.997453  -0.002  0.123679  0.10105  -0.001637  1.003191  -0.003
H  H21  1  0.09452712  0.63747983  0.82535817  1  0.097411  0.001832  0.935264  0.003  0.103458  0.001313  1.000044  0.002  0.105764  0.000878  0.997332  0.002  0.12366  0.101051  0.001638  1.003088  0.003
H  H22  1  0.11820540  0.51651029  0.36427727  1  0.106981  0.000363  0.926834  0.0  0.122278  0.000151  0.986945  0.0  0.123381  0.000122  0.987681  0.0  0.103697  0.121876  0.000147  0.98595  0.0
H  H23  1  0.88179377  0.48349291  0.63571951  1  0.10694  -0.000363  0.926824  0.0  0.122253  -0.000151  0.986933  0.0  0.123353  -0.000122  0.987685  0.0  0.103688  0.121852  -0.000147  0.985938  0.0
H  H24  1  0.86037325  0.51208690  0.39585662  1  0.104377  0.000267  0.935407  0.0  0.119872  -2.5e-05  0.994835  0.0  0.121639  -5e-06  0.994237  0.0  0.102466  0.11878  -5.8e-05  0.995203  0.0
H  H25  1  0.13962540  0.48791311  0.60414312  1  0.104354  -0.000267  0.93535  0.0  0.11986  2.6e-05  0.994791  0.0  0.121629  5e-06  0.994194  0.0  0.102438  0.118765  5.8e-05  0.99516  0.0
C  C26  1  0.36606492  0.78476212  0.38487846  1  0.161363  0.006727  3.636257  0.008  0.132797  0.000843  3.893334  0.002  0.144819  0.001862  3.908978  0.003  0.060489  0.125173  5.8e-05  3.883385  0.001
C  C27  1  0.63393964  0.21523788  0.61512071  1  0.161366  -0.006727  3.636299  -0.008  0.132764  -0.000843  3.893376  -0.002  0.144787  -0.001861  3.909023  -0.003  0.060454  0.125149  -5.7e-05  3.883428  -0.001
C  C28  1  0.44955681  0.67766169  0.32920416  1  -0.10565  -0.009306  3.699344  -0.01  -0.121151  -0.004295  3.955197  -0.005  -0.128474  -0.003713  3.974222  -0.005  -0.076566  -0.116571  -0.004777  3.942877  -0.006
C  C29  1  0.55044956  0.32233726  0.67079519  1  -0.105673  0.009307  3.699342  0.01  -0.121157  0.004295  3.955177  0.005  -0.128483  0.003713  3.974207  0.005  -0.076548  -0.116578  0.004777  3.942862  0.006
C  C30  1  0.44568904  0.70553644  0.19521795  1  -0.034894  0.008108  3.658353  0.008  -0.05986  0.002809  3.907612  0.003  -0.055017  0.002945  3.922338  0.003  -0.055031  -0.063487  0.00279  3.897881  0.003
C  C31  1  0.55431669  0.29446461  0.80478167  1  -0.034928  -0.008109  3.658275  -0.008  -0.059904  -0.002811  3.907518  -0.003  -0.055067  -0.002944  3.92225  -0.003  -0.055044  -0.063525  -0.002791  3.897789  -0.003
C  C32  1  0.35579851  0.84277774  0.11554154  1  0.026561  -0.004688  3.79825  -0.005  0.044949  -0.002241  4.022735  -0.003  0.041965  -0.001855  4.04687  -0.002  0.001415  0.047233  -0.002541  4.006569  -0.003
C  C33  1  0.64420194  0.15722121  0.88445931  1  0.026546  0.004688  3.798258  0.005  0.044959  0.002239  4.022718  0.003  0.041977  0.001855  4.04685  0.002  0.001402  0.047237  0.002542  4.006554  0.003
C  C34  1  0.26800903  0.94244683  0.18017954  1  0.127465  0.000877  3.775036  0.001  0.123426  -0.000832  4.012879  0.0  0.129399  -9e-06  4.034828  0.001  0.116171  0.119323  -0.001442  3.998045  -0.001
C  C35  1  0.73198993  0.05755212  0.81982238  1  0.127473  -0.000879  3.774931  -0.001  0.123404  0.000832  4.012781  0.0  0.12938  1.1e-05  4.034731  -0.001  0.11613  0.119316  0.001443  3.997943  0.001
C  C36  1  0.16636370  0.08103039  0.10652840  1  0.123028  0.001264  3.784746  0.002  0.118133  -0.000905  4.02432  0.0  0.123427  9.5e-05  4.046738  0.001  0.115241  0.115399  -0.001632  4.009041  -0.001
C  C37  1  0.83363082  0.91896856  0.89347301  1  0.122988  -0.001257  3.78472  -0.002  0.118074  0.000904  4.024274  0.0  0.123367  -9.5e-05  4.046692  -0.001  0.115268  0.115339  0.001633  4.009007  0.001
C  C38  1  0.15901944  0.12124790  0.96823757  1  0.030364  -0.005858  3.794149  -0.006  0.046113  -0.002709  4.023448  -0.003  0.04343  -0.002206  4.047023  -0.003  0.000652  0.047809  -0.002941  4.007893  -0.003
C  C39  1  0.84097689  0.87875000  0.03176495  1  0.03024  0.00585  3.794199  0.006  0.046086  0.002709  4.023368  0.003  0.043401  0.002204  4.046947  0.003  0.000611  0.047784  0.002941  4.007817  0.003
C  C40  1  0.25734008  0.02038377  0.90421453  1  -0.091838  -0.001402  3.70027  -0.001  -0.116128  -0.001116  3.959362  -0.001  -0.118773  -0.000804  3.98187  -0.001  -0.082624  -0.114428  -0.001113  3.944728  -0.001
C  C41  1  0.74265593  0.97961519  0.09578674  1  -0.091832  0.001399  3.700323  0.001  -0.116155  0.001117  3.959399  0.001  -0.118798  0.000804  3.981903  0.001  -0.082607  -0.114453  0.001114  3.944756  0.001
C  C42  1  0.35115771  0.88645352  0.97495477  1  -0.097166  -0.001432  3.716653  -0.001  -0.120986  -0.000751  3.974792  -0.001  -0.125093  -0.000602  3.999202  -0.001  -0.084608  -0.118585  -0.000802  3.959293  -0.001
C  C43  1  0.64883946  0.11354649  0.02504511  1  -0.097091  0.001434  3.716628  0.001  -0.120921  0.000751  3.974766  0.001  -0.125013  0.000602  3.999178  0.001  -0.084577  -0.118512  0.000802  3.959255  0.001
C  C44  1  0.05217499  0.25921513  0.90284239  1  -0.039925  0.009112  3.660706  0.009  -0.064287  0.003002  3.906512  0.003  -0.060493  0.003176  3.923614  0.003  -0.059185  -0.06726  0.002748  3.896584  0.003
C  C45  1  0.94782397  0.74078382  0.09715860  1  -0.039681  -0.009094  3.660705  -0.008  -0.064086  -0.003004  3.906464  -0.003  -0.06029  -0.003172  3.923567  -0.003  -0.059121  -0.067053  -0.002748  3.896533  -0.003
C  C46  1  0.95689286  0.34605720  0.97573887  1  -0.113786  -0.011473  3.684819  -0.012  -0.124293  -0.005177  3.930894  -0.006  -0.133188  -0.004364  3.95235  -0.005  -0.076578  -0.118726  -0.005704  3.918975  -0.007
C  C47  1  0.04310018  0.65394174  0.02426453  1  -0.113878  0.011454  3.684832  0.012  -0.12443  0.005178  3.93094  0.006  -0.133315  0.004362  3.952366  0.005  -0.076627  -0.118859  0.005704  3.919027  0.007
C  C48  1  0.97488793  0.29771919  0.11309036  1  0.165172  0.007462  3.637723  0.008  0.133485  0.00064  3.897752  0.002  0.145786  0.001909  3.913009  0.003  0.065762  0.125535  -0.000326  3.889423  0.001
C  C49  1  0.02510396  0.70227871  0.88691260  1  0.165115  -0.007447  3.637619  -0.008  0.133505  -0.00064  3.897588  -0.002  0.145808  -0.001908  3.912846  -0.003  0.065806  0.125553  0.000327  3.889273  -0.001
C  C50  1  0.06160553  0.31460156  0.47707817  1  0.696751  0.002981  3.806757  0.007  0.656604  -0.001023  4.111744  0.001  0.692407  -0.000563  4.107568  0.001  0.214478  0.632189  -0.001407  4.113498  0.001
C  C51  1  0.93839576  0.68539951  0.52292004  1  0.696733  -0.002981  3.806808  -0.007  0.656613  0.001025  4.111789  -0.001  0.692415  0.000565  4.107616  -0.001  0.214516  0.632201  0.001409  4.113548  -0.001
C  C52  1  0.00485361  0.47418820  0.44232948  1  -0.237711  -0.007853  3.698619  -0.008  -0.281879  -0.004  3.954529  -0.004  -0.287476  -0.002713  3.96353  -0.003  -0.166051  -0.277633  -0.004925  3.9474  -0.005
C  C53  1  0.99514768  0.52581289  0.55766689  1  -0.237564  0.007852  3.69847  0.008  -0.281775  0.003999  3.954392  0.004  -0.287386  0.002709  3.963418  0.003  -0.166016  -0.277527  0.004926  3.947266  0.005
N  N54  1  0.27583203  0.91368270  0.31187992  1  -0.326213  -0.078338  3.304379  -0.096  -0.286196  -0.054327  3.602169  -0.071  -0.317113  -0.045316  3.62302  -0.063  -0.340649  -0.267303  -0.059279  3.589955  -0.075
N  N55  1  0.72417254  0.08631730  0.68812018  1  -0.326215  0.078342  3.304282  0.096  -0.286148  0.05433  3.602044  0.071  -0.317067  0.045317  3.62289  0.063  -0.340601  -0.267253  0.05928  3.589843  0.075
N  N56  1  0.07884958  0.16916027  0.17575493  1  -0.312718  -0.088794  3.321999  -0.109  -0.274302  -0.060973  3.620764  -0.08  -0.305015  -0.05075  3.64107  -0.07  -0.337898  -0.256953  -0.065676  3.609617  -0.083
N  N57  1  0.92114791  0.83083869  0.82424620  1  -0.312714  0.088782  3.322066  0.109  -0.274344  0.060974  3.620855  0.08  -0.305053  0.05075  3.641147  0.07  -0.337934  -0.256994  0.065674  3.609737  0.083
N  N58  1  0.48087042  0.29960778  0.25971537  1  0.695673  0.0004  4.140255  0.0  0.72991  0.000542  4.440304  0.001  0.758014  0.000364  4.445424  0.0  0.097945  0.723882  0.000619  4.417128  0.001
N  N59  1  0.51913087  0.70039328  0.74028468  1  0.69563  -0.000403  4.140355  0.0  0.72988  -0.000543  4.440394  -0.001  0.757988  -0.000369  4.445512  0.0  0.097964  0.723875  -0.000619  4.417196  -0.001
O  O60  1  0.18981619  0.99559335  0.55740813  1  -0.839344  -0.061246  2.027325  -0.077  -0.811178  -0.044817  2.273372  -0.06  -0.846142  -0.036021  2.231748  -0.051  -0.584281  -0.787084  -0.050654  2.301886  -0.066
O  O61  1  0.81018182  0.00440876  0.44259281  1  -0.839389  0.061246  2.027282  0.077  -0.811225  0.044815  2.27335  0.06  -0.846182  0.036021  2.231715  0.051  -0.584287  -0.78713  0.050654  2.3019  0.066
O  O62  1  0.04008707  0.27188310  0.38346130  1  -0.599577  -0.099312  2.069838  -0.129  -0.583901  -0.057666  2.368176  -0.083  -0.629725  -0.042893  2.363949  -0.065  -0.330776  -0.552175  -0.067041  2.370893  -0.092
O  O63  1  0.95991453  0.72811692  0.61653724  1  -0.59961  0.099312  2.069955  0.129  -0.583971  0.057665  2.368299  0.083  -0.629791  0.042892  2.364061  0.065  -0.330809  -0.552233  0.067043  2.371024  0.092
O  O64  1  0.12526836  0.23598019  0.58858477  1  -0.609679  -0.000215  1.95778  -0.001  -0.557415  0.000115  2.175274  0.0  -0.584053  0.000618  2.168343  0.001  -0.313145  -0.538218  -0.000315  2.179705  -0.001
O  O65  1  0.87473409  0.76402194  0.41141297  1  -0.60967  0.000216  1.957727  0.001  -0.557405  -0.000118  2.175216  0.0  -0.584041  -0.000616  2.168287  -0.001  -0.313151  -0.538206  0.000316  2.179648  0.001
O  O66  1  0.49249908  0.16437953  0.31437492  1  -0.530651  0.002798  1.801446  0.002  -0.522859  0.001655  2.035492  0.001  -0.541709  0.001294  2.023787  0.001  -0.214144  -0.513746  0.002662  2.038369  0.002
O  O67  1  0.50750221  0.83562151  0.68562790  1  -0.530629  -0.002796  1.801452  -0.002  -0.522848  -0.001654  2.035495  -0.001  -0.54169  -0.001287  2.023769  -0.001  -0.214119  -0.513742  -0.002661  2.038369  -0.002
O  O68  1  0.55100401  0.36349804  0.31608284  1  -0.460833  0.001091  1.749807  0.001  -0.449118  0.000616  1.956655  0.001  -0.462221  0.000336  1.950872  0.0  -0.186447  -0.443902  0.001106  1.955038  0.002
O  O69  1  0.44899696  0.63650408  0.68391689  1  -0.46084  -0.00109  1.749848  -0.001  -0.449117  -0.000616  1.956692  -0.001  -0.462223  -0.000332  1.950906  0.0  -0.186473  -0.443909  -0.001105  1.955069  -0.002
O  O70  1  0.40117746  0.36267788  0.15171542  1  -0.443784  0.001596  1.73967  0.002  -0.441358  0.00091  1.949731  0.001  -0.452372  0.000472  1.943136  0.001  -0.184466  -0.436765  0.001621  1.94817  0.002
O  O71  1  0.59882087  0.63732319  0.84828492  1  -0.443734  -0.001595  1.739707  -0.002  -0.441324  -0.000912  1.949785  -0.001  -0.452338  -0.00048  1.943176  -0.001  -0.184467  -0.436735  -0.001621  1.948218  -0.002
