# generated using pymatgen
data_ZnH11C20N3O10
_symmetry_space_group_name_H-M   'P 1'
_cell_length_a   11.06127441
_cell_length_b   15.98660961
_cell_length_c   17.18356893
_cell_angle_alpha   96.76814415
_cell_angle_beta   89.84730953
_cell_angle_gamma   93.07211964
_symmetry_Int_Tables_number   1
_chemical_formula_structural   ZnH11C20N3O10
_chemical_formula_sum   'Zn2 H22 C40 N6 O20'
_cell_volume   3013.07721581
_cell_formula_units_Z   2
loop_
 _symmetry_equiv_pos_site_id
 _symmetry_equiv_pos_as_xyz
  1  'x, y, z'
loop_
 _atom_site_type_symbol
 _atom_site_label
 _atom_site_symmetry_multiplicity
 _atom_site_fract_x
 _atom_site_fract_y
 _atom_site_fract_z
 _atom_site_occupancy
 _atom_site_pbe_bader_charge
 _atom_site_pbe_bader_spin_density
 _atom_site_pbe_cm5_charge
 _atom_site_pbe_ddec_charge
 _atom_site_pbe_ddec_spin_density
 _atom_site_pbe_ddec_sum_bond_order
 _atom_site_pbe_magmom
Zn  Zn0  1  0.49228299  0.40449693  0.49888680  1  1.299393  0  0.685196  0.842268  0  2.392724  0
Zn  Zn1  1  0.49800827  0.59019173  0.50688114  1  1.291459  0  0.676567  0.838111  0  2.404817  0
H  H2  1  0.39385943  0.71372779  0.42192389  1  0.12019  0  0.119953  0.090191  0  0.998028  0
H  H3  1  0.39798720  0.87119353  0.42156899  1  0.131928  0  0.11713  0.131313  0  1.010755  0
H  H4  1  0.68868192  0.88994373  0.59164885  1  0.135451  0  0.131597  0.161724  0  0.959078  0
H  H5  1  0.31212520  0.10106185  0.42344945  1  0.13718  0  0.131782  0.160325  0  0.959349  0
H  H6  1  0.64829627  0.12685252  0.55507344  1  0.128556  0  0.121182  0.137883  0  0.995879  0
H  H7  1  0.63931328  0.28290088  0.55757445  1  0.149315  0  0.124961  0.104939  0  0.998058  0
H  H8  1  0.48908230  0.61870917  0.26665270  1  0.093019  0  0.105324  0.112052  0  0.993458  0
H  H9  1  0.48493602  0.61634001  0.12075482  1  0.113806  0  0.112641  0.122855  0  1.00438  0
H  H10  1  0.52419246  0.34746055  0.09599300  1  0.153244  0  0.119642  0.142168  0  0.975261  0
H  H11  1  0.50284422  0.66377773  0.90629959  1  0.111328  0  0.118465  0.142201  0  0.975084  0
H  H12  1  0.47817658  0.39197499  0.88711665  1  0.122448  0  0.106538  0.112479  0  1.016679  0
H  H13  1  0.47086099  0.38652194  0.74039389  1  0.116447  0  0.110572  0.119185  0  0.979085  0
H  H14  1  0.76680445  0.59280314  0.40669393  1  0.095787  0  0.106915  0.11294  0  1.040216  0
H  H15  1  0.21460743  0.58661979  0.38245875  1  0.105869  0  0.111255  0.124391  0  1.008971  0
H  H16  1  0.69909571  0.66557467  0.56994038  1  0.660673  0  0.311559  0.368076  0  0.962701  0
H  H17  1  0.28814325  0.32263301  0.44510893  1  0.655812  0  0.316147  0.372383  0  0.950547  0
H  H18  1  0.52179775  0.34660114  0.30289872  1  0.628477  0  0.305626  0.355123  0  0.964582  0
H  H19  1  0.49099032  0.65900982  0.69913559  1  0.658917  0  0.300657  0.350889  0  0.977398  0
H  H20  1  0.15414254  0.48535941  0.66915549  1  0.602769  0  0.341895  0.372129  0  0.864193  0
H  H21  1  0.82296078  0.50157788  0.66549121  1  0.609599  0  0.339786  0.37143  0  0.867468  0
H  H22  1  0.71882571  0.62179239  0.29095790  1  0.638401  0  0.328749  0.362917  0  0.905133  0
H  H23  1  0.17327258  0.76480073  0.36880101  1  0.607307  0  0.338066  0.374587  0  0.866863  0
C  C24  1  0.51130814  0.48858733  0.34984414  1  1.425328  0  0.205843  0.59304  0  4.176892  0
C  C25  1  0.25769463  0.49556073  0.49089467  1  1.556039  0  0.224515  0.603678  0  4.161367  0
C  C26  1  0.48191354  0.51519552  0.65480139  1  1.438044  0  0.211186  0.599311  0  4.166031  0
C  C27  1  0.73318913  0.49459805  0.51229253  1  1.588304  0  0.219075  0.592096  0  4.197363  0
C  C28  1  0.45650175  0.75575768  0.45901416  1  0.394944  0  0.046674  0.126377  0  3.960197  0
C  C29  1  0.45818103  0.84187902  0.45898021  1  0.058243  0  -0.089114  -0.22375  0  3.955218  0
C  C30  1  0.54162578  0.89153033  0.50931443  1  0.34719  0  0.107034  0.225221  0  4.037908  0
C  C31  1  0.62188337  0.85286836  0.55386370  1  0.078283  0  -0.068972  -0.276317  0  3.826165  0
C  C32  1  0.61649026  0.76425309  0.54846984  1  1.05851  0  0.225896  0.490503  0  4.049864  0
C  C33  1  0.38593758  0.13947030  0.45343297  1  0.009981  0  -0.067069  -0.271331  0  3.820098  0
C  C34  1  0.47967968  0.10284232  0.48831394  1  0.395325  0  0.106072  0.218004  0  4.053669  0
C  C35  1  0.57379058  0.15407795  0.52753338  1  0.017229  0  -0.083783  -0.216722  0  3.938759  0
C  C36  1  0.56834225  0.24010054  0.52917174  1  0.387889  0  0.053004  0.134394  0  3.924336  0
C  C37  1  0.38594124  0.22801575  0.45881482  1  1.178916  0  0.231685  0.499028  0  4.04204  0
C  C38  1  0.50974069  0.48509774  0.26388057  1  -0.030279  0  -0.04662  -0.215226  0  4.005598  0
C  C39  1  0.49792540  0.55986269  0.22845328  1  -0.046985  0  -0.087815  -0.063823  0  4.020691  0
C  C40  1  0.49553491  0.55914499  0.14808883  1  0.058412  0  -0.094876  -0.170588  0  3.958276  0
C  C41  1  0.50564432  0.48135703  0.10055941  1  0.275168  0  0.097076  0.202323  0  4.045332  0
C  C42  1  0.51710511  0.40663658  0.13382565  1  -0.004824  0  -0.08553  -0.253717  0  3.878458  0
C  C43  1  0.51821884  0.40712552  0.21546207  1  0.570997  0  0.095472  0.331478  0  4.056369  0
C  C44  1  0.49604273  0.60322667  0.86970283  1  0.011106  0  -0.087785  -0.256034  0  3.886899  0
C  C45  1  0.49207639  0.52852259  0.90443042  1  0.320036  0  0.092995  0.197034  0  4.054718  0
C  C46  1  0.48228288  0.44910815  0.85832315  1  -0.024901  0  -0.096583  -0.177897  0  3.972209  0
C  C47  1  0.47836022  0.44652343  0.77785375  1  -0.020063  0  -0.07699  -0.039546  0  3.993937  0
C  C48  1  0.48346435  0.52109928  0.74096862  1  0.020102  0  -0.045355  -0.205916  0  3.992272  0
C  C49  1  0.49178155  0.60066516  0.78791293  1  0.552267  0  0.088531  0.319205  0  4.062798  0
C  C50  1  0.86853203  0.49581911  0.50609997  1  -0.029027  0  -0.004692  -0.087334  0  3.931098  0
C  C51  1  0.92838665  0.54257681  0.45023958  1  0.033311  0  0.006464  0.075132  0  3.949917  0
C  C52  1  0.93260145  0.44663674  0.55140249  1  -0.005052  0  -0.004786  -0.094947  0  3.988112  0
C  C53  1  0.86473669  0.59040019  0.40060320  1  -0.036802  0  -0.080404  -0.142105  0  3.925935  0
C  C54  1  0.92506126  0.63737597  0.34863954  1  -0.030689  0  -0.009665  -0.063817  0  4.002485  0
C  C55  1  0.12175681  0.49216355  0.49250426  1  0.062918  0  0.000639  -0.08171  0  3.898627  0
C  C56  1  0.06035988  0.44357319  0.54365037  1  -0.052011  0  -0.001988  -0.084752  0  3.967548  0
C  C57  1  0.05730869  0.54130802  0.44398832  1  0.033339  0  0.007878  0.082989  0  3.949002  0
C  C58  1  0.11679984  0.58843153  0.38865417  1  -0.019868  0  -0.080142  -0.14752  0  3.934143  0
C  C59  1  0.05355077  0.63637144  0.34280770  1  -0.022279  0  -0.00252  -0.053727  0  3.994188  0
C  C60  1  0.12764923  0.38750156  0.59198497  1  1.550716  0  0.231113  0.572558  0  4.132452  0
C  C61  1  0.86571381  0.39546617  0.60804820  1  1.495586  0  0.230756  0.565507  0  4.135724  0
C  C62  1  0.86153797  0.69879277  0.30584125  1  1.55486  0  0.232173  0.571795  0  4.125821  0
C  C63  1  0.12387565  0.68162161  0.28357871  1  1.552826  0  0.233735  0.576659  0  4.137207  0
N  N64  1  0.53189518  0.71703180  0.50410545  1  -1.274569  0  -0.345535  -0.355273  0  3.481209  0
N  N65  1  0.55229257  0.98117023  0.51742297  1  -0.437174  0  -0.124898  -0.109496  0  3.203575  0
N  N66  1  0.47066648  0.01339229  0.48125975  1  -0.466965  0  -0.122319  -0.104324  0  3.225095  0
N  N67  1  0.47683292  0.27707389  0.49543057  1  -1.282674  0  -0.342078  -0.352959  0  3.474174  0
N  N68  1  0.50307652  0.47131341  0.01762340  1  -0.48653  0  -0.141089  -0.128106  0  3.260053  0
N  N69  1  0.49725554  0.53949198  0.98738139  1  -0.490575  0  -0.138678  -0.120473  0  3.248617  0
O  O70  1  0.50752318  0.41843300  0.38018346  1  -1.165458  0  -0.307434  -0.547558  0  2.360055  0
O  O71  1  0.51755557  0.56111331  0.39052303  1  -1.170417  0  -0.325608  -0.563917  0  2.375158  0
O  O72  1  0.31158953  0.56794061  0.49800846  1  -1.155081  0  -0.302284  -0.525954  0  2.319264  0
O  O73  1  0.30856020  0.42534152  0.48426284  1  -1.184926  0  -0.295431  -0.549701  0  2.407689  0
O  O74  1  0.48031227  0.58551093  0.62382610  1  -1.16414  0  -0.322539  -0.566888  0  2.385002  0
O  O75  1  0.48286234  0.44321039  0.61479693  1  -1.161658  0  -0.310575  -0.535737  0  2.364692  0
O  O76  1  0.67858733  0.42295249  0.50189280  1  -1.132275  0  -0.285451  -0.496063  0  2.333073  0
O  O77  1  0.68363818  0.56528438  0.52623787  1  -1.18956  0  -0.307961  -0.576863  0  2.40679  0
O  O78  1  0.69796329  0.72727974  0.58822041  1  -1.17127  0  -0.338035  -0.455137  0  2.243165  0
O  O79  1  0.29442559  0.26164160  0.42585575  1  -1.146986  0  -0.329119  -0.444326  0  2.259189  0
O  O80  1  0.52751030  0.33313967  0.24467017  1  -1.125709  0  -0.353913  -0.43573  0  2.237268  0
O  O81  1  0.49633198  0.67471949  0.75724392  1  -1.162828  0  -0.361278  -0.44503  0  2.244144  0
O  O82  1  0.17192874  0.42571783  0.66218632  1  -1.080972  0  -0.324729  -0.454698  0  2.200224  0
O  O83  1  0.14091769  0.31357017  0.57182252  1  -1.065517  0  -0.252179  -0.405253  0  2.078406  0
O  O84  1  0.80865462  0.44112897  0.66821669  1  -1.094  0  -0.328178  -0.457924  0  2.202273  0
O  O85  1  0.86147562  0.31912511  0.60257214  1  -1.043861  0  -0.253793  -0.407047  0  2.060019  0
O  O86  1  0.74482318  0.67981822  0.28364153  1  -1.137395  0  -0.329666  -0.459128  0  2.234793  0
O  O87  1  0.91159542  0.76588906  0.29408709  1  -1.096122  0  -0.270789  -0.436239  0  2.047676  0
O  O88  1  0.19817351  0.74834792  0.31479293  1  -1.09913  0  -0.336424  -0.479051  0  2.189586  0
O  O89  1  0.12443156  0.65723893  0.21419139  1  -1.084674  0  -0.265351  -0.419236  0  2.028013  0
