# generated using pymatgen
data_Dy2PH19C11NO16
_symmetry_space_group_name_H-M   'P 1'
_cell_length_a   9.52789921
_cell_length_b   10.60418083
_cell_length_c   11.81311536
_cell_angle_alpha   71.22544993
_cell_angle_beta   69.02186446
_cell_angle_gamma   65.41633778
_symmetry_Int_Tables_number   1
_chemical_formula_structural   Dy2PH19C11NO16
_chemical_formula_sum   'Dy4 P2 H38 C22 N2 O32'
_cell_volume   992.18039766
_cell_formula_units_Z   2
loop_
 _symmetry_equiv_pos_site_id
 _symmetry_equiv_pos_as_xyz
  1  'x, y, z'
loop_
 _atom_site_type_symbol
 _atom_site_label
 _atom_site_symmetry_multiplicity
 _atom_site_fract_x
 _atom_site_fract_y
 _atom_site_fract_z
 _atom_site_occupancy
 _atom_site_hle17_bader_spin_density
 _atom_site_hle17_ddec_charge
 _atom_site_hle17_ddec_spin_density
 _atom_site_hle17_ddec_sum_bond_order
 _atom_site_hle17_magmom
 _atom_site_hse06_10hf_bader_spin_density
 _atom_site_hse06_10hf_ddec_charge
 _atom_site_hse06_10hf_ddec_spin_density
 _atom_site_hse06_10hf_ddec_sum_bond_order
 _atom_site_hse06_10hf_magmom
 _atom_site_hse06_bader_spin_density
 _atom_site_hse06_ddec_charge
 _atom_site_hse06_ddec_spin_density
 _atom_site_hse06_ddec_sum_bond_order
 _atom_site_hse06_magmom
 _atom_site_pbe_bader_spin_density
 _atom_site_pbe_cm5_charge
 _atom_site_pbe_ddec_charge
 _atom_site_pbe_ddec_spin_density
 _atom_site_pbe_ddec_sum_bond_order
 _atom_site_pbe_magmom
Dy  Dy0  1  0.58025273  0.84162497  0.21501267  1  0  2.276252  0  1.609425  0  0  2.12944  0  2.077954  0  0  2.253317  0  1.890336  0  0  1.512179  2.097543  0  2.105316  0
Dy  Dy1  1  0.41975131  0.15837372  0.78498170  1  0  2.276275  0  1.60935  0  0  2.129549  0  2.077742  0  0  2.253349  0  1.890242  0  0  1.512188  2.097645  0  2.105119  0
Dy  Dy2  1  0.93787852  0.19573723  0.25052597  1  0  2.130253  0  1.808691  0  0  2.052755  0  2.151264  0  0  2.099116  0  2.112428  0  0  1.501511  2.017134  0  2.182359  0
Dy  Dy3  1  0.06212402  0.80425897  0.74948218  1  0  2.130369  0  1.808494  0  0  2.052629  0  2.151427  0  0  2.099136  0  2.11238  0  0  1.501423  2.017015  0  2.182511  0
P  P4  1  0.34159871  0.19205076  0.09750791  1  0  1.5585  0  4.873476  0  0  1.406111  0  5.380648  0  0  1.457852  0  5.344376  0  0  0.351178  1.370548  0  5.409078  0
P  P5  1  0.65839930  0.80794900  0.90248871  1  0  1.558556  0  4.873423  0  0  1.406164  0  5.380579  0  0  1.457912  0  5.344305  0  0  0.351111  1.3706  0  5.409015  0
H  H6  1  0.14906111  0.40376832  0.24187827  1  0  0.28017  0  0.882451  0  0  0.265864  0  0.939281  0  0  0.273599  0  0.933768  0  0  0.317854  0.259758  0  0.943668  0
H  H7  1  0.85093376  0.59623664  0.75812123  1  0  0.280244  0  0.882391  0  0  0.265945  0  0.939214  0  0  0.273677  0  0.933703  0  0  0.317937  0.259843  0  0.943598  0
H  H8  1  0.47671350  0.35540967  0.07628334  1  0  0.135884  0  0.909588  0  0  0.152252  0  0.960536  0  0  0.154438  0  0.959791  0  0  0.127024  0.150538  0  0.961244  0
H  H9  1  0.52327270  0.64459761  0.92371289  1  0  0.135961  0  0.909395  0  0  0.152257  0  0.960437  0  0  0.154447  0  0.959696  0  0  0.127027  0.15054  0  0.961146  0
H  H10  1  0.29542877  0.44416231  0.02827679  1  0  0.139953  0  0.917684  0  0  0.15269  0  0.97391  0  0  0.155131  0  0.972652  0  0  0.128111  0.150856  0  0.974864  0
H  H11  1  0.70457333  0.55583833  0.97172353  1  0  0.139888  0  0.917718  0  0  0.152621  0  0.973947  0  0  0.155062  0  0.972696  0  0  0.128092  0.150788  0  0.974899  0
H  H12  1  0.46310062  0.31789575  0.29455978  1  0  0.094134  0  0.934612  0  0  0.107109  0  0.997444  0  0  0.108899  0  0.996599  0  0  0.11301  0.105704  0  0.998225  0
H  H13  1  0.53689586  0.68210510  0.70543613  1  0  0.094102  0  0.934611  0  0  0.107126  0  0.997414  0  0  0.108915  0  0.996577  0  0  0.113005  0.105719  0  0.998196  0
H  H14  1  0.35732665  0.20106272  0.32142937  1  0  0.091699  0  0.931758  0  0  0.106641  0  0.989838  0  0  0.108218  0  0.988993  0  0  0.119188  0.105483  0  0.9905  0
H  H15  1  0.64267540  0.79894133  0.67856243  1  0  0.091706  0  0.931746  0  0  0.106678  0  0.989822  0  0  0.108254  0  0.98898  0  0  0.119187  0.10552  0  0.990486  0
H  H16  1  0.12885688  0.33604644  0.46808691  1  0  0.07405  0  0.936398  0  0  0.094226  0  0.994309  0  0  0.094724  0  0.995225  0  0  0.096432  0.093746  0  0.993829  0
H  H17  1  0.87113961  0.66395450  0.53190643  1  0  0.074065  0  0.936439  0  0  0.094258  0  0.99436  0  0  0.094758  0  0.995274  0  0  0.096428  0.093777  0  0.993879  0
H  H18  1  0.30549994  0.27821409  0.51489710  1  0  0.089801  0  0.958723  0  0  0.105678  0  1.02151  0  0  0.106408  0  1.022959  0  0  0.102757  0.104647  0  1.021685  0
H  H19  1  0.69449437  0.72178368  0.48509769  1  0  0.089811  0  0.958602  0  0  0.105731  0  1.02137  0  0  0.106463  0  1.022816  0  0  0.102783  0.104699  0  1.021541  0
H  H20  1  0.14038084  0.53713071  0.52562554  1  0  0.069629  0  0.969265  0  0  0.083926  0  1.038619  0  0  0.084792  0  1.03895  0  0  0.089307  0.083201  0  1.038432  0
H  H21  1  0.85962027  0.46286359  0.47437674  1  0  0.069585  0  0.969267  0  0  0.083883  0  1.038611  0  0  0.084747  0  1.03894  0  0  0.089262  0.083158  0  1.038424  0
H  H22  1  0.33521347  0.51402130  0.42622476  1  0  0.072955  0  0.93345  0  0  0.094541  0  0.98819  0  0  0.095573  0  0.988225  0  0  0.091804  0.093622  0  0.988315  0
H  H23  1  0.66478227  0.48597834  0.57377676  1  0  0.072947  0  0.93344  0  0  0.094543  0  0.988162  0  0  0.095566  0  0.988205  0  0  0.091802  0.09362  0  0.988291  0
H  H24  1  0.14095441  0.71294670  0.32179355  1  0  0.09289  0  0.941949  0  0  0.111525  0  0.998374  0  0  0.113068  0  0.997916  0  0  0.098469  0.110429  0  0.998635  0
H  H25  1  0.85904164  0.28705495  0.67821074  1  0  0.092913  0  0.941962  0  0  0.111571  0  0.998372  0  0  0.113099  0  0.997933  0  0  0.098487  0.110474  0  0.998636  0
H  H26  1  0.02509746  0.60794562  0.34853982  1  0  0.079866  0  0.96016  0  0  0.095527  0  1.025481  0  0  0.096963  0  1.025275  0  0  0.093598  0.094502  0  1.025541  0
H  H27  1  0.97490093  0.39205295  0.65146124  1  0  0.079866  0  0.960172  0  0  0.095538  0  1.025497  0  0  0.096973  0  1.02529  0  0  0.093597  0.094514  0  1.025557  0
H  H28  1  0.18661309  0.62197563  0.13470896  1  0  0.084523  0  0.918876  0  0  0.101581  0  0.975964  0  0  0.102954  0  0.974968  0  0  0.114003  0.100547  0  0.976663  0
H  H29  1  0.81338885  0.37803135  0.86528971  1  0  0.084493  0  0.918882  0  0  0.101587  0  0.975957  0  0  0.102971  0  0.974962  0  0  0.113995  0.10055  0  0.976657  0
H  H30  1  0.36644307  0.56413146  0.18307103  1  0  0.090352  0  0.92837  0  0  0.103838  0  0.992431  0  0  0.105701  0  0.991194  0  0  0.112908  0.101906  0  0.994008  0
H  H31  1  0.63355588  0.43587438  0.81693218  1  0  0.090367  0  0.928341  0  0  0.103869  0  0.992418  0  0  0.105732  0  0.991184  0  0  0.112912  0.101936  0  0.993993  0
H  H32  1  0.32824905  0.76697532  0.44443830  1  0  0.45084  0  0.820305  0  0  0.426615  0  0.877529  0  0  0.436448  0  0.863492  0  0  0.323637  0.419829  0  0.887373  0
H  H33  1  0.67174510  0.23302869  0.55555827  1  0  0.450814  0  0.820215  0  0  0.426595  0  0.877529  0  0  0.436427  0  0.863492  0  0  0.323647  0.41981  0  0.887372  0
H  H34  1  0.39155947  0.85675870  0.48294924  1  0  0.463713  0  0.813487  0  0  0.432947  0  0.875117  0  0  0.444964  0  0.857443  0  0  0.314791  0.424636  0  0.887441  0
H  H35  1  0.60844073  0.14324438  0.51704080  1  0  0.463609  0  0.813603  0  0  0.432909  0  0.875153  0  0  0.444906  0  0.857502  0  0  0.314785  0.424598  0  0.887478  0
H  H36  1  0.34642436  0.91095117  0.07233029  1  0  0.454708  0  0.811124  0  0  0.428316  0  0.873873  0  0  0.438631  0  0.858846  0  0  0.323461  0.420951  0  0.884917  0
H  H37  1  0.65356679  0.08905156  0.92767508  1  0  0.454824  0  0.810941  0  0  0.428406  0  0.873769  0  0  0.438719  0  0.858747  0  0  0.323474  0.421035  0  0.884826  0
H  H38  1  0.23994185  0.90665184  0.21281228  1  0  0.448345  0  0.838895  0  0  0.417178  0  0.902632  0  0  0.427783  0  0.887214  0  0  0.315288  0.409502  0  0.914145  0
H  H39  1  0.76005372  0.09335396  0.78719358  1  0  0.448426  0  0.838781  0  0  0.41725  0  0.902543  0  0  0.427861  0  0.887113  0  0  0.315325  0.409574  0  0.914056  0
H  H40  1  0.10115950  0.29023758  0.99910397  1  0  0.437097  0  0.859857  0  0  0.410005  0  0.918545  0  0  0.420297  0  0.903662  0  0  0.30626  0.402596  0  0.929289  0
H  H41  1  0.89883398  0.70976210  0.00089732  1  0  0.437089  0  0.859958  0  0  0.409989  0  0.918587  0  0  0.420283  0  0.903704  0  0  0.30622  0.402582  0  0.929328  0
H  H42  1  0.00623970  0.20920867  0.99276195  1  0  0.44788  0  0.821925  0  0  0.420492  0  0.890705  0  0  0.431601  0  0.87407  0  0  0.312496  0.412763  0  0.902268  0
H  H43  1  0.99375504  0.79078451  0.00724580  1  0  0.447899  0  0.821965  0  0  0.420533  0  0.89064  0  0  0.431641  0  0.874008  0  0  0.312482  0.4128  0  0.902211  0
C  C44  1  0.35201836  0.36198143  0.09862829  1  0  -0.328557  0  3.502549  0  0  -0.372396  0  3.757184  0  0  -0.376067  0  3.7609  0  0  -0.063356  -0.369364  0  3.753693  0
C  C45  1  0.64798274  0.63803107  0.90136153  1  0  -0.328762  0  3.502617  0  0  -0.372556  0  3.757327  0  0  -0.37623  0  3.761024  0  0  -0.063359  -0.369515  0  3.753831  0
C  C46  1  0.34412655  0.30900571  0.32062333  1  0  -0.005174  0  3.511209  0  0  -0.059815  0  3.759814  0  0  -0.056735  0  3.769756  0  0  -0.060208  -0.061628  0  3.752549  0
C  C47  1  0.65587820  0.69099390  0.67937482  1  0  -0.005291  0  3.511251  0  0  -0.06004  0  3.760036  0  0  -0.056977  0  3.769999  0  0  -0.060224  -0.061853  0  3.752771  0
C  C48  1  0.24442683  0.35136692  0.44379551  1  0  -0.128662  0  3.671223  0  0  -0.170131  0  3.930382  0  0  -0.171393  0  3.943709  0  0  -0.163746  -0.16907  0  3.921132  0
C  C49  1  0.75557296  0.64863706  0.55619948  1  0  -0.12861  0  3.671046  0  0  -0.170137  0  3.930267  0  0  -0.1714  0  3.943589  0  0  -0.163745  -0.169069  0  3.921004  0
C  C50  1  0.21940348  0.50486603  0.43853792  1  0  -0.110021  0  3.679661  0  0  -0.152971  0  3.946306  0  0  -0.153631  0  3.959664  0  0  -0.170978  -0.152378  0  3.937038  0
C  C51  1  0.78059604  0.49513251  0.56146368  1  0  -0.109975  0  3.679649  0  0  -0.152874  0  3.946295  0  0  -0.153519  0  3.95964  0  0  -0.170912  -0.152283  0  3.937024  0
C  C52  1  0.14793139  0.60421729  0.33148557  1  0  -0.134956  0  3.662599  0  0  -0.175948  0  3.924013  0  0  -0.177031  0  3.935883  0  0  -0.168796  -0.174952  0  3.915356  0
C  C53  1  0.85206919  0.39578449  0.66851233  1  0  -0.135028  0  3.662724  0  0  -0.176068  0  3.924234  0  0  -0.177148  0  3.936113  0  0  -0.168827  -0.175072  0  3.915575  0
C  C54  1  0.24600815  0.55852947  0.20914450  1  0  0.000784  0  3.516788  0  0  -0.059553  0  3.777678  0  0  -0.055789  0  3.78681  0  0  -0.061626  -0.061653  0  3.771127  0
C  C55  1  0.75399388  0.44147439  0.79085329  1  0  0.000843  0  3.516651  0  0  -0.05956  0  3.777654  0  0  -0.055802  0  3.78678  0  0  -0.061591  -0.061653  0  3.771095  0
C  C56  1  0.82484789  0.52580536  0.25450707  1  0  0.562759  0  3.921914  0  0  0.518811  0  4.223395  0  0  0.54852  0  4.217456  0  0  0.219232  0.498675  0  4.229135  0
C  C57  1  0.17515996  0.47418875  0.74549846  1  0  0.562721  0  3.922099  0  0  0.518775  0  4.223547  0  0  0.548483  0  4.217613  0  0  0.219223  0.498641  0  4.229288  0
C  C58  1  0.67459539  0.50325747  0.25375962  1  0  0.554469  0  3.95226  0  0  0.512319  0  4.254974  0  0  0.542122  0  4.248776  0  0  0.213273  0.492052  0  4.260695  0
C  C59  1  0.32540935  0.49674202  0.74624281  1  0  0.554667  0  3.952375  0  0  0.51255  0  4.255006  0  0  0.542355  0  4.248807  0  0  0.213423  0.492282  0  4.26073  0
C  C60  1  0.70982491  0.01250313  0.30986741  1  0  0.574638  0  3.908833  0  0  0.529907  0  4.211423  0  0  0.559996  0  4.205708  0  0  0.225226  0.509493  0  4.217021  0
C  C61  1  0.29017205  0.98749358  0.69012692  1  0  0.574516  0  3.908754  0  0  0.529871  0  4.21121  0  0  0.559961  0  4.205495  0  0  0.22515  0.509458  0  4.216811  0
C  C62  1  0.83262673  0.98630251  0.18353643  1  0  0.579682  0  3.905795  0  0  0.537302  0  4.203304  0  0  0.567463  0  4.196701  0  0  0.222681  0.516554  0  4.209596  0
C  C63  1  0.16737963  0.01369292  0.81646069  1  0  0.579803  0  3.90562  0  0  0.537351  0  4.203197  0  0  0.567514  0  4.196597  0  0  0.222657  0.516603  0  4.20949  0
C  C64  1  0.04869534  0.93547190  0.46786169  1  0  0.575679  0  3.890838  0  0  0.530093  0  4.194073  0  0  0.561007  0  4.182725  0  0  0.228359  0.509327  0  4.200512  0
C  C65  1  0.95129923  0.06452735  0.53215296  1  0  0.575966  0  3.890516  0  0  0.530209  0  4.19399  0  0  0.561122  0  4.182641  0  0  0.228385  0.509443  0  4.20043  0
N  N66  1  0.26516482  0.40694278  0.21943705  1  0  -0.06234  0  3.385125  0  0  0.019871  0  3.595378  0  0  0.007918  0  3.614561  0  0  -0.346261  0.028364  0  3.582083  0
N  N67  1  0.73483981  0.59306334  0.78055433  1  0  -0.062164  0  3.385079  0  0  0.020047  0  3.595447  0  0  0.008118  0  3.614591  0  0  -0.346343  0.028529  0  3.582165  0
O  O68  1  0.50121127  0.07534253  0.10961426  1  0  -0.980273  0  1.998003  0  0  -0.907417  0  2.269842  0  0  -0.946024  0  2.248101  0  0  -0.458928  -0.889012  0  2.28312  0
O  O69  1  0.49878713  0.92465612  0.89038424  1  0  -0.980259  0  1.997933  0  0  -0.907418  0  2.269756  0  0  -0.946014  0  2.248008  0  0  -0.458921  -0.889014  0  2.28303  0
O  O70  1  0.19878606  0.16956077  0.20398417  1  0  -0.96594  0  2.025781  0  0  -0.904179  0  2.299425  0  0  -0.929966  0  2.280448  0  0  -0.482404  -0.88567  0  2.312718  0
O  O71  1  0.80121233  0.83043783  0.79601604  1  0  -0.965942  0  2.025721  0  0  -0.904136  0  2.299378  0  0  -0.929954  0  2.280399  0  0  -0.482347  -0.885629  0  2.312673  0
O  O72  1  0.69005500  0.77928649  0.02892099  1  0  -0.98404  0  2.0647  0  0  -0.90027  0  2.330365  0  0  -0.939477  0  2.307846  0  0  -0.478164  -0.880804  0  2.342528  0
O  O73  1  0.30994293  0.22071639  0.97107652  1  0  -0.98401  0  2.064731  0  0  -0.900247  0  2.330363  0  0  -0.939442  0  2.307856  0  0  -0.478144  -0.880783  0  2.342531  0
O  O74  1  0.80928665  0.64749173  0.26048717  1  0  -0.646892  0  2.077512  0  0  -0.602124  0  2.329344  0  0  -0.635601  0  2.320764  0  0  -0.357661  -0.58608  0  2.33373  0
O  O75  1  0.19072905  0.35250581  0.73950508  1  0  -0.646825  0  2.077621  0  0  -0.602061  0  2.329414  0  0  -0.635524  0  2.32083  0  0  -0.357617  -0.586018  0  2.333803  0
O  O76  1  0.95245810  0.41799207  0.24951845  1  0  -0.649768  0  2.083882  0  0  -0.607177  0  2.325784  0  0  -0.63024  0  2.316562  0  0  -0.360139  -0.589843  0  2.330793  0
O  O77  1  0.04754685  0.58199783  0.75048900  1  0  -0.649918  0  2.083827  0  0  -0.607265  0  2.325672  0  0  -0.63035  0  2.316457  0  0  -0.360207  -0.589934  0  2.33069  0
O  O78  1  0.54947186  0.61003867  0.25588021  1  0  -0.625313  0  2.051353  0  0  -0.57946  0  2.292431  0  0  -0.611572  0  2.283834  0  0  -0.343308  -0.562847  0  2.296972  0
O  O79  1  0.45053403  0.38996099  0.74411592  1  0  -0.625371  0  2.051322  0  0  -0.579548  0  2.292404  0  0  -0.611646  0  2.283794  0  0  -0.343349  -0.562933  0  2.296944  0
O  O80  1  0.69140312  0.37842683  0.25111442  1  0  -0.673219  0  2.030037  0  0  -0.639163  0  2.274696  0  0  -0.661902  0  2.264654  0  0  -0.392975  -0.62262  0  2.281153  0
O  O81  1  0.30860771  0.62156820  0.74889341  1  0  -0.673357  0  2.030038  0  0  -0.639303  0  2.274732  0  0  -0.66207  0  2.264685  0  0  -0.393026  -0.62276  0  2.28119  0
O  O82  1  0.72584072  0.09015212  0.36361343  1  0  -0.665098  0  2.066791  0  0  -0.618546  0  2.301266  0  0  -0.64286  0  2.291936  0  0  -0.34868  -0.600858  0  2.306489  0
O  O83  1  0.27416273  0.90983918  0.63638306  1  0  -0.66512  0  2.066629  0  0  -0.618536  0  2.301062  0  0  -0.642875  0  2.291735  0  0  -0.348682  -0.600851  0  2.306286  0
O  O84  1  0.60464809  0.95467037  0.34814609  1  0  -0.656094  0  2.051623  0  0  -0.610102  0  2.301505  0  0  -0.643053  0  2.289503  0  0  -0.371012  -0.594635  0  2.308307  0
O  O85  1  0.39535537  0.04532094  0.65185040  1  0  -0.656034  0  2.051612  0  0  -0.610087  0  2.301474  0  0  -0.643014  0  2.289442  0  0  -0.370943  -0.594614  0  2.308264  0
O  O86  1  0.93784255  0.04506257  0.14476506  1  0  -0.665906  0  2.062624  0  0  -0.625443  0  2.303146  0  0  -0.648059  0  2.291081  0  0  -0.39407  -0.60944  0  2.311669  0
O  O87  1  0.06217075  0.95492297  0.85524375  1  0  -0.666011  0  2.062595  0  0  -0.625486  0  2.30313  0  0  -0.64812  0  2.291055  0  0  -0.394043  -0.609477  0  2.311643  0
O  O88  1  0.81757229  0.90917247  0.12993624  1  0  -0.637701  0  2.085445  0  0  -0.587845  0  2.32727  0  0  -0.619665  0  2.315719  0  0  -0.346973  -0.57161  0  2.333901  0
O  O89  1  0.18243772  0.09082838  0.87005334  1  0  -0.637677  0  2.085368  0  0  -0.587829  0  2.327251  0  0  -0.619646  0  2.315705  0  0  -0.346972  -0.57159  0  2.333872  0
O  O90  1  0.06800768  0.95985439  0.35244297  1  0  -0.650625  0  2.134782  0  0  -0.60605  0  2.374539  0  0  -0.630754  0  2.366856  0  0  -0.348685  -0.588536  0  2.379514  0
O  O91  1  0.93199365  0.04014488  0.64756809  1  0  -0.650695  0  2.134591  0  0  -0.606065  0  2.374472  0  0  -0.63079  0  2.366783  0  0  -0.348712  -0.588553  0  2.379449  0
O  O92  1  0.89772893  0.18404336  0.46398611  1  0  -0.657394  0  2.053664  0  0  -0.617912  0  2.295467  0  0  -0.641268  0  2.286061  0  0  -0.365348  -0.601349  0  2.301158  0
O  O93  1  0.10225622  0.81595704  0.53603002  1  0  -0.65731  0  2.053734  0  0  -0.617837  0  2.29545  0  0  -0.641216  0  2.286045  0  0  -0.36534  -0.601276  0  2.301141  0
O  O94  1  0.41411407  0.80675594  0.41706120  1  0  -0.91249  0  1.850126  0  0  -0.862634  0  2.048796  0  0  -0.892675  0  2.008588  0  0  -0.638198  -0.84956  0  2.071898  0
O  O95  1  0.58588202  0.19324608  0.58293112  1  0  -0.912404  0  1.850124  0  0  -0.862631  0  2.04876  0  0  -0.89264  0  2.008607  0  0  -0.638221  -0.849557  0  2.071861  0
O  O96  1  0.34617831  0.86576060  0.15913283  1  0  -0.887527  0  1.843097  0  0  -0.837744  0  2.034364  0  0  -0.864893  0  1.996403  0  0  -0.615587  -0.825684  0  2.057258  0
O  O97  1  0.65381661  0.13424103  0.84087262  1  0  -0.887721  0  1.84279  0  0  -0.837936  0  2.034033  0  0  -0.86508  0  1.996058  0  0  -0.615642  -0.825873  0  2.056931  0
O  O98  1  0.99019938  0.28762481  0.02910409  1  0  -0.883659  0  1.816948  0  0  -0.850754  0  2.000546  0  0  -0.868918  0  1.969701  0  0  -0.636915  -0.837384  0  2.0219  0
O  O99  1  0.00979689  0.71236733  0.97090266  1  0  -0.883693  0  1.817066  0  0  -0.850739  0  2.000577  0  0  -0.868925  0  1.969708  0  0  -0.636859  -0.837373  0  2.021927  0
