# generated using pymatgen
data_HoAg5H16(C2O)16
_symmetry_space_group_name_H-M   'P 1'
_cell_length_a   7.87418816
_cell_length_b   14.83258476
_cell_length_c   14.97847344
_cell_angle_alpha   64.43665975
_cell_angle_beta   81.39387170
_cell_angle_gamma   81.51148373
_symmetry_Int_Tables_number   1
_chemical_formula_structural   HoAg5H16(C2O)16
_chemical_formula_sum   'Ho2 Ag10 H32 C64 O32'
_cell_volume   1553.60662458
_cell_formula_units_Z   2
loop_
 _symmetry_equiv_pos_site_id
 _symmetry_equiv_pos_as_xyz
  1  'x, y, z'
loop_
 _atom_site_type_symbol
 _atom_site_label
 _atom_site_symmetry_multiplicity
 _atom_site_fract_x
 _atom_site_fract_y
 _atom_site_fract_z
 _atom_site_occupancy
 _atom_site_hle17_bader_spin_density
 _atom_site_hle17_ddec_charge
 _atom_site_hle17_ddec_spin_density
 _atom_site_hle17_ddec_sum_bond_order
 _atom_site_hle17_magmom
 _atom_site_hse06_10hf_bader_spin_density
 _atom_site_hse06_10hf_ddec_charge
 _atom_site_hse06_10hf_ddec_spin_density
 _atom_site_hse06_10hf_ddec_sum_bond_order
 _atom_site_hse06_10hf_magmom
 _atom_site_hse06_bader_spin_density
 _atom_site_hse06_ddec_charge
 _atom_site_hse06_ddec_spin_density
 _atom_site_hse06_ddec_sum_bond_order
 _atom_site_hse06_magmom
 _atom_site_pbe_bader_spin_density
 _atom_site_pbe_cm5_charge
 _atom_site_pbe_ddec_charge
 _atom_site_pbe_ddec_spin_density
 _atom_site_pbe_ddec_sum_bond_order
 _atom_site_pbe_magmom
Ho  Ho0  1  0.35276922  0.25111024  0.25206115  1  0  2.318714  0  1.681113  0  0  2.19674  0  2.127955  0  0  2.311424  0  1.95724  0  0  1.515534  2.163321  0  2.156076  0
Ho  Ho1  1  0.64723051  0.74888753  0.74794144  1  0  2.318686  0  1.68113  0  0  2.196698  0  2.128001  0  0  2.311397  0  1.957252  0  0  1.515564  2.1633  0  2.156104  0
Ag  Ag2  1  0.12732751  0.09215069  0.49722492  1  0  0.686814  0  1.31455  0  0  0.581043  0  1.732671  0  0  0.610987  0  1.682868  0  0  0.46791  0.559452  0  1.768977  0
Ag  Ag3  1  0.87267994  0.90784706  0.50277240  1  0  0.686788  0  1.314523  0  0  0.581008  0  1.732651  0  0  0.610956  0  1.682844  0  0  0.467902  0.559403  0  1.768982  0
Ag  Ag4  1  0.17773950  0.40642514  0.00280794  1  0  0.683306  0  1.315276  0  0  0.576565  0  1.734775  0  0  0.606953  0  1.684708  0  0  0.464659  0.554714  0  1.771151  0
Ag  Ag5  1  0.82226090  0.59357638  0.99719364  1  0  0.683368  0  1.31523  0  0  0.57661  0  1.734745  0  0  0.607001  0  1.684681  0  0  0.464696  0.554763  0  1.771125  0
Ag  Ag6  1  0.79842242  0.32908861  0.01705333  1  0  0.68736  0  1.199293  0  0  0.574195  0  1.611922  0  0  0.610348  0  1.555797  0  0  0.456631  0.548249  0  1.65137  0
Ag  Ag7  1  0.20157903  0.67091441  0.98294618  1  0  0.687349  0  1.199276  0  0  0.574187  0  1.611917  0  0  0.610341  0  1.555791  0  0  0.456624  0.548244  0  1.651365  0
Ag  Ag8  1  0.29229381  0.82563149  0.51549759  1  0  0.685725  0  1.211649  0  0  0.576087  0  1.623528  0  0  0.611109  0  1.56834  0  0  0.456503  0.551021  0  1.662318  0
Ag  Ag9  1  0.70770789  0.17437001  0.48449989  1  0  0.685703  0  1.21167  0  0  0.576057  0  1.623554  0  0  0.611082  0  1.568363  0  0  0.456493  0.550985  0  1.662344  0
Ag  Ag10  1  0.85455107  0.25215016  0.25110713  1  0  0.75227  0  1.238007  0  0  0.636068  0  1.662231  0  0  0.667746  0  1.610398  0  0  0.479447  0.613517  0  1.701607  0
Ag  Ag11  1  0.14544655  0.74785283  0.74888803  1  0  0.752278  0  1.237956  0  0  0.636086  0  1.662167  0  0  0.66776  0  1.610339  0  0  0.479467  0.613544  0  1.701559  0
H  H12  1  0.18170595  0.09192197  0.98520018  1  0  0.094265  0  0.951987  0  0  0.106208  0  1.010551  0  0  0.108767  0  1.009954  0  0  0.103958  0.104402  0  1.011023  0
H  H13  1  0.81827999  0.90808176  0.01479489  1  0  0.094331  0  0.951948  0  0  0.106252  0  1.010543  0  0  0.108812  0  1.009946  0  0  0.103991  0.104446  0  1.011013  0
H  H14  1  0.13517677  0.91316882  0.03692252  1  0  0.104052  0  0.975981  0  0  0.110982  0  1.041397  0  0  0.11477  0  1.038718  0  0  0.102769  0.108225  0  1.0434  0
H  H15  1  0.86481199  0.08683341  0.96307298  1  0  0.104094  0  0.976083  0  0  0.111047  0  1.041454  0  0  0.114835  0  1.038775  0  0  0.102809  0.108287  0  1.043454  0
H  H16  1  0.07497313  0.80237407  0.21758738  1  0  0.086452  0  0.954156  0  0  0.100077  0  1.010097  0  0  0.102391  0  1.010027  0  0  0.101186  0.098438  0  1.010208  0
H  H17  1  0.92502369  0.19762592  0.78241046  1  0  0.086407  0  0.954097  0  0  0.100018  0  1.010066  0  0  0.10233  0  1.009998  0  0  0.101168  0.098381  0  1.010176  0
H  H18  1  0.07695683  0.86931914  0.34327533  1  0  0.096754  0  0.979896  0  0  0.102224  0  1.05243  0  0  0.106517  0  1.048261  0  0  0.097944  0.099031  0  1.055598  0
H  H19  1  0.92304220  0.13068309  0.65671937  1  0  0.09674  0  0.979889  0  0  0.102184  0  1.05246  0  0  0.106495  0  1.04827  0  0  0.097933  0.098991  0  1.055625  0
H  H20  1  0.88845192  0.40148582  0.51335538  1  0  0.098693  0  0.943954  0  0  0.111211  0  1.000973  0  0  0.113917  0  1.000231  0  0  0.105877  0.109297  0  1.00152  0
H  H21  1  0.11155772  0.59851419  0.48664413  1  0  0.098703  0  0.943892  0  0  0.111222  0  1.000916  0  0  0.113928  0  1.000174  0  0  0.105874  0.109308  0  1.001463  0
H  H22  1  0.77275292  0.58067713  0.46024142  1  0  0.093981  0  0.944227  0  0  0.105738  0  1.001973  0  0  0.108502  0  1.000738  0  0  0.104853  0.103702  0  1.002999  0
H  H23  1  0.22725206  0.41931989  0.53976174  1  0  0.094029  0  0.944129  0  0  0.105762  0  1.001905  0  0  0.108521  0  1.000676  0  0  0.10485  0.103727  0  1.002928  0
H  H24  1  0.80452893  0.69808865  0.28043910  1  0  0.08178  0  0.98674  0  0  0.093577  0  1.048345  0  0  0.095757  0  1.048192  0  0  0.097827  0.091993  0  1.048536  0
H  H25  1  0.19547055  0.30191062  0.71956418  1  0  0.081746  0  0.986832  0  0  0.093556  0  1.048416  0  0  0.095735  0  1.048265  0  0  0.097816  0.091972  0  1.048607  0
H  H26  1  0.93508015  0.63393180  0.15563675  1  0  0.097055  0  0.976008  0  0  0.103978  0  1.046442  0  0  0.108337  0  1.042174  0  0  0.099112  0.100796  0  1.049611  0
H  H27  1  0.06492049  0.36606823  0.84436612  1  0  0.097044  0  0.97605  0  0  0.103969  0  1.046489  0  0  0.108328  0  1.042221  0  0  0.099117  0.100788  0  1.049658  0
H  H28  1  0.42518370  0.51126357  0.41571778  1  0  0.098146  0  0.951799  0  0  0.108291  0  1.014284  0  0  0.111653  0  1.011682  0  0  0.105658  0.105825  0  1.016204  0
H  H29  1  0.57481488  0.48873343  0.58428256  1  0  0.098105  0  0.95183  0  0  0.108268  0  1.014303  0  0  0.111619  0  1.011712  0  0  0.105651  0.105803  0  1.016225  0
H  H30  1  0.33608884  0.69201720  0.31439973  1  0  0.091492  0  0.950429  0  0  0.104452  0  1.007432  0  0  0.107177  0  1.006575  0  0  0.103264  0.102473  0  1.008193  0
H  H31  1  0.66391205  0.30798132  0.68560244  1  0  0.091506  0  0.950359  0  0  0.104475  0  1.007348  0  0  0.1072  0  1.006492  0  0  0.103266  0.102495  0  1.008107  0
H  H32  1  0.37022227  0.75899710  0.12835707  1  0  0.095304  0  0.954419  0  0  0.106403  0  1.013734  0  0  0.109215  0  1.012508  0  0  0.103537  0.104337  0  1.014682  0
H  H33  1  0.62977337  0.24100216  0.87164452  1  0  0.095295  0  0.954433  0  0  0.106417  0  1.013722  0  0  0.109226  0  1.012499  0  0  0.103544  0.104353  0  1.014668  0
H  H34  1  0.48346367  0.64532505  0.04698804  1  0  0.088909  0  0.994211  0  0  0.09163  0  1.07725  0  0  0.096957  0  1.070185  0  0  0.092775  0.08775  0  1.082318  0
H  H35  1  0.51652811  0.35467421  0.95301385  1  0  0.088962  0  0.994205  0  0  0.091699  0  1.07722  0  0  0.097028  0  1.070151  0  0  0.092784  0.087815  0  1.082293  0
H  H36  1  0.63637470  0.00051373  0.08510096  1  0  0.095259  0  0.960511  0  0  0.106124  0  1.022264  0  0  0.108989  0  1.020682  0  0  0.105528  0.104075  0  1.023387  0
H  H37  1  0.36363471  0.99948777  0.91489592  1  0  0.095267  0  0.960537  0  0  0.106104  0  1.022314  0  0  0.108968  0  1.020734  0  0  0.105537  0.104056  0  1.023433  0
H  H38  1  0.58798956  0.81951109  0.18399938  1  0  0.087331  0  0.9632  0  0  0.099197  0  1.022174  0  0  0.101894  0  1.021482  0  0  0.10023  0.097262  0  1.022772  0
H  H39  1  0.41201355  0.18048967  0.81599898  1  0  0.087372  0  0.96309  0  0  0.09918  0  1.022143  0  0  0.101877  0  1.021452  0  0  0.100238  0.097248  0  1.022738  0
H  H40  1  0.57005698  0.74745698  0.37035206  1  0  0.098085  0  0.952087  0  0  0.108884  0  1.012377  0  0  0.111861  0  1.010658  0  0  0.105195  0.106636  0  1.013779  0
H  H41  1  0.42994331  0.25254528  0.62964721  1  0  0.098123  0  0.952012  0  0  0.108912  0  1.012316  0  0  0.111889  0  1.010596  0  0  0.105215  0.106656  0  1.013726  0
H  H42  1  0.58919199  0.85673886  0.45439541  1  0  0.089969  0  0.997014  0  0  0.092777  0  1.079983  0  0  0.098219  0  1.072733  0  0  0.093318  0.088855  0  1.085092  0
H  H43  1  0.41080714  0.14326266  0.54560493  1  0  0.089986  0  0.996944  0  0  0.092794  0  1.079916  0  0  0.09824  0  1.072654  0  0  0.093321  0.088867  0  1.08503  0
C  C44  1  0.20502077  0.18744419  0.09364695  1  0  0.702299  0  3.8554  0  0  0.650655  0  4.144482  0  0  0.687624  0  4.135449  0  0  0.219609  0.625384  0  4.151372  0
C  C45  1  0.79498505  0.81255580  0.90634886  1  0  0.702498  0  3.855026  0  0  0.65067  0  4.144326  0  0  0.687656  0  4.13526  0  0  0.21961  0.62539  0  4.15122  0
C  C46  1  0.16555942  0.08026970  0.13371414  1  0  -0.04487  0  3.681711  0  0  -0.030897  0  3.913067  0  0  -0.03439  0  3.932885  0  0  -0.004142  -0.028507  0  3.899408  0
C  C47  1  0.83443832  0.91973253  0.86628066  1  0  -0.045032  0  3.681904  0  0  -0.030821  0  3.913022  0  0  -0.034315  0  3.932832  0  0  -0.004114  -0.028415  0  3.899341  0
C  C48  1  0.16193340  0.04170633  0.06376855  1  0  -0.076442  0  3.72847  0  0  -0.098261  0  3.975484  0  0  -0.100516  0  3.995975  0  0  -0.083621  -0.096769  0  3.961609  0
C  C49  1  0.83805945  0.95829440  0.93622728  1  0  -0.076487  0  3.728619  0  0  -0.098381  0  3.975618  0  0  -0.100638  0  3.996108  0  0  -0.083719  -0.096892  0  3.961735  0
C  C50  1  0.13316075  0.94196852  0.09291261  1  0  -0.058605  0  3.74048  0  0  -0.073605  0  3.993006  0  0  -0.073961  0  4.0121  0  0  -0.083635  -0.073205  0  3.980032  0
C  C51  1  0.86683186  0.05803371  0.90708326  1  0  -0.058609  0  3.740593  0  0  -0.073609  0  3.993074  0  0  -0.073966  0  4.012168  0  0  -0.083579  -0.073206  0  3.980096  0
C  C52  1  0.10182734  0.87985992  0.19387525  1  0  -0.065889  0  3.762395  0  0  -0.077089  0  4.008019  0  0  -0.080425  0  4.030627  0  0  -0.088048  -0.074835  0  3.992547  0
C  C53  1  0.89816410  0.12014156  0.80612170  1  0  -0.065878  0  3.762522  0  0  -0.077087  0  4.008169  0  0  -0.080422  0  4.030782  0  0  -0.088078  -0.074834  0  3.992695  0
C  C54  1  0.10358747  0.91722372  0.26442608  1  0  -0.065507  0  3.725311  0  0  -0.088379  0  3.974845  0  0  -0.088984  0  3.996014  0  0  -0.082308  -0.08773  0  3.960433  0
C  C55  1  0.89640336  0.08278152  0.73556929  1  0  -0.065412  0  3.725308  0  0  -0.088256  0  3.974803  0  0  -0.088874  0  3.995962  0  0  -0.082278  -0.087608  0  3.960388  0
C  C56  1  0.13683692  0.01696935  0.23603647  1  0  -0.081056  0  3.698647  0  0  -0.066788  0  3.933243  0  0  -0.074669  0  3.956293  0  0  -0.013655  -0.061503  0  3.917523  0
C  C57  1  0.86315684  0.98303364  0.76395965  1  0  -0.081155  0  3.6988  0  0  -0.066864  0  3.933331  0  0  -0.074746  0  3.956385  0  0  -0.013696  -0.06158  0  3.9176  0
C  C58  1  0.13348974  0.05133069  0.31645900  1  0  0.685601  0  3.849616  0  0  0.629821  0  4.138769  0  0  0.666467  0  4.13249  0  0  0.21477  0.604363  0  4.144496  0
C  C59  1  0.86651350  0.94866930  0.68353768  1  0  0.685692  0  3.849579  0  0  0.629733  0  4.138986  0  0  0.666378  0  4.132712  0  0  0.21469  0.604278  0  4.144692  0
C  C60  1  0.06777492  0.31191912  0.40724754  1  0  0.697476  0  3.865751  0  0  0.644766  0  4.157144  0  0  0.68198  0  4.147962  0  0  0.217995  0.619321  0  4.164196  0
C  C61  1  0.93223122  0.68807865  0.59275521  1  0  0.697765  0  3.865581  0  0  0.644911  0  4.157188  0  0  0.682113  0  4.148028  0  0  0.218072  0.619469  0  4.164236  0
C  C62  1  0.98462256  0.41760150  0.36609356  1  0  -0.054887  0  3.678412  0  0  -0.039886  0  3.910601  0  0  -0.044495  0  3.930861  0  0  -0.004951  -0.036817  0  3.896717  0
C  C63  1  0.01538371  0.58239552  0.63390817  1  0  -0.05506  0  3.678544  0  0  -0.040026  0  3.910736  0  0  -0.044633  0  3.931  0  0  -0.004997  -0.036959  0  3.89686  0
C  C64  1  0.90005604  0.45343133  0.43513008  1  0  -0.06085  0  3.721697  0  0  -0.086273  0  3.971975  0  0  -0.087587  0  3.992516  0  0  -0.078914  -0.085355  0  3.958024  0
C  C65  1  0.09994485  0.54656718  0.56487076  1  0  -0.060811  0  3.721688  0  0  -0.086247  0  3.97195  0  0  -0.087559  0  3.992487  0  0  -0.078918  -0.085327  0  3.958003  0
C  C66  1  0.83574776  0.55377308  0.40514133  1  0  -0.052073  0  3.748128  0  0  -0.067457  0  4.002411  0  0  -0.068355  0  4.022476  0  0  -0.080243  -0.066744  0  3.988733  0
C  C67  1  0.16425570  0.44622544  0.59486064  1  0  -0.052137  0  3.74803  0  0  -0.067485  0  4.002306  0  0  -0.068379  0  4.022373  0  0  -0.080227  -0.066769  0  3.988626  0
C  C68  1  0.85312335  0.61943740  0.30464487  1  0  -0.06694  0  3.76957  0  0  -0.079717  0  4.01474  0  0  -0.082457  0  4.037183  0  0  -0.089057  -0.077784  0  3.999423  0
C  C69  1  0.14688243  0.38056262  0.69535627  1  0  -0.066924  0  3.769677  0  0  -0.079721  0  4.014852  0  0  -0.082461  0  4.037295  0  0  -0.089074  -0.077786  0  3.999536  0
C  C70  1  0.92910050  0.58382490  0.23461222  1  0  -0.062665  0  3.722902  0  0  -0.085616  0  3.970381  0  0  -0.086746  0  3.991624  0  0  -0.081764  -0.084701  0  3.9559  0
C  C71  1  0.07089281  0.41617285  0.76538953  1  0  -0.062648  0  3.722905  0  0  -0.085622  0  3.970373  0  0  -0.086752  0  3.991617  0  0  -0.081761  -0.084707  0  3.955896  0
C  C72  1  0.99517772  0.48309591  0.26357617  1  0  -0.079362  0  3.698836  0  0  -0.065743  0  3.933684  0  0  -0.073136  0  3.9567  0  0  -0.01306  -0.060718  0  3.917996  0
C  C73  1  0.00481933  0.51690260  0.73642497  1  0  -0.079342  0  3.698866  0  0  -0.065661  0  3.933609  0  0  -0.073052  0  3.956625  0  0  -0.013021  -0.060633  0  3.917925  0
C  C74  1  0.06070071  0.44941208  0.18305132  1  0  0.685548  0  3.846856  0  0  0.629544  0  4.134873  0  0  0.666393  0  4.128563  0  0  0.215768  0.603868  0  4.140729  0
C  C75  1  0.93929852  0.55058869  0.81695067  1  0  0.685567  0  3.846752  0  0  0.62957  0  4.134716  0  0  0.666417  0  4.128411  0  0  0.215799  0.603891  0  4.140571  0
C  C76  1  0.54569841  0.36754152  0.35225330  1  0  0.671938  0  3.883713  0  0  0.619047  0  4.175308  0  0  0.654358  0  4.170913  0  0  0.208402  0.594796  0  4.179249  0
C  C77  1  0.45429954  0.63245925  0.64774879  1  0  0.671893  0  3.883813  0  0  0.618997  0  4.175395  0  0  0.654306  0  4.171002  0  0  0.208403  0.594747  0  4.17934  0
C  C78  1  0.48816185  0.47493222  0.29000071  1  0  -0.078732  0  3.70553  0  0  -0.065311  0  3.941076  0  0  -0.073127  0  3.963794  0  0  -0.012137  -0.060388  0  3.926227  0
C  C79  1  0.51183366  0.52506779  0.71000057  1  0  -0.078834  0  3.705574  0  0  -0.065371  0  3.941075  0  0  -0.073189  0  3.963794  0  0  -0.012162  -0.060441  0  3.926227  0
C  C80  1  0.43044718  0.54091302  0.33505353  1  0  -0.046875  0  3.713455  0  0  -0.071084  0  3.962153  0  0  -0.069844  0  3.982003  0  0  -0.07687  -0.071653  0  3.948544  0
C  C81  1  0.56955359  0.45908625  0.66494766  1  0  -0.046821  0  3.71336  0  0  -0.071053  0  3.962053  0  0  -0.069806  0  3.981912  0  0  -0.076864  -0.071626  0  3.948453  0
C  C82  1  0.38364196  0.64204763  0.27811262  1  0  -0.081933  0  3.766401  0  0  -0.095075  0  4.018228  0  0  -0.098997  0  4.040477  0  0  -0.090756  -0.092485  0  4.003039  0
C  C83  1  0.61635648  0.35795013  0.72189006  1  0  -0.082026  0  3.76634  0  0  -0.095176  0  4.018199  0  0  -0.0991  0  4.040445  0  0  -0.090806  -0.092584  0  4.003011  0
C  C84  1  0.40239360  0.67965222  0.17435910  1  0  -0.049015  0  3.754168  0  0  -0.063047  0  4.001184  0  0  -0.062872  0  4.021703  0  0  -0.084917  -0.062882  0  3.98704  0
C  C85  1  0.59760729  0.32034630  0.82564307  1  0  -0.048859  0  3.75403  0  0  -0.062908  0  4.001044  0  0  -0.06273  0  4.021563  0  0  -0.08487  -0.062746  0  3.986905  0
C  C86  1  0.46282811  0.61529639  0.12832028  1  0  -0.1256  0  3.782741  0  0  -0.142051  0  4.037049  0  0  -0.145827  0  4.055531  0  0  -0.100064  -0.139361  0  4.02442  0
C  C87  1  0.53716740  0.38470362  0.87168166  1  0  -0.125853  0  3.782751  0  0  -0.142321  0  4.037072  0  0  -0.146096  0  4.055551  0  0  -0.100111  -0.139622  0  4.024444  0
C  C88  1  0.50068158  0.51241166  0.18544516  1  0  -0.047321  0  3.697906  0  0  -0.03347  0  3.928299  0  0  -0.036126  0  3.948717  0  0  -0.004003  -0.031761  0  3.914847  0
C  C89  1  0.49931430  0.48758610  0.81455706  1  0  -0.047129  0  3.697899  0  0  -0.033289  0  3.928292  0  0  -0.03595  0  3.948707  0  0  -0.003955  -0.031579  0  3.914857  0
C  C90  1  0.55156083  0.44545023  0.13188138  1  0  0.711369  0  3.854564  0  0  0.658255  0  4.142036  0  0  0.694409  0  4.135196  0  0  0.220073  0.633142  0  4.148458  0
C  C91  1  0.44843738  0.55454903  0.86811868  1  0  0.711575  0  3.854276  0  0  0.658433  0  4.141776  0  0  0.694603  0  4.13491  0  0  0.220153  0.63329  0  4.148244  0
C  C92  1  0.66910868  0.13747971  0.15305517  1  0  0.674394  0  3.879188  0  0  0.620703  0  4.169327  0  0  0.656397  0  4.164723  0  0  0.21075  0.596162  0  4.173551  0
C  C93  1  0.33089966  0.86252032  0.84694776  1  0  0.674184  0  3.879457  0  0  0.620527  0  4.169603  0  0  0.656223  0  4.165004  0  0  0.210631  0.595985  0  4.173812  0
C  C94  1  0.62858436  0.03118807  0.21296479  1  0  -0.076811  0  3.710126  0  0  -0.064043  0  3.947052  0  0  -0.071796  0  3.969363  0  0  -0.011363  -0.059236  0  3.932686  0
C  C95  1  0.37141641  0.96881120  0.78703640  1  0  -0.076666  0  3.710072  0  0  -0.063996  0  3.94712  0  0  -0.071753  0  3.969433  0  0  -0.011331  -0.059187  0  3.932744  0
C  C96  1  0.62192823  0.96821201  0.16601169  1  0  -0.046046  0  3.716366  0  0  -0.071379  0  3.965599  0  0  -0.07015  0  3.985492  0  0  -0.077102  -0.072041  0  3.952056  0
C  C97  1  0.37807360  0.03178875  0.83398677  1  0  -0.046053  0  3.716367  0  0  -0.071324  0  3.965611  0  0  -0.070092  0  3.985501  0  0  -0.077094  -0.071993  0  3.95208  0
C  C98  1  0.59676803  0.86723370  0.22146827  1  0  -0.083963  0  3.769866  0  0  -0.096046  0  4.020617  0  0  -0.100013  0  4.042668  0  0  -0.092672  -0.093447  0  4.005657  0
C  C99  1  0.40323392  0.13276630  0.77852984  1  0  -0.084022  0  3.769894  0  0  -0.09608  0  4.020673  0  0  -0.100046  0  4.042723  0  0  -0.092708  -0.093486  0  4.005711  0
C  C100  1  0.58546088  0.82684805  0.32535007  1  0  -0.049192  0  3.751083  0  0  -0.063187  0  3.997302  0  0  -0.062978  0  4.017641  0  0  -0.084297  -0.063055  0  3.983399  0
C  C101  1  0.41453836  0.17315271  0.67465059  1  0  -0.049178  0  3.751029  0  0  -0.063148  0  3.99721  0  0  -0.062944  0  4.017558  0  0  -0.0843  -0.063008  0  3.983303  0
C  C102  1  0.59211269  0.88868448  0.37314296  1  0  -0.127874  0  3.780816  0  0  -0.143688  0  4.034347  0  0  -0.147556  0  4.052553  0  0  -0.100998  -0.14097  0  4.021923  0
C  C103  1  0.40788667  0.11131553  0.62685801  1  0  -0.127923  0  3.780833  0  0  -0.143741  0  4.034366  0  0  -0.147606  0  4.052572  0  0  -0.101012  -0.141019  0  4.021928  0
C  C104  1  0.60668535  0.99167982  0.31760162  1  0  -0.043744  0  3.692801  0  0  -0.030057  0  3.923908  0  0  -0.032626  0  3.944122  0  0  -0.002884  -0.028438  0  3.910691  0
C  C105  1  0.39331402  0.00832019  0.68239935  1  0  -0.043816  0  3.692786  0  0  -0.030121  0  3.923916  0  0  -0.032691  0  3.944125  0  0  -0.002922  -0.028495  0  3.910693  0
C  C106  1  0.59307380  0.05753090  0.37206719  1  0  0.709347  0  3.857898  0  0  0.655443  0  4.145971  0  0  0.691568  0  4.139419  0  0  0.218835  0.630345  0  4.152163  0
C  C107  1  0.40692416  0.94246986  0.62793357  1  0  0.709399  0  3.857845  0  0  0.655558  0  4.145829  0  0  0.69169  0  4.139262  0  0  0.218902  0.630447  0  4.152037  0
O  O108  1  0.11937857  0.25261337  0.02424523  1  0  -0.646179  0  2.092926  0  0  -0.572256  0  2.367838  0  0  -0.603596  0  2.352224  0  0  -0.317679  -0.549733  0  2.377504  0
O  O109  1  0.88062841  0.74738737  0.97575017  1  0  -0.646298  0  2.092906  0  0  -0.572324  0  2.367872  0  0  -0.603675  0  2.352258  0  0  -0.317718  -0.549798  0  2.377541  0
O  O110  1  0.32695020  0.20884238  0.12632018  1  0  -0.759303  0  2.124099  0  0  -0.703595  0  2.386532  0  0  -0.741962  0  2.373864  0  0  -0.417193  -0.683339  0  2.392789  0
O  O111  1  0.67305327  0.79115612  0.87367913  1  0  -0.759333  0  2.123996  0  0  -0.703551  0  2.386461  0  0  -0.741925  0  2.373784  0  0  -0.417179  -0.683292  0  2.392723  0
O  O112  1  0.14403734  0.98620979  0.40501138  1  0  -0.644798  0  2.204424  0  0  -0.56466  0  2.490611  0  0  -0.595952  0  2.476192  0  0  -0.315911  -0.542274  0  2.499665  0
O  O113  1  0.85596578  0.01379095  0.59498431  1  0  -0.644737  0  2.204353  0  0  -0.564553  0  2.490626  0  0  -0.595849  0  2.476211  0  0  -0.315773  -0.542175  0  2.499696  0
O  O114  1  0.11703692  0.14646173  0.29527861  1  0  -0.797998  0  2.218918  0  0  -0.724958  0  2.509079  0  0  -0.762279  0  2.492491  0  0  -0.396079  -0.704591  0  2.520427  0
O  O115  1  0.88295988  0.85353828  0.70472256  1  0  -0.798053  0  2.218924  0  0  -0.724956  0  2.50916  0  0  -0.762277  0  2.492569  0  0  -0.396128  -0.704595  0  2.520529  0
O  O116  1  0.98341805  0.24403607  0.47667969  1  0  -0.649438  0  2.123192  0  0  -0.573056  0  2.402339  0  0  -0.604414  0  2.38572  0  0  -0.31818  -0.55052  0  2.412678  0
O  O117  1  0.01658657  0.75596320  0.52332187  1  0  -0.649532  0  2.12315  0  0  -0.573102  0  2.402375  0  0  -0.604457  0  2.385759  0  0  -0.318213  -0.550565  0  2.412711  0
O  O118  1  0.22310783  0.29436848  0.37561725  1  0  -0.757152  0  2.116666  0  0  -0.701965  0  2.379496  0  0  -0.740051  0  2.366444  0  0  -0.41814  -0.682091  0  2.3862  0
O  O119  1  0.77689960  0.70562930  0.62438540  1  0  -0.757189  0  2.116615  0  0  -0.701966  0  2.379545  0  0  -0.740047  0  2.366496  0  0  -0.418122  -0.682091  0  2.386249  0
O  O120  1  0.08638978  0.51424368  0.09441146  1  0  -0.645301  0  2.214327  0  0  -0.562812  0  2.501444  0  0  -0.594825  0  2.487048  0  0  -0.316117  -0.540019  0  2.51066  0
O  O121  1  0.91360933  0.48575785  0.90559021  1  0  -0.645338  0  2.214327  0  0  -0.562855  0  2.501444  0  0  -0.594868  0  2.487055  0  0  -0.316147  -0.540056  0  2.510656  0
O  O122  1  0.08396309  0.35433206  0.20397745  1  0  -0.796079  0  2.237868  0  0  -0.721257  0  2.528731  0  0  -0.758925  0  2.512298  0  0  -0.395252  -0.700539  0  2.53997  0
O  O123  1  0.91603615  0.64566871  0.79602387  1  0  -0.7961  0  2.237878  0  0  -0.721302  0  2.528755  0  0  -0.758968  0  2.512312  0  0  -0.395299  -0.700609  0  2.540063  0
O  O124  1  0.57028256  0.33969652  0.44174471  1  0  -0.585729  0  1.961277  0  0  -0.521476  0  2.203139  0  0  -0.551416  0  2.194973  0  0  -0.303567  -0.500023  0  2.207636  0
O  O125  1  0.42971528  0.66030500  0.55825640  1  0  -0.585766  0  1.961202  0  0  -0.521516  0  2.203062  0  0  -0.551456  0  2.194897  0  0  -0.30359  -0.50006  0  2.207561  0
O  O126  1  0.57395128  0.30741594  0.30788320  1  0  -0.802247  0  2.229866  0  0  -0.72437  0  2.505643  0  0  -0.763067  0  2.492349  0  0  -0.396613  -0.702641  0  2.514072  0
O  O127  1  0.42604681  0.69258406  0.69211654  1  0  -0.802169  0  2.230026  0  0  -0.724291  0  2.505791  0  0  -0.762988  0  2.492498  0  0  -0.396593  -0.702562  0  2.514222  0
O  O128  1  0.70437942  0.44443955  0.09020476  1  0  -0.62996  0  2.173571  0  0  -0.550528  0  2.463059  0  0  -0.582479  0  2.447091  0  0  -0.315857  -0.527558  0  2.47296  0
O  O129  1  0.29561856  0.55556119  0.90979266  1  0  -0.63003  0  2.173528  0  0  -0.550608  0  2.463084  0  0  -0.58256  0  2.447091  0  0  -0.315863  -0.527621  0  2.472996  0
O  O130  1  0.43580391  0.39669517  0.12674668  1  0  -0.751488  0  2.11666  0  0  -0.701874  0  2.393259  0  0  -0.738414  0  2.37903  0  0  -0.416373  -0.682972  0  2.401581  0
O  O131  1  0.56419326  0.60330258  0.87325477  1  0  -0.751593  0  2.1166  0  0  -0.701957  0  2.393208  0  0  -0.738505  0  2.378965  0  0  -0.416424  -0.683043  0  2.401551  0
O  O132  1  0.72319294  0.05846155  0.41239936  1  0  -0.623521  0  2.174065  0  0  -0.54456  0  2.461776  0  0  -0.576302  0  2.446219  0  0  -0.312694  -0.521825  0  2.471524  0
O  O133  1  0.27680528  0.94153770  0.58760003  1  0  -0.623578  0  2.174025  0  0  -0.544646  0  2.461724  0  0  -0.576389  0  2.44616  0  0  -0.312736  -0.521918  0  2.471507  0
O  O134  1  0.44741324  0.10610689  0.37851780  1  0  -0.756855  0  2.120496  0  0  -0.705757  0  2.397882  0  0  -0.742415  0  2.383344  0  0  -0.415358  -0.686775  0  2.406613  0
O  O135  1  0.55258508  0.89389163  0.62148523  1  0  -0.756869  0  2.120512  0  0  -0.705794  0  2.397877  0  0  -0.742454  0  2.383331  0  0  -0.415398  -0.686806  0  2.406617  0
O  O136  1  0.63800974  0.19691297  0.19795625  1  0  -0.797068  0  2.251249  0  0  -0.718819  0  2.528617  0  0  -0.757501  0  2.515038  0  0  -0.397237  -0.696934  0  2.536822  0
O  O137  1  0.36199358  0.80308632  0.80204874  1  0  -0.796942  0  2.251117  0  0  -0.7187  0  2.528465  0  0  -0.757382  0  2.514883  0  0  -0.397221  -0.696851  0  2.536752  0
O  O138  1  0.73649966  0.16502887  0.06476994  1  0  -0.580328  0  1.995636  0  0  -0.510568  0  2.241509  0  0  -0.541437  0  2.232924  0  0  -0.296206  -0.488493  0  2.246242  0
O  O139  1  0.26351777  0.83497044  0.93523594  1  0  -0.580246  0  1.995731  0  0  -0.510504  0  2.241599  0  0  -0.541372  0  2.233011  0  0  -0.296118  -0.488422  0  2.246324  0
