# generated using pymatgen
data_ZnH10C12(BrN)2
_symmetry_space_group_name_H-M   'P 1'
_cell_length_a   5.42968948
_cell_length_b   7.75063737
_cell_length_c   15.58558246
_cell_angle_alpha   79.93600307
_cell_angle_beta   88.14114432
_cell_angle_gamma   88.80424112
_symmetry_Int_Tables_number   1
_chemical_formula_structural   ZnH10C12(BrN)2
_chemical_formula_sum   'Zn2 H20 C24 Br4 N4'
_cell_volume   645.38769790
_cell_formula_units_Z   2
loop_
 _symmetry_equiv_pos_site_id
 _symmetry_equiv_pos_as_xyz
  1  'x, y, z'
loop_
 _atom_site_type_symbol
 _atom_site_label
 _atom_site_symmetry_multiplicity
 _atom_site_fract_x
 _atom_site_fract_y
 _atom_site_fract_z
 _atom_site_occupancy
 _atom_site_hle17_bader_spin_density
 _atom_site_hle17_ddec_charge
 _atom_site_hle17_ddec_spin_density
 _atom_site_hle17_ddec_sum_bond_order
 _atom_site_hle17_magmom
 _atom_site_hse06_10hf_bader_spin_density
 _atom_site_hse06_10hf_ddec_charge
 _atom_site_hse06_10hf_ddec_spin_density
 _atom_site_hse06_10hf_ddec_sum_bond_order
 _atom_site_hse06_10hf_magmom
 _atom_site_hse06_bader_spin_density
 _atom_site_hse06_ddec_charge
 _atom_site_hse06_ddec_spin_density
 _atom_site_hse06_ddec_sum_bond_order
 _atom_site_hse06_magmom
 _atom_site_pbe_bader_spin_density
 _atom_site_pbe_cm5_charge
 _atom_site_pbe_ddec_charge
 _atom_site_pbe_ddec_spin_density
 _atom_site_pbe_ddec_sum_bond_order
 _atom_site_pbe_magmom
Zn  Zn0  1  0.33370290  0.49597519  0.74342411  1  0  0.772928  0  2.121032  0  0  0.593945  0  2.603485  0  0  0.636386  0  2.560089  0  0  0.516181  0.564935  0  2.632774  0
Zn  Zn1  1  0.66629069  0.50402874  0.25657406  1  0  0.772953  0  2.121077  0  0  0.593946  0  2.603548  0  0  0.636418  0  2.560158  0  0  0.51618  0.564944  0  2.632831  0
H  H2  1  0.26823781  0.09814667  0.78519153  1  0  0.074649  0  0.958097  0  0  0.078414  0  1.031852  0  0  0.081578  0  1.028592  0  0  0.102749  0.076067  0  1.034217  0
H  H3  1  0.73176505  0.90185889  0.21481278  1  0  0.074611  0  0.957993  0  0  0.078439  0  1.031713  0  0  0.081612  0  1.028452  0  0  0.102753  0.076096  0  1.034063  0
H  H4  1  0.98289264  0.89155442  0.87734896  1  0  0.103437  0  0.968724  0  0  0.110482  0  1.037343  0  0  0.114071  0  1.035618  0  0  0.095906  0.107856  0  1.03882  0
H  H5  1  0.01713249  0.10844320  0.12265391  1  0  0.103425  0  0.96867  0  0  0.110436  0  1.037325  0  0  0.114048  0  1.035576  0  0  0.095878  0.107814  0  1.03879  0
H  H6  1  0.62626200  0.34127992  0.96187339  1  0  0.108436  0  0.969123  0  0  0.114458  0  1.036238  0  0  0.118494  0  1.033925  0  0  0.097157  0.111545  0  1.038087  0
H  H7  1  0.37373368  0.65871356  0.03812643  1  0  0.108391  0  0.969181  0  0  0.114409  0  1.036303  0  0  0.118444  0  1.033991  0  0  0.097129  0.111497  0  1.038153  0
H  H8  1  0.93144550  0.52551570  0.87084224  1  0  0.068031  0  0.974684  0  0  0.074293  0  1.045532  0  0  0.07712  0  1.042322  0  0  0.100302  0.072145  0  1.047922  0
H  H9  1  0.06854277  0.47447902  0.12915627  1  0  0.068018  0  0.974724  0  0  0.074282  0  1.045598  0  0  0.077119  0  1.042365  0  0  0.100304  0.072138  0  1.047983  0
H  H10  1  0.94697105  0.75949862  0.75723343  1  0  0.065488  0  0.985096  0  0  0.072093  0  1.05727  0  0  0.07458  0  1.05453  0  0  0.100289  0.070258  0  1.059218  0
H  H11  1  0.05304258  0.24051590  0.24276536  1  0  0.06544  0  0.985134  0  0  0.072089  0  1.057251  0  0  0.07453  0  1.054572  0  0  0.100299  0.070245  0  1.059215  0
H  H12  1  0.63936643  0.93639714  0.66725375  1  0  0.108722  0  0.966438  0  0  0.11564  0  1.032443  0  0  0.11944  0  1.030431  0  0  0.098286  0.112905  0  1.034068  0
H  H13  1  0.36065070  0.06362525  0.33274422  1  0  0.108719  0  0.966371  0  0  0.115643  0  1.032364  0  0  0.119444  0  1.030351  0  0  0.098277  0.112908  0  1.033991  0
H  H14  1  0.96501727  0.74066325  0.44445664  1  0  0.112223  0  0.95226  0  0  0.120799  0  1.015536  0  0  0.124234  0  1.014483  0  0  0.100276  0.118344  0  1.016462  0
H  H15  1  0.03494738  0.25931847  0.55554603  1  0  0.112162  0  0.952241  0  0  0.120716  0  1.015549  0  0  0.12415  0  1.014498  0  0  0.100259  0.118259  0  1.016476  0
H  H16  1  0.26019387  0.56752320  0.54577723  1  0  0.074565  0  0.958477  0  0  0.078946  0  1.031702  0  0  0.081844  0  1.02899  0  0  0.105104  0.076823  0  1.03364  0
H  H17  1  0.73976169  0.43245324  0.45422544  1  0  0.074449  0  0.958538  0  0  0.078853  0  1.031758  0  0  0.081739  0  1.029055  0  0  0.105065  0.076726  0  1.033702  0
H  H18  1  0.65366863  0.83789203  0.98457886  1  0  0.097506  0  0.947234  0  0  0.11123  0  1.003848  0  0  0.113861  0  1.002909  0  0  0.100107  0.10934  0  1.004598  0
H  H19  1  0.34634574  0.16209388  0.01542723  1  0  0.097519  0  0.947283  0  0  0.111239  0  1.003934  0  0  0.113869  0  1.002994  0  0  0.100148  0.10935  0  1.004681  0
H  H20  1  0.62866324  0.94538704  0.41876874  1  0  0.09424  0  0.956491  0  0  0.10602  0  1.017537  0  0  0.109108  0  1.015755  0  0  0.099234  0.103806  0  1.01886  0
H  H21  1  0.37133038  0.05461561  0.58123020  1  0  0.094138  0  0.956576  0  0  0.105936  0  1.017613  0  0  0.109024  0  1.015833  0  0  0.099215  0.10372  0  1.018942  0
C  C22  1  0.12141683  0.14593054  0.82485968  1  0  0.134826  0  3.706449  0  0  0.102371  0  3.956214  0  0  0.110466  0  3.973914  0  0  0.041947  0.097247  0  3.944048  0
C  C23  1  0.87859904  0.85406695  0.17514076  1  0  0.134864  0  3.705886  0  0  0.102347  0  3.955616  0  0  0.110428  0  3.973338  0  0  0.041953  0.09722  0  3.943456  0
C  C24  1  0.96008337  0.03193367  0.87599133  1  0  -0.153804  0  3.689036  0  0  -0.171801  0  3.935728  0  0  -0.180376  0  3.956969  0  0  -0.082753  -0.166432  0  3.921529  0
C  C25  1  0.03994910  0.96806243  0.12400711  1  0  -0.153896  0  3.688927  0  0  -0.171875  0  3.93568  0  0  -0.180469  0  3.956908  0  0  -0.082858  -0.166501  0  3.921475  0
C  C26  1  0.77238410  0.09719822  0.92649956  1  0  0.141272  0  3.779608  0  0  0.157063  0  4.007792  0  0  0.163199  0  4.029831  0  0  0.010518  0.153231  0  3.992664  0
C  C27  1  0.22764084  0.90280442  0.07349833  1  0  0.141354  0  3.780157  0  0  0.157169  0  4.008358  0  0  0.163307  0  4.030397  0  0  0.010627  0.153335  0  3.993236  0
C  C28  1  0.76253313  0.27961466  0.92375841  1  0  -0.155529  0  3.694918  0  0  -0.171025  0  3.937671  0  0  -0.179428  0  3.958703  0  0  -0.083521  -0.165607  0  3.923599  0
C  C29  1  0.23747347  0.72038541  0.07624125  1  0  -0.155503  0  3.694906  0  0  -0.170978  0  3.937667  0  0  -0.179386  0  3.958701  0  0  -0.083498  -0.165566  0  3.923603  0
C  C30  1  0.93341932  0.38443542  0.87257830  1  0  0.119735  0  3.736185  0  0  0.088658  0  3.982081  0  0  0.095813  0  4.000897  0  0  0.033422  0.084135  0  3.969278  0
C  C31  1  0.06657990  0.61556464  0.12742146  1  0  0.119757  0  3.7362  0  0  0.088642  0  3.982129  0  0  0.095799  0  4.00095  0  0  0.033419  0.084124  0  3.969323  0
C  C32  1  0.94318915  0.75747071  0.68765066  1  0  0.120413  0  3.735309  0  0  0.089031  0  3.980464  0  0  0.09601  0  3.999756  0  0  0.035185  0.084584  0  3.967363  0
C  C33  1  0.05681357  0.24253721  0.31234828  1  0  0.12055  0  3.735393  0  0  0.089126  0  3.980528  0  0  0.09614  0  3.999839  0  0  0.035179  0.08468  0  3.967426  0
C  C34  1  0.77062592  0.85662758  0.63638150  1  0  -0.151443  0  3.690028  0  0  -0.166253  0  3.930764  0  0  -0.174577  0  3.951961  0  0  -0.083059  -0.160902  0  3.916629  0
C  C35  1  0.22937670  0.14338565  0.36361820  1  0  -0.151472  0  3.689923  0  0  -0.166271  0  3.930645  0  0  -0.174587  0  3.951822  0  0  -0.083026  -0.160925  0  3.916513  0
C  C36  1  0.77056530  0.85253955  0.54649110  1  0  0.140785  0  3.784692  0  0  0.156345  0  4.012981  0  0  0.162518  0  4.034849  0  0  0.010226  0.152459  0  3.998008  0
C  C37  1  0.22942841  0.14746055  0.45350937  1  0  0.140832  0  3.784571  0  0  0.156386  0  4.012847  0  0  0.162558  0  4.03472  0  0  0.010237  0.152506  0  3.997865  0
C  C38  1  0.95197891  0.74688151  0.51376580  1  0  -0.155504  0  3.679555  0  0  -0.172326  0  3.925568  0  0  -0.180999  0  3.946623  0  0  -0.080081  -0.166889  0  3.911486  0
C  C39  1  0.04800043  0.25310288  0.48623706  1  0  -0.155501  0  3.679358  0  0  -0.172307  0  3.925411  0  0  -0.180979  0  3.946463  0  0  -0.080112  -0.166865  0  3.911324  0
C  C40  1  0.11769337  0.65006975  0.56966477  1  0  0.135279  0  3.707281  0  0  0.102439  0  3.958412  0  0  0.110511  0  3.976395  0  0  0.043465  0.097321  0  3.946113  0
C  C41  1  0.88228228  0.34991320  0.43033571  1  0  0.135528  0  3.707286  0  0  0.102636  0  3.958416  0  0  0.110735  0  3.976414  0  0  0.043636  0.097513  0  3.946117  0
C  C42  1  0.60376546  0.97644659  0.97954317  1  0  -0.08623  0  3.698885  0  0  -0.106298  0  3.947456  0  0  -0.109499  0  3.968149  0  0  -0.080204  -0.104183  0  3.933308  0
C  C43  1  0.39622279  0.02355660  0.02046670  1  0  -0.085719  0  3.699174  0  0  -0.10594  0  3.947823  0  0  -0.109144  0  3.968518  0  0  -0.080019  -0.103826  0  3.933673  0
C  C44  1  0.59653694  0.95253410  0.48762671  1  0  -0.088735  0  3.696439  0  0  -0.109581  0  3.946056  0  0  -0.11276  0  3.966382  0  0  -0.079316  -0.107451  0  3.932161  0
C  C45  1  0.40345108  0.04747254  0.51237319  1  0  -0.088358  0  3.696399  0  0  -0.109201  0  3.945971  0  0  -0.112381  0  3.966299  0  0  -0.079125  -0.107064  0  3.932069  0
Br  Br46  1  0.60782196  0.33379314  0.66565785  1  0  -0.51155  0  0.968907  0  0  -0.448062  0  1.266654  0  0  -0.465669  0  1.246072  0  0  -0.269883  -0.435476  0  1.280739  0
Br  Br47  1  0.39217864  0.66622374  0.33433574  1  0  -0.511582  0  0.96893  0  0  -0.448086  0  1.266681  0  0  -0.465705  0  1.246106  0  0  -0.269891  -0.435503  0  1.280761  0
Br  Br48  1  0.43586166  0.69322605  0.84055357  1  0  -0.531165  0  0.993806  0  0  -0.468659  0  1.30025  0  0  -0.487386  0  1.277943  0  0  -0.255937  -0.454927  0  1.31527  0
Br  Br49  1  0.56415925  0.30678672  0.15943631  1  0  -0.53118  0  0.993762  0  0  -0.468683  0  1.300227  0  0  -0.487404  0  1.277903  0  0  -0.255959  -0.454953  0  1.315248  0
N  N50  1  0.10911389  0.32040731  0.82292341  1  0  -0.318456  0  3.338117  0  0  -0.228166  0  3.602487  0  0  -0.248308  0  3.620034  0  0  -0.337259  -0.214621  0  3.590327  0
N  N51  1  0.89088559  0.67958374  0.17708045  1  0  -0.318492  0  3.337972  0  0  -0.228176  0  3.602369  0  0  -0.24832  0  3.619924  0  0  -0.337247  -0.214634  0  3.590212  0
N  N52  1  0.11343851  0.65398654  0.65580666  1  0  -0.32045  0  3.333519  0  0  -0.23033  0  3.598816  0  0  -0.250505  0  3.616163  0  0  -0.338522  -0.216787  0  3.586847  0
N  N53  1  0.88654601  0.34601080  0.34419164  1  0  -0.320676  0  3.333657  0  0  -0.230504  0  3.59892  0  0  -0.250718  0  3.616294  0  0  -0.338643  -0.216961  0  3.586951  0
