# generated using pymatgen
data_ZnH6C16NO8
_symmetry_space_group_name_H-M   'P 1'
_cell_length_a   14.86672274
_cell_length_b   22.65222146
_cell_length_c   22.61752097
_cell_angle_alpha   89.99450374
_cell_angle_beta   89.99986943
_cell_angle_gamma   90.00373860
_symmetry_Int_Tables_number   1
_chemical_formula_structural   ZnH6C16NO8
_chemical_formula_sum   'Zn4 H24 C64 N4 O32'
_cell_volume   7616.77347189
_cell_formula_units_Z   4
loop_
 _symmetry_equiv_pos_site_id
 _symmetry_equiv_pos_as_xyz
  1  'x, y, z'
loop_
 _atom_site_type_symbol
 _atom_site_label
 _atom_site_symmetry_multiplicity
 _atom_site_fract_x
 _atom_site_fract_y
 _atom_site_fract_z
 _atom_site_occupancy
 _atom_site_pbe_bader_charge
 _atom_site_pbe_bader_spin_density
 _atom_site_pbe_cm5_charge
 _atom_site_pbe_ddec_charge
 _atom_site_pbe_ddec_spin_density
 _atom_site_pbe_ddec_sum_bond_order
 _atom_site_pbe_magmom
Zn  Zn0  1  0.59560988  0.00000700  0.50000067  1  1.305169  0  0.68544  0.898673  0  2.411606  0
Zn  Zn1  1  0.40438999  0.99999257  0.49999955  1  1.287841  0  0.685388  0.898753  0  2.411843  0
Zn  Zn2  1  0.59559073  0.50000570  0.99999549  1  1.288155  0  0.685631  0.898569  0  2.412138  0
Zn  Zn3  1  0.40440577  0.49999608  0.00000120  1  1.305265  0  0.68571  0.89876  0  2.412081  0
H  H4  1  0.08393614  0.99331495  0.40459009  1  0.089076  0  0.134669  0.139559  0  0.952189  0
H  H5  1  0.91606574  0.00668727  0.59541853  1  0.088879  0  0.134645  0.139621  0  0.952205  0
H  H6  1  0.08394220  0.00668084  0.59541243  1  0.088914  0  0.134678  0.139706  0  0.952147  0
H  H7  1  0.91606170  0.99332050  0.40459000  1  0.089082  0  0.134608  0.139553  0  0.952082  0
H  H8  1  0.08391542  0.49826201  0.90436994  1  0.133911  0  0.134751  0.139498  0  0.95205  0
H  H9  1  0.91608444  0.50173624  0.09561570  1  0.134312  0  0.134816  0.139515  0  0.952025  0
H  H10  1  0.08391381  0.50173289  0.09561446  1  0.13436  0  0.134852  0.139543  0  0.952076  0
H  H11  1  0.91608336  0.49826491  0.90437162  1  0.133894  0  0.134735  0.139448  0  0.952138  0
H  H12  1  0.65004443  0.79958528  0.34574363  1  0.598742  0  0.325793  0.357119  0  0.89721  0
H  H13  1  0.34995005  0.20044873  0.65422697  1  0.599601  0  0.325859  0.357259  0  0.896907  0
H  H14  1  0.65003301  0.20058337  0.65406925  1  0.599938  0  0.325755  0.356756  0  0.896878  0
H  H15  1  0.34995677  0.79937779  0.34596812  1  0.600692  0  0.325563  0.356292  0  0.8975  0
H  H16  1  0.34991241  0.20043213  0.34574179  1  0.598992  0  0.326018  0.357425  0  0.896913  0
H  H17  1  0.65007333  0.79951006  0.65418725  1  0.599768  0  0.326097  0.357874  0  0.896104  0
H  H18  1  0.34992916  0.79949108  0.65416856  1  0.599273  0  0.326148  0.357839  0  0.896174  0
H  H19  1  0.65006667  0.20056588  0.34590240  1  0.600502  0  0.325784  0.356708  0  0.896927  0
H  H20  1  0.64997948  0.34551317  0.79970204  1  0.598693  0  0.32538  0.356423  0  0.898226  0
H  H21  1  0.35002240  0.65444005  0.20033267  1  0.598408  0  0.325418  0.356116  0  0.898164  0
H  H22  1  0.64996141  0.65466696  0.20010641  1  0.596562  0  0.325333  0.356605  0  0.898379  0
H  H23  1  0.35004451  0.34537720  0.79986109  1  0.597264  0  0.325583  0.356902  0  0.898134  0
H  H24  1  0.35000897  0.65454865  0.79977060  1  0.598192  0  0.325746  0.356952  0  0.897963  0
H  H25  1  0.64999426  0.34551847  0.20030434  1  0.598356  0  0.325429  0.35626  0  0.898167  0
H  H26  1  0.35004382  0.34538119  0.20014240  1  0.59722  0  0.325539  0.356961  0  0.898044  0
H  H27  1  0.64996008  0.65456409  0.79978487  1  0.598113  0  0.32573  0.35686  0  0.898072  0
C  C28  1  0.50000752  0.08539555  0.42333580  1  1.682182  0  0.21517  0.668009  0  4.255053  0
C  C29  1  0.50000781  0.91460314  0.57666310  1  1.682083  0  0.215245  0.668012  0  4.254921  0
C  C30  1  0.50001186  0.91460827  0.42331207  1  1.682292  0  0.214833  0.667862  0  4.255486  0
C  C31  1  0.50000347  0.08539131  0.57668815  1  1.682744  0  0.214775  0.667938  0  4.256071  0
C  C32  1  0.49999001  0.57653767  0.91447466  1  1.681728  0  0.21512  0.667007  0  4.254838  0
C  C33  1  0.49999237  0.42346190  0.08551849  1  1.6811  0  0.214988  0.666831  0  4.254792  0
C  C34  1  0.49999877  0.42345556  0.91447362  1  1.682263  0  0.215034  0.666842  0  4.255123  0
C  C35  1  0.50001052  0.57654446  0.08552527  1  1.681619  0  0.215089  0.666874  0  4.255321  0
C  C36  1  0.95332542  0.99624588  0.44591978  1  -0.03738  0  -0.047385  -0.084459  0  3.910798  0
C  C37  1  0.04667982  0.00375855  0.55408354  1  0.139229  0  -0.047289  -0.083809  0  3.912188  0
C  C38  1  0.95332954  0.00376088  0.55408747  1  -0.037308  0  -0.047487  -0.084721  0  3.91134  0
C  C39  1  0.04667570  0.99624355  0.44591850  1  0.139249  0  -0.04739  -0.083791  0  3.912127  0
C  C40  1  0.95333285  0.49900950  0.94579877  1  0.094801  0  -0.047399  -0.083273  0  3.912901  0
C  C41  1  0.04666164  0.50099140  0.05418730  1  -0.082218  0  -0.047655  -0.083506  0  3.912851  0
C  C42  1  0.95333355  0.50099285  0.05418813  1  0.094653  0  -0.047427  -0.083339  0  3.912927  0
C  C43  1  0.04666564  0.49900716  0.94579838  1  -0.081819  0  -0.047553  -0.083567  0  3.912948  0
C  C44  1  0.90690781  0.00000283  0.50000434  1  0.072091  0  0.02836  0.064487  0  4.079229  0
C  C45  1  0.09309340  0.99999542  0.50000074  1  0.072184  0  0.028338  0.061921  0  4.083136  0
C  C46  1  0.90690413  0.50000108  0.99999253  1  0.071118  0  0.028197  0.061121  0  4.083684  0
C  C47  1  0.09309464  0.49999682  0.99999174  1  0.071188  0  0.028267  0.061243  0  4.083488  0
C  C48  1  0.58353173  0.25252336  0.70381826  1  0.585603  0  0.072879  0.168411  0  4.078178  0
C  C49  1  0.41646477  0.74745414  0.29619788  1  0.585624  0  0.07259  0.167867  0  4.077951  0
C  C50  1  0.58354329  0.74756819  0.29609095  1  0.583973  0  0.073014  0.168764  0  4.079012  0
C  C51  1  0.41645321  0.25244949  0.70389336  1  0.584018  0  0.073246  0.16881  0  4.07888  0
C  C52  1  0.41644950  0.74750734  0.70384821  1  0.585036  0  0.073185  0.168937  0  4.078283  0
C  C53  1  0.58353287  0.25252711  0.29618517  1  0.585802  0  0.072835  0.168295  0  4.078425  0
C  C54  1  0.41645166  0.25245103  0.29610640  1  0.584054  0  0.073154  0.168629  0  4.079371  0
C  C55  1  0.58354484  0.74751411  0.70385580  1  0.585006  0  0.073091  0.168798  0  4.078384  0
C  C56  1  0.58353197  0.70400356  0.25246858  1  0.462562  0  0.07236  0.167751  0  4.078663  0
C  C57  1  0.41646520  0.29601367  0.74751219  1  0.461237  0  0.07222  0.167595  0  4.078719  0
C  C58  1  0.58353834  0.29607342  0.74744151  1  0.461538  0  0.072049  0.167677  0  4.07815  0
C  C59  1  0.41646017  0.70389878  0.25257949  1  0.462296  0  0.072323  0.16798  0  4.077738  0
C  C60  1  0.41646674  0.29601781  0.25248799  1  0.461415  0  0.072488  0.168018  0  4.078888  0
C  C61  1  0.58353447  0.70394909  0.74747332  1  0.46169  0  0.07233  0.167528  0  4.078989  0
C  C62  1  0.41645864  0.70394497  0.74746794  1  0.461452  0  0.072406  0.167708  0  4.079017  0
C  C63  1  0.58354526  0.29608242  0.25256101  1  0.461495  0  0.072142  0.167651  0  4.07818  0
C  C64  1  0.49998845  0.23000456  0.68343429  1  0.197386  0  -0.033647  -0.112169  0  4.209957  0
C  C65  1  0.50000469  0.76999369  0.31656593  1  0.198351  0  -0.033496  -0.112031  0  4.210259  0
C  C66  1  0.49999969  0.76999619  0.68343593  1  0.196982  0  -0.033475  -0.112029  0  4.209466  0
C  C67  1  0.49999008  0.23000471  0.31657092  1  0.197725  0  -0.033706  -0.112285  0  4.21014  0
C  C68  1  0.49999620  0.68354072  0.23003565  1  0.197535  0  -0.03373  -0.112652  0  4.210863  0
C  C69  1  0.50000165  0.31645047  0.76996413  1  0.199463  0  -0.0335  -0.112259  0  4.210523  0
C  C70  1  0.50000809  0.31646369  0.23004023  1  0.19992  0  -0.033686  -0.112492  0  4.210597  0
C  C71  1  0.49999514  0.68354427  0.76996530  1  0.199317  0  -0.033641  -0.112213  0  4.210517  0
C  C72  1  0.81132722  0.00001353  0.50000386  1  0.854295  0  0.252075  0.297904  0  3.913187  0
C  C73  1  0.18868609  0.99998914  0.49999990  1  0.854689  0  0.252045  0.298527  0  3.914018  0
C  C74  1  0.81133566  0.50000427  0.99999514  1  0.853504  0  0.252031  0.298959  0  3.91441  0
C  C75  1  0.18866379  0.49999407  0.99999355  1  0.853517  0  0.252083  0.298934  0  3.914532  0
C  C76  1  0.49999235  0.18167904  0.64441922  1  -0.173887  0  -0.041948  -0.060276  0  4.216793  0
C  C77  1  0.49999541  0.81832141  0.35558100  1  -0.173602  0  -0.041894  -0.060058  0  4.216336  0
C  C78  1  0.49999614  0.81832080  0.64441460  1  -0.174609  0  -0.041917  -0.060284  0  4.216652  0
C  C79  1  0.49998825  0.18167083  0.35557899  1  -0.172746  0  -0.041767  -0.059876  0  4.216706  0
C  C80  1  0.49999049  0.64447519  0.18173969  1  -0.175422  0  -0.041522  -0.059269  0  4.215635  0
C  C81  1  0.50001408  0.35552394  0.81825611  1  -0.175154  0  -0.041514  -0.059209  0  4.215223  0
C  C82  1  0.50002163  0.35553091  0.18173675  1  -0.175365  0  -0.041521  -0.059204  0  4.215458  0
C  C83  1  0.49998497  0.64446999  0.81825817  1  -0.175634  0  -0.041445  -0.059322  0  4.215516  0
C  C84  1  0.50001018  0.86237264  0.38688944  1  -0.176956  0  -0.04038  -0.179797  0  3.953812  0
C  C85  1  0.49999238  0.13763135  0.61310946  1  -0.176644  0  -0.04035  -0.179631  0  3.953912  0
C  C86  1  0.49998868  0.13762385  0.38690076  1  -0.177817  0  -0.040319  -0.179787  0  3.954072  0
C  C87  1  0.50000311  0.86237351  0.61309239  1  -0.175818  0  -0.040232  -0.179647  0  3.953994  0
C  C88  1  0.50000329  0.38696170  0.86225270  1  -0.173569  0  -0.040515  -0.18003  0  3.953832  0
C  C89  1  0.50000733  0.61303125  0.13774930  1  -0.173193  0  -0.040484  -0.179913  0  3.954244  0
C  C90  1  0.49998191  0.61301680  0.86224912  1  -0.172778  0  -0.040549  -0.179917  0  3.954253  0
C  C91  1  0.49999912  0.38697439  0.13774491  1  -0.17356  0  -0.040422  -0.179966  0  3.954211  0
N  N92  1  0.26669992  0.99998689  0.50000037  1  -1.093757  0  -0.260946  -0.267186  0  3.099785  0
N  N93  1  0.73330532  0.00001092  0.50000339  1  -1.093263  0  -0.260936  -0.2674  0  3.099676  0
N  N94  1  0.26668367  0.49999182  0.99999756  1  -1.09259  0  -0.260869  -0.267379  0  3.099352  0
N  N95  1  0.73331241  0.50000653  0.99999510  1  -1.09258  0  -0.260811  -0.267354  0  3.09914  0
O  O96  1  0.57690978  0.06508336  0.43770537  1  -1.138092  0  -0.319036  -0.551768  0  2.253141  0
O  O97  1  0.42307933  0.93493122  0.56230059  1  -1.137843  0  -0.319227  -0.552036  0  2.252067  0
O  O98  1  0.57690677  0.93493197  0.56229226  1  -1.138168  0  -0.319122  -0.551809  0  2.25304  0
O  O99  1  0.42308165  0.06505701  0.43769647  1  -1.138109  0  -0.31917  -0.55204  0  2.252044  0
O  O100  1  0.42308795  0.93492358  0.43767686  1  -1.137557  0  -0.319028  -0.552037  0  2.252294  0
O  O101  1  0.57690182  0.06506452  0.56233265  1  -1.138751  0  -0.31888  -0.551913  0  2.253479  0
O  O102  1  0.42308244  0.06505495  0.56232861  1  -1.138251  0  -0.319037  -0.5521  0  2.252262  0
O  O103  1  0.57691137  0.93495081  0.43766100  1  -1.139029  0  -0.319013  -0.551928  0  2.252771  0
O  O104  1  0.57690597  0.56216503  0.93480391  1  -1.13833  0  -0.319181  -0.551491  0  2.252182  0
O  O105  1  0.42307237  0.43782174  0.06518349  1  -1.138037  0  -0.319006  -0.551391  0  2.252331  0
O  O106  1  0.57691058  0.43784809  0.06519505  1  -1.13756  0  -0.319121  -0.551362  0  2.252278  0
O  O107  1  0.42307987  0.56216164  0.93481888  1  -1.137901  0  -0.319092  -0.551534  0  2.25235  0
O  O108  1  0.42308396  0.43782902  0.93479692  1  -1.138228  0  -0.319116  -0.551372  0  2.252009  0
O  O109  1  0.57692061  0.56218424  0.06518694  1  -1.13844  0  -0.319091  -0.551407  0  2.252154  0
O  O110  1  0.42309720  0.56215303  0.06520633  1  -1.137354  0  -0.319143  -0.551402  0  2.252249  0
O  O111  1  0.57690738  0.43783727  0.93480406  1  -1.138208  0  -0.319081  -0.55142  0  2.252281  0
O  O112  1  0.66337823  0.76879299  0.31660895  1  -1.100501  0  -0.348779  -0.407276  0  2.255921  0
O  O113  1  0.33661222  0.23123748  0.68336519  1  -1.101222  0  -0.348978  -0.407399  0  2.255565  0
O  O114  1  0.66335875  0.23140141  0.68318183  1  -1.103114  0  -0.348547  -0.406572  0  2.254643  0
O  O115  1  0.33663775  0.76855225  0.31686084  1  -1.104416  0  -0.348345  -0.405986  0  2.254883  0
O  O116  1  0.33660376  0.23124734  0.31662340  1  -1.100719  0  -0.348915  -0.407326  0  2.255956  0
O  O117  1  0.66339004  0.76868955  0.68330033  1  -1.10183  0  -0.348853  -0.407701  0  2.25459  0
O  O118  1  0.33660652  0.76867219  0.68328251  1  -1.101495  0  -0.348975  -0.407791  0  2.254527  0
O  O119  1  0.66336509  0.23140860  0.31680835  1  -1.103447  0  -0.348289  -0.406178  0  2.255031  0
O  O120  1  0.66336114  0.31669031  0.76861523  1  -1.102172  0  -0.348718  -0.407016  0  2.255205  0
O  O121  1  0.33663267  0.68325496  0.23142788  1  -1.102172  0  -0.348859  -0.406626  0  2.254845  0
O  O122  1  0.66335163  0.68347672  0.23120385  1  -1.100218  0  -0.348659  -0.407074  0  2.255513  0
O  O123  1  0.33665362  0.31656170  0.76876719  1  -1.10071  0  -0.349005  -0.407459  0  2.255339  0
O  O124  1  0.33664171  0.68337650  0.76868481  1  -1.10169  0  -0.349194  -0.407458  0  2.255858  0
O  O125  1  0.66337497  0.31670077  0.23139941  1  -1.101959  0  -0.34865  -0.406603  0  2.254998  0
O  O126  1  0.33665063  0.31656422  0.23123790  1  -1.100457  0  -0.348928  -0.407524  0  2.255165  0
O  O127  1  0.66335326  0.68339165  0.76870043  1  -1.101543  0  -0.34921  -0.407344  0  2.255696  0
