# generated using pymatgen
data_Hf3H16C25O16
_symmetry_space_group_name_H-M   'P 1'
_cell_length_a   9.28079035
_cell_length_b   17.75216302
_cell_length_c   28.99555081
_cell_angle_alpha   93.57610820
_cell_angle_beta   96.76337299
_cell_angle_gamma   91.00751447
_symmetry_Int_Tables_number   1
_chemical_formula_structural   Hf3H16C25O16
_chemical_formula_sum   'Hf6 H32 C50 O32'
_cell_volume   4733.15669539
_cell_formula_units_Z   2
loop_
 _symmetry_equiv_pos_site_id
 _symmetry_equiv_pos_as_xyz
  1  'x, y, z'
loop_
 _atom_site_type_symbol
 _atom_site_label
 _atom_site_symmetry_multiplicity
 _atom_site_fract_x
 _atom_site_fract_y
 _atom_site_fract_z
 _atom_site_occupancy
 _atom_site_pbe_bader_charge
 _atom_site_pbe_bader_spin_density
 _atom_site_pbe_cm5_charge
 _atom_site_pbe_ddec_charge
 _atom_site_pbe_ddec_spin_density
 _atom_site_pbe_ddec_sum_bond_order
 _atom_site_pbe_magmom
Hf  Hf0  1  0.03352118  0.88626711  0.04652445  1  2.603185  0  1.460378  2.107678  0  3.354757  0
Hf  Hf1  1  0.97328092  0.10377997  0.95645411  1  2.598875  0  1.445503  2.083784  0  3.389537  0
Hf  Hf2  1  0.87574387  0.05489147  0.06038041  1  2.583799  0  1.455306  2.12496  0  3.440646  0
Hf  Hf3  1  0.13677114  0.92845934  0.93858466  1  2.615892  0  1.435554  2.140639  0  3.397927  0
Hf  Hf4  1  0.76208180  0.93589713  0.95979409  1  2.614804  0  1.433267  2.161284  0  3.276661  0
Hf  Hf5  1  0.25617747  0.05114964  0.03992796  1  2.603047  0  1.401731  2.149701  0  3.29993  0
H  H6  1  0.95145294  0.81186007  0.95749790  1  0.633632  0  0.336828  0.418155  0  0.855454  0
H  H7  1  0.68543931  0.09078096  0.97988388  1  0.628176  0  0.330517  0.428499  0  0.858558  0
H  H8  1  0.26721687  0.07756986  0.94589306  1  0.638066  0  0.336768  0.429986  0  0.84532  0
H  H9  1  0.13495118  0.00587654  0.11745592  1  0.615645  0  0.333577  0.429594  0  0.852014  0
H  H10  1  0.46498889  0.92678340  0.97042738  1  0.642153  0  0.297378  0.402474  0  0.940227  0
H  H11  1  0.97510905  0.19574866  0.08743904  1  0.667528  0  0.305265  0.408008  0  0.927035  0
H  H12  1  0.30450970  0.15495346  0.10745258  1  0.602866  0  0.293437  0.399006  0  0.902088  0
H  H13  1  0.71819052  0.81723341  0.89046052  1  0.61737  0  0.330097  0.41105  0  0.871386  0
H  H14  1  0.88667195  0.85717337  0.88575701  1  0.636728  0  0.279271  0.4043  0  0.945143  0
H  H15  1  0.41668996  0.95371072  0.91325668  1  0.633487  0  0.289359  0.404398  0  0.92098  0
H  H16  1  0.53962480  0.10025764  0.03202715  1  0.649764  0  0.294384  0.400587  0  0.937665  0
H  H17  1  0.62839357  0.96913932  0.88187324  1  0.602935  0  0.297529  0.387829  0  0.917385  0
H  H18  1  0.84061755  0.15494316  0.87551226  1  0.644881  0  0.335962  0.416992  0  0.868072  0
H  H19  1  0.20823130  0.79512967  0.09919792  1  0.668703  0  0.342637  0.430203  0  0.85059  0
H  H20  1  0.46362242  0.99221619  0.09333268  1  0.572649  0  0.287685  0.374106  0  0.93949  0
H  H21  1  0.05185527  0.86688525  0.85342674  1  0.602449  0  0.311588  0.397332  0  0.898277  0
H  H22  1  0.76689304  0.19231910  0.91853272  1  0.649041  0  0.329905  0.415662  0  0.883524  0
H  H23  1  0.64880327  0.11462440  0.09816400  1  0.5934  0  0.31122  0.400959  0  0.89778  0
H  H24  1  0.51591013  0.94188299  0.02682013  1  0.647112  0  0.30063  0.413383  0  0.907663  0
H  H25  1  0.49849841  0.03088473  0.99689422  1  0.629162  0  0.300782  0.369559  0  0.985976  0
H  H26  1  0.92443273  0.16843429  0.13471379  1  0.634967  0  0.344795  0.419973  0  0.846936  0
H  H27  1  0.09903972  0.83384670  0.13220599  1  0.647303  0  0.332139  0.414648  0  0.879312  0
H  H28  1  0.76384490  0.50772207  0.01319140  1  0.109801  0  0.119424  0.131895  0  0.971141  0
H  H29  1  0.22431062  0.48872477  0.98807259  1  0.062054  0  0.118454  0.131629  0  0.973058  0
H  H30  1  0.13803490  0.94553575  0.28942789  1  0.100168  0  0.113525  0.124326  0  0.978707  0
H  H31  1  0.94811873  0.96547233  0.41823470  1  0.039038  0  0.110711  0.116997  0  0.98823  0
H  H32  1  0.67137918  0.94816794  0.28748573  1  0.090009  0  0.116244  0.12774  0  0.977103  0
H  H33  1  0.30004879  0.05370852  0.71393671  1  0.097388  0  0.115418  0.126837  0  0.977371  0
H  H34  1  0.02697604  0.03448178  0.58245893  1  0.054272  0  0.109728  0.115716  0  0.989156  0
H  H35  1  0.83310296  0.05711188  0.71044826  1  0.098799  0  0.113802  0.12426  0  0.977482  0
H  H36  1  0.75237069  0.00096251  0.49831021  1  0.067289  0  0.112516  0.121649  0  0.981889  0
H  H37  1  0.21978814  0.99897131  0.50252672  1  0.074532  0  0.111805  0.121429  0  0.982927  0
C  C38  1  0.75864799  0.77787314  0.01046831  1  1.645193  0  0.24478  0.704899  0  4.16495  0
C  C39  1  0.21687311  0.76804151  0.99134227  1  1.682514  0  0.244898  0.694488  0  4.179353  0
C  C40  1  0.87570411  0.94528307  0.14213502  1  1.690728  0  0.244531  0.707911  0  4.182822  0
C  C41  1  0.85399024  0.25672839  0.01603093  1  1.705898  0  0.235919  0.692517  0  4.228002  0
C  C42  1  0.22449801  0.21968367  0.99521046  1  1.690599  0  0.243146  0.699696  0  4.175247  0
C  C43  1  0.08925046  0.05141457  0.85811998  1  1.681806  0  0.244723  0.708002  0  4.180098  0
C  C44  1  0.56622289  0.56952195  0.00378128  1  0.077871  0  0.010102  0.08717  0  4.084808  0
C  C45  1  0.41119779  0.56436701  0.99622881  1  0.077993  0  0.014485  0.09554  0  4.073125  0
C  C46  1  0.34236530  0.49310133  0.99320423  1  0.049841  0  -0.065479  -0.157116  0  3.887807  0
C  C47  1  0.42224811  0.42677738  0.99687327  1  0.061793  0  0.013402  0.094035  0  4.070826  0
C  C48  1  0.57717423  0.43209099  0.00366260  1  0.194435  0  0.014129  0.096633  0  4.069223  0
C  C49  1  0.64583438  0.50357835  0.00739417  1  0.015578  0  -0.064348  -0.15268  0  3.893074  0
C  C50  1  0.90289186  0.94543938  0.28335041  1  0.127448  0  0.006093  0.132609  0  4.139616  0
C  C51  1  0.04308992  0.94810623  0.30816865  1  -0.058689  0  -0.066907  -0.162021  0  3.844338  0
C  C52  1  0.05973929  0.95585389  0.35705463  1  0.104027  0  0.005223  0.14704  0  4.14946  0
C  C53  1  0.93548333  0.95940596  0.38039165  1  0.070736  0  -0.067793  -0.151891  0  3.841153  0
C  C54  1  0.79530777  0.95655815  0.35593636  1  -0.009215  0  0.004347  0.146415  0  4.153916  0
C  C55  1  0.77902460  0.94954844  0.30707708  1  0.095979  0  -0.069206  -0.163535  0  3.846791  0
C  C56  1  0.06809360  0.05701462  0.71731766  1  0.134695  0  0.003914  0.134274  0  4.137561  0
C  C57  1  0.19291266  0.05228503  0.69402138  1  0.000891  0  -0.066061  -0.160733  0  3.840441  0
C  C58  1  0.17809404  0.04444839  0.64515388  1  0.11048  0  0.004494  0.14593  0  4.148994  0
C  C59  1  0.03846361  0.04130108  0.62027880  1  0.043565  0  -0.067919  -0.152032  0  3.842697  0
C  C60  1  0.91350472  0.04548395  0.64322013  1  0.069161  0  0.004831  0.145945  0  4.157268  0
C  C61  1  0.92869153  0.05413793  0.69202182  1  -0.021894  0  -0.066564  -0.161075  0  3.84597  0
C  C62  1  0.54352312  0.98610138  0.45748105  1  0.139904  0  0.008128  0.099059  0  4.088113  0
C  C63  1  0.39047931  0.98556052  0.45864955  1  0.054415  0  0.008028  0.099054  0  4.090827  0
C  C64  1  0.33670484  0.99940535  0.50157095  1  0.092019  0  -0.066861  -0.151254  0  3.87962  0
C  C65  1  0.42865453  0.01388551  0.54335651  1  0.145003  0  0.009389  0.100139  0  4.086984  0
C  C66  1  0.58167805  0.01449682  0.54213400  1  0.103427  0  0.008861  0.100635  0  4.088862  0
C  C67  1  0.63545286  0.00052560  0.49924410  1  0.026074  0  -0.066909  -0.151242  0  3.877568  0
C  C68  1  0.68152847  0.02820302  0.58240169  1  -0.543281  0  -0.038738  -0.094072  0  4.126945  0
C  C69  1  0.77961055  0.03820772  0.61425074  1  0.17834  0  -0.036596  -0.094782  0  4.084051  0
C  C70  1  0.29308528  0.03674798  0.61724054  1  0.026036  0  -0.037678  -0.096894  0  4.079107  0
C  C71  1  0.36510593  0.02711941  0.58483636  1  -0.382848  0  -0.038527  -0.093156  0  4.125994  0
C  C72  1  0.29096837  0.97224464  0.41821348  1  -0.341608  0  -0.037515  -0.09294  0  4.124986  0
C  C73  1  0.19395192  0.96272750  0.38596627  1  -0.027663  0  -0.037524  -0.096129  0  4.079881  0
C  C74  1  0.68068543  0.96374570  0.38397220  1  -0.508761  0  -0.037984  -0.098891  0  4.083972  0
C  C75  1  0.60757529  0.97305857  0.41610753  1  0.181914  0  -0.03719  -0.090151  0  4.127401  0
C  C76  1  0.27924499  0.69392504  0.99100055  1  0.170932  0  -0.029604  -0.172201  0  3.923433  0
C  C77  1  0.33368997  0.63207347  0.99295883  1  -0.429341  0  -0.022965  -0.03136  0  4.091949  0
C  C78  1  0.66478043  0.36783751  0.00687826  1  -0.354958  0  -0.027518  -0.03528  0  4.101527  0
C  C79  1  0.75037507  0.31659502  0.01021434  1  0.083115  0  -0.038303  -0.185531  0  3.935944  0
C  C80  1  0.28906730  0.29423608  0.99451830  1  0.080393  0  -0.029258  -0.165062  0  3.916785  0
C  C81  1  0.35000432  0.35568777  0.99500206  1  -0.339599  0  -0.023885  -0.03496  0  4.091809  0
C  C82  1  0.69257438  0.70399512  0.01059932  1  0.191521  0  -0.035555  -0.184421  0  3.941357  0
C  C83  1  0.63689441  0.64101101  0.00768886  1  -0.44088  0  -0.019417  -0.02109  0  4.102383  0
C  C84  1  0.08055275  0.06116849  0.76667539  1  -0.478199  0  -0.022578  -0.02937  0  4.08621  0
C  C85  1  0.08718116  0.06121675  0.80887862  1  0.155854  0  -0.045065  -0.203305  0  3.954185  0
C  C86  1  0.88682109  0.94134945  0.23395474  1  -0.483581  0  -0.018258  -0.019448  0  4.077838  0
C  C87  1  0.87363334  0.94060309  0.19162315  1  0.187782  0  -0.04773  -0.209411  0  3.954923  0
O  O88  1  0.17046403  0.84303902  0.11062930  1  -1.254671  0  -0.565356  -0.741485  0  2.068258  0
O  O89  1  0.86874150  0.79374920  0.04057081  1  -1.156358  0  -0.340242  -0.583015  0  2.264837  0
O  O90  1  0.92293476  0.88949827  0.11957476  1  -1.167633  0  -0.297305  -0.565201  0  2.238105  0
O  O91  1  0.22130869  0.80630197  0.95659184  1  -1.136591  0  -0.284191  -0.508114  0  2.232032  0
O  O92  1  0.83435230  0.00792880  0.12565149  1  -1.181438  0  -0.351084  -0.607748  0  2.249  0
O  O93  1  0.15992777  0.78739954  0.02882495  1  -1.177807  0  -0.357535  -0.630182  0  2.300609  0
O  O94  1  0.70274136  0.81961395  0.97918371  1  -1.157854  0  -0.325817  -0.575792  0  2.26299  0
O  O95  1  0.85477076  0.94941304  0.03067983  1  -1.218918  0  -0.762215  -1.070312  0  2.194643  0
O  O96  1  0.96504326  0.86356721  0.97040687  1  -1.26559  0  -0.655469  -0.97758  0  2.36755  0
O  O97  1  0.08960765  0.99703709  0.08553366  1  -1.264829  0  -0.634161  -0.965849  0  2.206763  0
O  O98  1  0.16601849  0.94408666  0.01068229  1  -1.208989  0  -0.748109  -1.036833  0  2.147767  0
O  O99  1  0.34889114  0.92645157  0.93055907  1  -1.256253  0  -0.665667  -0.916155  0  2.028416  0
O  O100  1  0.55423068  0.94229470  0.99516773  1  -1.290991  0  -0.586144  -0.800728  0  2.164714  0
O  O101  1  0.93966658  0.99152473  0.93792131  1  -1.227766  0  -0.737387  -1.06448  0  2.092858  0
O  O102  1  0.77347095  0.06243746  0.98684247  1  -1.259234  0  -0.640643  -0.941341  0  2.211421  0
O  O103  1  0.03368688  0.09170697  0.02452896  1  -1.216291  0  -0.753311  -1.060135  0  2.18827  0
O  O104  1  0.19403464  0.05308652  0.96159279  1  -1.27346  0  -0.64605  -0.975205  0  2.297162  0
O  O105  1  0.68549140  0.10827204  0.06816021  1  -1.237994  0  -0.650216  -0.921586  0  1.962356  0
O  O106  1  0.93877566  0.25893081  0.05322808  1  -1.154097  0  -0.301756  -0.538293  0  2.11189  0
O  O107  1  0.84801810  0.20686385  0.98153926  1  -1.214624  0  -0.337152  -0.629486  0  2.318912  0
O  O108  1  0.40533874  0.97090911  0.06532417  1  -1.230041  0  -0.648693  -0.905253  0  1.905214  0
O  O109  1  0.12392527  0.20021854  0.96195779  1  -1.171059  0  -0.355839  -0.601405  0  2.270455  0
O  O110  1  0.97722235  0.15201180  0.10899644  1  -1.271658  0  -0.57833  -0.779754  0  2.073579  0
O  O111  1  0.31770894  0.10090626  0.10349696  1  -1.242159  0  -0.697039  -0.948876  0  1.83722  0
O  O112  1  0.45993856  0.08141514  0.00641688  1  -1.283269  0  -0.603724  -0.794324  0  2.133916  0
O  O113  1  0.27414384  0.18004122  0.02779724  1  -1.155627  0  -0.303796  -0.547541  0  2.267817  0
O  O114  1  0.79089737  0.14449318  0.90244330  1  -1.239394  0  -0.567131  -0.737445  0  2.072626  0
O  O115  1  0.02777907  0.85501713  0.88391594  1  -1.234603  0  -0.630346  -0.870871  0  2.00275  0
O  O116  1  0.03698390  0.10419291  0.88284611  1  -1.18266  0  -0.33385  -0.600607  0  2.262277  0
O  O117  1  0.14135618  0.99024386  0.87200713  1  -1.161236  0  -0.312922  -0.567158  0  2.285413  0
O  O118  1  0.77143400  0.86521614  0.89326057  1  -1.264357  0  -0.601102  -0.834003  0  2.067506  0
O  O119  1  0.60820151  0.98069083  0.91364536  1  -1.240955  0  -0.666025  -0.910427  0  1.913603  0
