# generated using pymatgen
data_CuH10C17O5F6
_symmetry_space_group_name_H-M   'P 1'
_cell_length_a   6.96871077
_cell_length_b   12.76819466
_cell_length_c   20.85582943
_cell_angle_alpha   94.16473561
_cell_angle_beta   89.99991770
_cell_angle_gamma   90.00012918
_symmetry_Int_Tables_number   1
_chemical_formula_structural   CuH10C17O5F6
_chemical_formula_sum   'Cu4 H40 C68 O20 F24'
_cell_volume   1850.80673546
_cell_formula_units_Z   4
loop_
 _symmetry_equiv_pos_site_id
 _symmetry_equiv_pos_as_xyz
  1  'x, y, z'
loop_
 _atom_site_type_symbol
 _atom_site_label
 _atom_site_symmetry_multiplicity
 _atom_site_fract_x
 _atom_site_fract_y
 _atom_site_fract_z
 _atom_site_occupancy
 _atom_site_pbe_bader_charge
 _atom_site_pbe_bader_spin_density
 _atom_site_pbe_cm5_charge
 _atom_site_pbe_ddec_charge
 _atom_site_pbe_ddec_spin_density
 _atom_site_pbe_ddec_sum_bond_order
 _atom_site_pbe_magmom
Cu  Cu0  1  0.14980186  0.04658968  0.98119434  1  1.092166  0.558291  0.678303  0.841756  0.713896  2.296118  0.555
Cu  Cu1  1  0.14979652  0.45340928  0.51880255  1  1.09158  -0.558301  0.678296  0.841675  -0.713917  2.296332  -0.555
Cu  Cu2  1  0.85020938  0.95340634  0.01880723  1  1.091724  -0.558297  0.678281  0.841642  -0.713907  2.296668  -0.555
Cu  Cu3  1  0.85020611  0.54659458  0.48119265  1  1.092221  0.558315  0.678312  0.841728  0.713928  2.296514  0.555
H  H4  1  0.53070313  0.07286110  0.95244087  1  0.650985  -5.9e-05  0.295727  0.391509  -7.7e-05  0.940041  0.0
H  H5  1  0.53069612  0.42714541  0.54756335  1  0.650975  5.9e-05  0.295715  0.391456  7.7e-05  0.94009  0.0
H  H6  1  0.46932245  0.92714436  0.04756542  1  0.651031  5.9e-05  0.295728  0.391548  7.7e-05  0.93994  0.0
H  H7  1  0.46931655  0.57285532  0.45243699  1  0.651004  -5.9e-05  0.295709  0.391523  -7.7e-05  0.939979  0.0
H  H8  1  0.41599637  0.16281953  0.92297804  1  0.61179  -6.2e-05  0.293098  0.372073  -5e-05  0.953502  0.0
H  H9  1  0.41598886  0.33718605  0.57702619  1  0.611626  6.1e-05  0.29322  0.372331  5e-05  0.953139  0.0
H  H10  1  0.58401918  0.83719617  0.07703876  1  0.611294  6.2e-05  0.293106  0.372187  5e-05  0.953337  0.0
H  H11  1  0.58400659  0.66282096  0.42297489  1  0.611746  -6.2e-05  0.29323  0.37238  -5e-05  0.953083  0.0
H  H12  1  0.82894268  0.15476601  0.68701353  1  0.084764  -0.000151  0.091319  0.09869  -7.7e-05  1.054845  0.0
H  H13  1  0.82894854  0.34523378  0.81298835  1  0.084685  0.000151  0.091332  0.09871  7.7e-05  1.054784  0.0
H  H14  1  0.17104990  0.84523944  0.31299181  1  0.085124  0.000151  0.091345  0.098707  7.7e-05  1.054692  0.0
H  H15  1  0.17105696  0.65476537  0.18700808  1  0.085446  -0.000151  0.091363  0.098754  -7.7e-05  1.054628  0.0
H  H16  1  0.98073233  0.13335539  0.79183324  1  0.111462  0.000346  0.100861  0.110778  0.000301  1.011901  0.0
H  H17  1  0.98073442  0.36663673  0.70816823  1  0.111356  -0.000347  0.100839  0.110735  -0.000302  1.011997  0.0
H  H18  1  0.01926313  0.86664143  0.20816980  1  0.111406  -0.000347  0.100874  0.110766  -0.000302  1.011924  0.0
H  H19  1  0.01925673  0.63335691  0.29182652  1  0.111367  0.000346  0.100835  0.110727  0.000301  1.011967  0.0
H  H20  1  0.49171373  0.95853106  0.85058275  1  0.127728  -0.000186  0.109482  0.118734  -0.000149  1.017802  0.0
H  H21  1  0.49172623  0.54146776  0.64941825  1  0.127822  0.000186  0.109448  0.1186  0.000149  1.017914  0.0
H  H22  1  0.50827742  0.04146182  0.14941676  1  0.127796  0.000185  0.109507  0.118771  0.000149  1.017952  0.0
H  H23  1  0.50827066  0.45853611  0.35058222  1  0.127862  -0.000186  0.10948  0.118704  -0.000149  1.017895  0.0
H  H24  1  0.34179386  0.97485824  0.74469547  1  0.085706  0.000197  0.106212  0.116631  0.000104  0.988889  0.0
H  H25  1  0.34180010  0.52514197  0.75530567  1  0.085753  -0.000197  0.106205  0.116586  -0.000104  0.988769  0.0
H  H26  1  0.65820159  0.02514013  0.25530333  1  0.085698  -0.000197  0.106219  0.116622  -0.000104  0.98893  0.0
H  H27  1  0.65820396  0.47486269  0.24469675  1  0.08561  0.000197  0.106216  0.116615  0.000104  0.988852  0.0
H  H28  1  0.10241659  0.03552158  0.58869789  1  0.081011  -0.000194  0.090451  0.099905  -0.000104  1.055825  0.0
H  H29  1  0.10243255  0.46447499  0.91130515  1  0.081166  0.000194  0.090484  0.100008  0.000104  1.055743  0.0
H  H30  1  0.89756881  0.96448230  0.41130450  1  0.081246  0.000194  0.090502  0.099977  0.000104  1.055764  0.0
H  H31  1  0.89758012  0.53551633  0.08869766  1  0.081174  -0.000194  0.090493  0.099978  -0.000104  1.055798  0.0
H  H32  1  0.96650358  0.86446837  0.55074162  1  0.117159  0.000316  0.105408  0.118334  0.000266  0.996145  0.0
H  H33  1  0.96651660  0.63552868  0.94926292  1  0.117064  -0.000316  0.105439  0.118402  -0.000266  0.996098  0.0
H  H34  1  0.03347608  0.13554179  0.44926008  1  0.117347  -0.000316  0.10547  0.118434  -0.000266  0.996086  0.0
H  H35  1  0.03348459  0.36445949  0.05074071  1  0.117256  0.000316  0.10545  0.118399  0.000266  0.996137  0.0
H  H36  1  0.48800863  0.71055225  0.60071462  1  0.115802  -0.000282  0.111043  0.123333  -0.000248  0.994811  0.0
H  H37  1  0.48801532  0.78945048  0.89928368  1  0.115728  0.000281  0.11104  0.123308  0.000248  0.994791  0.0
H  H38  1  0.51197534  0.28945316  0.39927681  1  0.115969  0.000281  0.111008  0.123253  0.000248  0.994785  0.0
H  H39  1  0.51197726  0.21054791  0.10072327  1  0.115652  -0.000281  0.111019  0.123281  -0.000248  0.994748  0.0
H  H40  1  0.62307261  0.88097607  0.64309013  1  0.07494  0.000197  0.103758  0.111324  0.000102  0.996383  0.0
H  H41  1  0.62308309  0.61902684  0.85690907  1  0.074817  -0.000197  0.103784  0.111353  -0.000102  0.996387  0.0
H  H42  1  0.37691424  0.11902700  0.35690407  1  0.075036  -0.000197  0.103749  0.111263  -0.000102  0.996382  0.0
H  H43  1  0.37691954  0.38097548  0.14309565  1  0.075138  0.000197  0.103747  0.111234  0.000102  0.996391  0.0
C  C44  1  0.57484237  0.06490346  0.70740877  1  -0.057479  -0.000296  -0.015402  0.085287  -0.000191  3.938564  0.0
C  C45  1  0.57485012  0.43509602  0.79259129  1  -0.0576  0.000297  -0.01539  0.085231  0.000192  3.938668  0.0
C  C46  1  0.42515308  0.93509570  0.29259102  1  -0.057479  0.000297  -0.01542  0.085223  0.000191  3.938551  0.0
C  C47  1  0.42515682  0.56490706  0.20740722  1  -0.057909  -0.000297  -0.015405  0.085209  -0.000191  3.938825  0.0
C  C48  1  0.75413241  0.11024975  0.72169591  1  -0.102941  -0.000491  -0.098863  -0.138159  -0.000352  3.981821  0.0
C  C49  1  0.75414003  0.38974759  0.77830397  1  -0.103026  0.000491  -0.098884  -0.138195  0.000352  3.981791  0.0
C  C50  1  0.24585874  0.88975727  0.27830661  1  -0.103285  0.000491  -0.098874  -0.138156  0.000352  3.981842  0.0
C  C51  1  0.24586546  0.61024764  0.22169277  1  -0.103816  -0.00049  -0.098936  -0.138308  -0.000352  3.982057  0.0
C  C52  1  0.84026297  0.09920513  0.78105870  1  0.022262  -0.001106  -0.083214  -0.072283  -0.000678  3.946874  -0.001
C  C53  1  0.84027089  0.40078760  0.71893950  1  0.021995  0.001106  -0.083103  -0.072129  0.000677  3.946726  0.001
C  C54  1  0.15973248  0.90079247  0.21894389  1  0.022129  0.001106  -0.083175  -0.072212  0.000678  3.946735  0.001
C  C55  1  0.15972599  0.59920683  0.28105432  1  0.022269  -0.001106  -0.083117  -0.072086  -0.000678  3.946648  -0.001
C  C56  1  0.74770188  0.04436781  0.82775314  1  0.029096  0.001043  -0.017971  -0.030329  0.000709  3.967582  0.001
C  C57  1  0.74770162  0.45562716  0.67224616  1  0.029639  -0.001041  -0.01803  -0.030413  -0.000708  3.967611  -0.001
C  C58  1  0.25228927  0.95562821  0.17224746  1  0.029205  -0.00104  -0.018026  -0.030421  -0.000708  3.967449  -0.001
C  C59  1  0.25228523  0.54437199  0.32775123  1  0.029468  0.001042  -0.017934  -0.030351  0.00071  3.967512  0.001
C  C60  1  0.56632537  0.00039192  0.81428093  1  -0.103041  0.000827  -0.081831  -0.088723  0.000508  3.948359  0.001
C  C61  1  0.56633097  0.49960206  0.68571985  1  -0.103254  -0.000827  -0.081836  -0.088658  -0.000507  3.94866  -0.001
C  C62  1  0.43366865  0.99960724  0.18571693  1  -0.103051  -0.000827  -0.08188  -0.088801  -0.000508  3.948448  -0.001
C  C63  1  0.43366448  0.50039474  0.31428031  1  -0.103283  0.000827  -0.081946  -0.088863  0.000507  3.948688  0.001
C  C64  1  0.48179912  0.01033310  0.75458657  1  0.031313  0.000735  -0.088171  -0.117755  0.000516  3.955559  0.001
C  C65  1  0.48180873  0.48966548  0.74541350  1  0.031322  -0.000734  -0.088139  -0.117607  -0.000516  3.955426  -0.001
C  C66  1  0.51820207  0.98966920  0.24541287  1  0.03138  -0.000735  -0.088188  -0.117718  -0.000516  3.95541  -0.001
C  C67  1  0.51819820  0.51033603  0.25458591  1  0.03155  0.000735  -0.088137  -0.117632  0.000516  3.95553  0.001
C  C68  1  0.84269059  0.03286763  0.89116321  1  1.536095  -0.001081  0.21668  0.570643  -0.00072  4.164997  -0.001
C  C69  1  0.84268204  0.46712668  0.60883746  1  1.536261  0.001075  0.216795  0.570645  0.000718  4.164883  0.001
C  C70  1  0.15730773  0.96712211  0.10883713  1  1.536406  0.001076  0.216682  0.570593  0.000719  4.165019  0.001
C  C71  1  0.15730767  0.53287326  0.39115996  1  1.536101  -0.001077  0.216645  0.570619  -0.000721  4.165055  -0.001
C  C72  1  0.47032248  0.07548031  0.64304057  1  0.05719  3e-06  -0.010211  -0.274699  -0.0  3.860083  0.0
C  C73  1  0.47033564  0.42451905  0.85696194  1  0.05731  -3e-06  -0.010227  -0.274802  0.0  3.859805  0.0
C  C74  1  0.52967297  0.92452042  0.35695977  1  0.057164  -3e-06  -0.010218  -0.274695  0.0  3.859935  0.0
C  C75  1  0.52967559  0.57548011  0.14303785  1  0.057253  3e-06  -0.01018  -0.274568  -0.0  3.859664  0.0
C  C76  1  0.32484667  0.16744895  0.65487962  1  1.704998  -2e-05  0.303642  0.669054  -1.8e-05  3.968342  0.0
C  C77  1  0.32485520  0.33255338  0.84512308  1  1.705281  2.1e-05  0.303606  0.669101  1.8e-05  3.968158  0.0
C  C78  1  0.67515165  0.83255335  0.34511935  1  1.705197  2e-05  0.30354  0.668702  1.8e-05  3.969018  0.0
C  C79  1  0.67515603  0.66744734  0.15487437  1  1.705195  -2e-05  0.303643  0.669112  -1.8e-05  3.968169  0.0
C  C80  1  0.60777994  0.10388307  0.58769466  1  1.724523  -5e-06  0.304359  0.675551  -5e-06  3.963778  0.0
C  C81  1  0.60779274  0.39611960  0.91230744  1  1.72481  5e-06  0.304343  0.675909  5e-06  3.963457  0.0
C  C82  1  0.39222125  0.89611924  0.41230718  1  1.72452  5e-06  0.304369  0.675928  5e-06  3.963508  0.0
C  C83  1  0.39222423  0.60387641  0.08768981  1  1.724583  -5e-06  0.304394  0.675994  -5e-06  3.96352  0.0
C  C84  1  0.37259609  0.97117433  0.61979043  1  -0.132858  -7.3e-05  -0.017971  0.080636  -4.4e-05  3.95271  0.0
C  C85  1  0.37260467  0.52882436  0.88021302  1  -0.133389  7.3e-05  -0.018035  0.080538  4.4e-05  3.952744  0.0
C  C86  1  0.62739649  0.02883033  0.38021007  1  -0.133306  7.3e-05  -0.018032  0.080577  4.4e-05  3.952621  0.0
C  C87  1  0.62739939  0.47116853  0.11979033  1  -0.132983  -7.3e-05  -0.018068  0.08045  -4.4e-05  3.952749  0.0
C  C88  1  0.18796227  0.96540573  0.59328450  1  0.051411  -0.000685  -0.103217  -0.147922  -0.000493  3.997068  -0.001
C  C89  1  0.18797507  0.53459666  0.90671824  1  0.051727  0.000685  -0.103264  -0.148047  0.000494  3.997149  0.001
C  C90  1  0.81201883  0.03460442  0.40671624  1  0.051805  0.000685  -0.10327  -0.147985  0.000494  3.997017  0.001
C  C91  1  0.81202612  0.46539937  0.09328525  1  0.051825  -0.000685  -0.103243  -0.147937  -0.000494  3.997015  -0.001
C  C92  1  0.11019738  0.86880858  0.57135407  1  -0.049355  -0.00112  -0.084866  -0.08156  -0.000704  3.955091  -0.001
C  C93  1  0.11021191  0.63119058  0.92865000  1  -0.049851  0.00112  -0.084916  -0.081693  0.000704  3.955286  0.001
C  C94  1  0.88978085  0.13119922  0.42864561  1  -0.050551  0.00112  -0.084874  -0.081661  0.000704  3.955301  0.001
C  C95  1  0.88979215  0.36880074  0.07135568  1  -0.049959  -0.00112  -0.0849  -0.081681  -0.000704  3.95536  -0.001
C  C96  1  0.21682380  0.77656051  0.57449783  1  -0.027399  -0.000511  -0.014869  -0.021958  -0.000372  3.958523  0.0
C  C97  1  0.21683154  0.72343798  0.92550233  1  -0.027087  0.000513  -0.014796  -0.021753  0.000373  3.958503  0.0
C  C98  1  0.78316161  0.22344177  0.42549730  1  -0.026964  0.000511  -0.014964  -0.022036  0.000372  3.958792  0.0
C  C99  1  0.78316678  0.27655805  0.07450307  1  -0.027128  -0.000509  -0.014889  -0.021997  -0.00037  3.958998  0.0
C  C100  1  0.40271753  0.78192434  0.60015291  1  -0.023952  0.000928  -0.076981  -0.070808  0.000576  3.93234  0.001
C  C101  1  0.40272680  0.71807516  0.89984768  1  -0.023924  -0.000928  -0.076991  -0.070792  -0.000576  3.932262  -0.001
C  C102  1  0.59727074  0.21808109  0.39984379  1  -0.023852  -0.000928  -0.076922  -0.070637  -0.000576  3.932141  -0.001
C  C103  1  0.59727870  0.28192008  0.10015673  1  -0.023933  0.000928  -0.076952  -0.070691  0.000576  3.932269  0.001
C  C104  1  0.47878053  0.87816551  0.62295691  1  0.018626  0.000701  -0.090799  -0.125642  0.000502  3.966491  0.001
C  C105  1  0.47878950  0.62183329  0.87704218  1  0.01887  -0.0007  -0.090807  -0.125647  -0.000502  3.966586  -0.001
C  C106  1  0.52120918  0.12183598  0.37703819  1  0.018591  -0.000701  -0.090778  -0.125571  -0.000502  3.96645  -0.001
C  C107  1  0.52121886  0.37816431  0.12296137  1  0.018338  0.000701  -0.090761  -0.125481  0.000502  3.966482  0.001
C  C108  1  0.13535377  0.67345990  0.54895278  1  1.535677  0.000163  0.213095  0.569699  0.000102  4.173786  0.0
C  C109  1  0.13536756  0.82654084  0.95104560  1  1.5359  -0.000167  0.213008  0.569541  -0.000104  4.174187  0.0
C  C110  1  0.86463164  0.32654787  0.45104163  1  1.536464  -0.000166  0.213071  0.569603  -0.000105  4.1743  0.0
C  C111  1  0.86463794  0.17345126  0.04895724  1  1.535815  0.000163  0.213069  0.569679  0.000103  4.174106  0.0
O  O112  1  0.01447288  0.06485337  0.89806556  1  -1.097663  0.087019  -0.305159  -0.50668  0.056572  2.341847  0.079
O  O113  1  0.01447572  0.43513758  0.60193104  1  -1.097261  -0.087044  -0.305253  -0.506748  -0.05659  2.341623  -0.079
O  O114  1  0.98552544  0.93513637  0.10193478  1  -1.097357  -0.08703  -0.305171  -0.50662  -0.05658  2.341895  -0.079
O  O115  1  0.98552117  0.56485922  0.39806624  1  -1.097372  0.087038  -0.305176  -0.5067  0.056586  2.341918  0.079
O  O116  1  0.74145134  0.99098023  0.93402849  1  -1.124238  -0.074617  -0.307491  -0.535599  -0.048453  2.391509  -0.068
O  O117  1  0.74145116  0.50901497  0.56597224  1  -1.124802  0.074612  -0.307574  -0.535567  0.048448  2.39153  0.068
O  O118  1  0.25855129  0.00901030  0.06597524  1  -1.124811  0.074624  -0.307502  -0.535577  0.048456  2.391309  0.068
O  O119  1  0.25855864  0.49098653  0.43402333  1  -1.124642  -0.074623  -0.307502  -0.535574  -0.048454  2.391385  -0.068
O  O120  1  0.23645693  0.59207073  0.55697260  1  -1.095271  -0.093362  -0.309534  -0.517777  -0.060106  2.376836  -0.084
O  O121  1  0.23646965  0.90792857  0.94302806  1  -1.095639  0.093362  -0.309527  -0.51775  0.060106  2.377075  0.084
O  O122  1  0.76353852  0.40793862  0.44302427  1  -1.095644  0.093359  -0.309606  -0.517804  0.060108  2.377212  0.084
O  O123  1  0.76354589  0.09206354  0.05697621  1  -1.095572  -0.093343  -0.309557  -0.51778  -0.060097  2.377303  -0.084
O  O124  1  0.97250150  0.67533384  0.52099536  1  -1.099161  0.083975  -0.314224  -0.517269  0.054216  2.337105  0.076
O  O125  1  0.97250655  0.82466868  0.97899934  1  -1.099016  -0.083978  -0.314172  -0.517241  -0.054217  2.337211  -0.076
O  O126  1  0.02748247  0.32466842  0.47899353  1  -1.099681  -0.083966  -0.314117  -0.517147  -0.054208  2.337291  -0.076
O  O127  1  0.02748890  0.17533206  0.02100483  1  -1.099116  0.08397  -0.314154  -0.517256  0.054211  2.337057  0.076
O  O128  1  0.42370638  0.12272815  0.96069655  1  -1.225999  -0.001964  -0.588175  -0.735171  -0.001093  2.093589  -0.001
O  O129  1  0.42370064  0.37727509  0.53930758  1  -1.22582  0.001965  -0.588287  -0.735357  0.001094  2.093369  0.001
O  O130  1  0.57632495  0.87727498  0.03931636  1  -1.225565  0.001965  -0.588177  -0.735245  0.001094  2.09351  0.001
O  O131  1  0.57630916  0.62272485  0.46069128  1  -1.225945  -0.001963  -0.588261  -0.735444  -0.001093  2.093267  -0.001
F  F132  1  0.23517459  0.19579106  0.60048291  1  -0.610978  -3.1e-05  -0.081373  -0.192126  -1.8e-05  1.357417  0.0
F  F133  1  0.23518995  0.30420803  0.89952065  1  -0.611172  3.1e-05  -0.081394  -0.192165  1.8e-05  1.357411  0.0
F  F134  1  0.76483665  0.80421437  0.39951379  1  -0.611052  3e-05  -0.081316  -0.192002  1.8e-05  1.357683  0.0
F  F135  1  0.76483707  0.69578328  0.10047880  1  -0.611147  -3.1e-05  -0.081303  -0.19215  -1.8e-05  1.35748  0.0
F  F136  1  0.41180979  0.25615618  0.68094815  1  -0.620798  2e-06  -0.092732  -0.205365  -0.0  1.397421  0.0
F  F137  1  0.41181377  0.24384938  0.81905081  1  -0.621327  -2e-06  -0.092767  -0.205371  0.0  1.397259  0.0
F  F138  1  0.58818422  0.74384769  0.31905136  1  -0.621199  -2e-06  -0.092757  -0.205312  0.0  1.397488  0.0
F  F139  1  0.58818885  0.75615525  0.18094058  1  -0.620917  2e-06  -0.092812  -0.205431  -0.0  1.397228  0.0
F  F140  1  0.18507749  0.14225926  0.69654290  1  -0.628375  -1e-05  -0.078522  -0.187388  -2e-05  1.391241  0.0
F  F141  1  0.18508344  0.35774526  0.80346140  1  -0.62822  1e-05  -0.0784  -0.187299  2e-05  1.391226  0.0
F  F142  1  0.81490648  0.85774381  0.30345226  1  -0.628391  1e-05  -0.078411  -0.187208  2e-05  1.391497  0.0
F  F143  1  0.81491345  0.64226176  0.19654208  1  -0.628257  -1e-05  -0.078454  -0.187306  -2e-05  1.391274  0.0
F  F144  1  0.51438975  0.10154165  0.53077850  1  -0.618757  1e-06  -0.086866  -0.190813  -2e-06  1.404243  0.0
F  F145  1  0.51440232  0.39846404  0.96922330  1  -0.618719  -1e-06  -0.086839  -0.19086  2e-06  1.404208  0.0
F  F146  1  0.48561861  0.89845593  0.46922026  1  -0.618791  -1e-06  -0.086876  -0.19089  2e-06  1.404227  0.0
F  F147  1  0.48562470  0.60154140  0.03077772  1  -0.618715  1e-06  -0.08694  -0.190965  -2e-06  1.404354  0.0
F  F148  1  0.68834451  0.20159192  0.59706036  1  -0.614972  2.2e-05  -0.094264  -0.208778  1.5e-05  1.350516  0.0
F  F149  1  0.68836127  0.29841241  0.90294130  1  -0.61505  -2.2e-05  -0.094206  -0.208869  -1.5e-05  1.350507  0.0
F  F150  1  0.31165237  0.79841274  0.40294254  1  -0.614956  -2.2e-05  -0.094253  -0.208892  -1.5e-05  1.350469  0.0
F  F151  1  0.31164279  0.70158124  0.09705393  1  -0.614884  2.1e-05  -0.094222  -0.208949  1.5e-05  1.350521  0.0
F  F152  1  0.75549580  0.03410721  0.58100991  1  -0.630938  4e-06  -0.080689  -0.187086  -7e-06  1.363503  0.0
F  F153  1  0.75550599  0.46589641  0.91898977  1  -0.631096  -3e-06  -0.080742  -0.18721  7e-06  1.363401  0.0
F  F154  1  0.24450970  0.96589432  0.41899526  1  -0.63092  -3e-06  -0.080706  -0.187226  7e-06  1.363417  0.0
F  F155  1  0.24451529  0.53409801  0.08100262  1  -0.630949  3e-06  -0.080707  -0.187223  -7e-06  1.363395  0.0
