# generated using pymatgen
data_CoH6C8(N2Cl)2
_symmetry_space_group_name_H-M   'P 1'
_cell_length_a   9.05682189
_cell_length_b   7.87752732
_cell_length_c   13.15733646
_cell_angle_alpha   74.82100810
_cell_angle_beta   57.83564423
_cell_angle_gamma   69.33885890
_symmetry_Int_Tables_number   1
_chemical_formula_structural   CoH6C8(N2Cl)2
_chemical_formula_sum   'Co2 H12 C16 N8 Cl4'
_cell_volume   740.28436812
_cell_formula_units_Z   2
loop_
 _symmetry_equiv_pos_site_id
 _symmetry_equiv_pos_as_xyz
  1  'x, y, z'
loop_
 _atom_site_type_symbol
 _atom_site_label
 _atom_site_symmetry_multiplicity
 _atom_site_fract_x
 _atom_site_fract_y
 _atom_site_fract_z
 _atom_site_occupancy
 _atom_site_hle17_ddec_charge
 _atom_site_hle17_ddec_spin_density
 _atom_site_hle17_ddec_sum_bond_order
 _atom_site_hle17_magmom
 _atom_site_hse06_10hf_ddec_charge
 _atom_site_hse06_10hf_ddec_spin_density
 _atom_site_hse06_10hf_ddec_sum_bond_order
 _atom_site_hse06_10hf_magmom
 _atom_site_hse06_ddec_charge
 _atom_site_hse06_ddec_spin_density
 _atom_site_hse06_ddec_sum_bond_order
 _atom_site_hse06_magmom
 _atom_site_pbe_cm5_charge
 _atom_site_pbe_ddec_charge
 _atom_site_pbe_ddec_spin_density
 _atom_site_pbe_ddec_sum_bond_order
 _atom_site_pbe_magmom
Co  Co0  1  0.15418626  0.95834196  0.22436377  1  0.789056  -2.759367  2.317512  -2.455  0.747499  -2.785895  2.807184  -2.523  0.842126  -2.84282  2.721384  -2.629  0.529274  0.673473  -2.733457  2.872224  -2.428
Co  Co1  1  0.84582228  0.04164905  0.77563471  1  0.789138  -2.759412  2.317123  -2.455  0.747544  -2.785946  2.806785  -2.523  0.842159  -2.84286  2.720993  -2.629  0.529283  0.673497  -2.733505  2.871852  -2.428
H  H2  1  0.23728843  0.93748786  0.43081038  1  0.101266  -2e-05  0.921573  0.0  0.111631  -0.000222  0.979851  0.0  0.114924  -0.000111  0.975865  0.0  0.138946  0.10896  -0.000339  0.982977  0.0
H  H3  1  0.76270864  0.06250402  0.56917911  1  0.101236  -2.2e-05  0.921664  0.0  0.111578  -0.000221  0.979956  0.0  0.114867  -0.00011  0.975976  0.0  0.138969  0.108907  -0.000338  0.983083  0.0
H  H4  1  0.97953411  0.41418349  0.70788712  1  0.134848  -0.000177  0.927225  0.0  0.145278  -0.000324  0.984208  0.0  0.148485  -0.000204  0.982683  0.0  0.113415  0.142889  -0.000458  0.985515  0.0
H  H5  1  0.02039880  0.58584455  0.29213310  1  0.134821  -0.00018  0.927451  0.0  0.145329  -0.000324  0.984327  0.0  0.148534  -0.000204  0.982808  0.0  0.11343  0.142942  -0.000458  0.985626  0.0
H  H6  1  0.12231637  0.01815667  0.99029485  1  0.084558  0.000127  0.936285  0.0  0.094602  -0.000136  0.99867  0.0  0.096277  -8.1e-05  0.995684  0.0  0.137853  0.093135  -0.000186  1.001168  0.0
H  H7  1  0.87768405  0.98181864  0.00970833  1  0.084646  0.000127  0.936069  0.0  0.094641  -0.000136  0.998511  0.0  0.096344  -8.2e-05  0.995487  0.0  0.137858  0.093151  -0.000187  1.001026  0.0
H  H8  1  0.46557568  0.57502842  0.19081782  1  0.13347  -5.3e-05  0.930324  0.0  0.144325  -0.000237  0.985641  0.0  0.147186  -0.000147  0.984476  0.0  0.114524  0.142258  -0.000337  0.986665  0.0
H  H9  1  0.53446912  0.42498277  0.80917691  1  0.133569  -5.2e-05  0.930216  0.0  0.144385  -0.000237  0.985564  0.0  0.147248  -0.000147  0.9844  0.0  0.114492  0.142318  -0.000337  0.986594  0.0
H  H10  1  0.26784084  0.78417347  0.84383101  1  0.307661  -0.000958  0.918584  0.0  0.292323  -0.001074  0.977493  -0.001  0.301016  -0.000766  0.970093  0.0  0.292158  0.285873  -0.001377  0.983131  -0.001
H  H11  1  0.73220959  0.21582190  0.15614832  1  0.30757  -0.000958  0.918791  0.0  0.292268  -0.001074  0.977672  -0.001  0.300964  -0.000765  0.970262  0.0  0.292089  0.285815  -0.001377  0.983313  -0.001
H  H12  1  0.13436058  0.73072225  0.62210527  1  0.305923  -3e-05  0.914771  0.0  0.288526  -0.000206  0.978661  0.0  0.296771  -9.5e-05  0.971905  0.0  0.294845  0.282425  -0.00033  0.983846  0.0
H  H13  1  0.86562235  0.26929284  0.37789340  1  0.305928  -3e-05  0.914723  0.0  0.288545  -0.000206  0.978584  0.0  0.296795  -9.4e-05  0.97183  0.0  0.2948  0.282438  -0.00033  0.983767  0.0
C  C14  1  0.17926173  0.82770279  0.44650332  1  0.264864  0.009447  3.662746  0.005  0.204755  -0.001432  3.942673  -0.002  0.224914  -0.00137  3.952218  -0.002  0.164011  0.190652  -0.001038  3.936483  -0.002
C  C15  1  0.82074004  0.17228226  0.55348682  1  0.265005  0.009496  3.662856  0.005  0.204924  -0.001434  3.942792  -0.002  0.225086  -0.001374  3.952334  -0.002  0.164013  0.190821  -0.001039  3.936602  -0.002
C  C16  1  0.06932424  0.64260283  0.42386686  1  0.147298  0.000275  3.804156  0.0  0.147996  -0.001531  4.054262  -0.002  0.151581  -0.00098  4.080503  -0.001  0.086097  0.145279  -0.002128  4.036667  -0.003
C  C17  1  0.93067148  0.35737054  0.57614050  1  0.147483  0.000334  3.803957  0.0  0.148149  -0.00153  4.054115  -0.002  0.151737  -0.000977  4.080365  -0.001  0.086305  0.145427  -0.002126  4.036516  -0.003
C  C18  1  0.05969676  0.59219313  0.53951691  1  0.165299  -0.0015  3.784392  -0.002  0.15814  -0.001246  4.027067  -0.002  0.162771  -0.000843  4.048462  -0.001  0.095361  0.154659  -0.001649  4.013287  -0.002
C  C19  1  0.94026093  0.40781824  0.46049798  1  0.165229  -0.001534  3.7841  -0.002  0.158038  -0.001246  4.026884  -0.002  0.162648  -0.000842  4.048312  -0.001  0.095333  0.154576  -0.001649  4.013075  -0.002
C  C20  1  0.98983841  0.44967428  0.61905289  1  -0.205712  -0.002453  3.703646  -0.003  -0.235482  -0.001931  3.959122  -0.002  -0.238907  -0.001288  3.976678  -0.002  -0.090495  -0.233165  -0.002725  3.947756  -0.003
C  C21  1  0.01015479  0.55031257  0.38094390  1  -0.205553  -0.002405  3.703639  -0.003  -0.235421  -0.001931  3.959087  -0.002  -0.238842  -0.001288  3.976647  -0.002  -0.090468  -0.23311  -0.002724  3.947717  -0.003
C  C22  1  0.21289083  0.88685055  0.99591269  1  0.262984  0.003262  3.680855  0.002  0.201683  -0.003813  3.962031  -0.005  0.221749  -0.003066  3.972758  -0.004  0.161078  0.187789  -0.004417  3.954771  -0.005
C  C23  1  0.78711042  0.11314205  0.00409429  1  0.262895  0.003259  3.680808  0.002  0.20168  -0.003809  3.961995  -0.005  0.221735  -0.003063  3.972706  -0.004  0.161036  0.18781  -0.004414  3.954729  -0.005
C  C24  1  0.40403725  0.61574230  0.94586736  1  0.171397  -0.002347  3.781353  -0.003  0.164259  -0.001863  4.023796  -0.002  0.169644  -0.001204  4.04388  -0.001  0.095329  0.160163  -0.00251  4.011071  -0.003
C  C25  1  0.59596527  0.38427509  0.05413782  1  0.171281  -0.002356  3.781362  -0.003  0.164216  -0.001862  4.02382  -0.002  0.169602  -0.001203  4.043906  -0.001  0.095292  0.160116  -0.002509  4.011098  -0.003
C  C26  1  0.38448297  0.65888419  0.05222130  1  0.160274  0.000247  3.801588  0.0  0.15907  -0.001792  4.0541  -0.002  0.164016  -0.001197  4.078087  -0.002  0.090413  0.155232  -0.002387  4.038285  -0.003
C  C27  1  0.61552769  0.34112457  0.94777742  1  0.160503  0.000255  3.801353  0.0  0.15924  -0.001792  4.053939  -0.002  0.164185  -0.001195  4.077928  -0.002  0.090414  0.155404  -0.002387  4.038122  -0.003
C  C28  1  0.48094917  0.54319046  0.10947862  1  -0.205428  -0.002451  3.699019  -0.003  -0.234308  -0.001745  3.952729  -0.002  -0.238348  -0.001048  3.970068  -0.001  -0.088367  -0.231428  -0.002626  3.941425  -0.003
C  C29  1  0.51905762  0.45682148  0.89052720  1  -0.205665  -0.002465  3.698862  -0.003  -0.23448  -0.001744  3.952578  -0.002  -0.238523  -0.001047  3.969917  -0.001  -0.088332  -0.231601  -0.002625  3.941274  -0.003
N  N30  1  0.26120849  0.82896012  0.08122764  1  -0.418532  -0.039988  3.314074  -0.059  -0.37751  -0.030411  3.633704  -0.035  -0.411151  -0.023666  3.645665  -0.026  -0.367954  -0.353027  -0.036176  3.62601  -0.043
N  N31  1  0.73880430  0.17104553  0.91877450  1  -0.418573  -0.039984  3.314063  -0.059  -0.377548  -0.030409  3.633689  -0.035  -0.41119  -0.023665  3.645659  -0.026  -0.367848  -0.353054  -0.036175  3.625968  -0.043
N  N32  1  0.29190693  0.76422923  0.91483224  1  -0.325947  -0.004069  3.407367  -0.006  -0.261838  -0.004898  3.628522  -0.007  -0.278614  -0.003565  3.637991  -0.006  -0.373663  -0.25072  -0.006252  3.622827  -0.009
N  N33  1  0.70811185  0.23578278  0.08516323  1  -0.325905  -0.004068  3.407468  -0.006  -0.26191  -0.004899  3.628688  -0.007  -0.278688  -0.003565  3.638168  -0.006  -0.373623  -0.250789  -0.006253  3.622986  -0.009
N  N34  1  0.14449044  0.79130025  0.36901971  1  -0.430147  -0.041128  3.307272  -0.063  -0.388883  -0.031369  3.626142  -0.039  -0.422173  -0.024853  3.639003  -0.03  -0.372316  -0.364781  -0.036958  3.617861  -0.046
N  N35  1  0.85548009  0.20870009  0.63098658  1  -0.430183  -0.04114  3.30724  -0.063  -0.388932  -0.031366  3.626155  -0.039  -0.422225  -0.024851  3.639025  -0.03  -0.372513  -0.364829  -0.036956  3.617878  -0.046
N  N36  1  0.13223676  0.71263047  0.54831608  1  -0.335894  -0.000496  3.414248  -0.001  -0.274087  -0.001703  3.641015  -0.003  -0.291111  -0.001152  3.651713  -0.002  -0.378837  -0.262899  -0.002261  3.634501  -0.003
N  N37  1  0.86775899  0.28736871  0.45168066  1  -0.336022  -0.000501  3.414405  -0.001  -0.274176  -0.001703  3.641084  -0.003  -0.291198  -0.001152  3.651786  -0.002  -0.378733  -0.262986  -0.002261  3.634566  -0.003
Cl  Cl38  1  0.29208034  0.15337917  0.20421124  1  -0.533712  -0.098729  0.953306  -0.143  -0.534465  -0.076624  1.217023  -0.099  -0.579051  -0.05371  1.194551  -0.068  -0.328477  -0.496924  -0.097975  1.232177  -0.125
Cl  Cl39  1  0.70792774  0.84658739  0.79579786  1  -0.533758  -0.09871  0.953126  -0.143  -0.534498  -0.076607  1.216843  -0.099  -0.579077  -0.053697  1.194374  -0.068  -0.328498  -0.496948  -0.097958  1.231991  -0.125
Cl  Cl40  1  0.86078290  0.09542403  0.26955653  1  -0.573583  -0.059623  0.922177  -0.085  -0.553551  -0.051538  1.154421  -0.062  -0.582144  -0.03783  1.124599  -0.045  -0.313257  -0.529886  -0.064405  1.175892  -0.077
Cl  Cl41  1  0.13923251  0.90458352  0.73042998  1  -0.573589  -0.059623  0.922144  -0.085  -0.553534  -0.051536  1.15439  -0.062  -0.582121  -0.037829  1.124572  -0.045  -0.313239  -0.529862  -0.064404  1.17586  -0.077
