# generated using pymatgen
data_CuH16C21N4O5
_symmetry_space_group_name_H-M   'P 1'
_cell_length_a   9.53810276
_cell_length_b   14.47271486
_cell_length_c   19.64901847
_cell_angle_alpha   90.00013098
_cell_angle_beta   89.99931562
_cell_angle_gamma   89.99715024
_symmetry_Int_Tables_number   1
_chemical_formula_structural   CuH16C21N4O5
_chemical_formula_sum   'Cu4 H64 C84 N16 O20'
_cell_volume   2712.39454970
_cell_formula_units_Z   4
loop_
 _symmetry_equiv_pos_site_id
 _symmetry_equiv_pos_as_xyz
  1  'x, y, z'
loop_
 _atom_site_type_symbol
 _atom_site_label
 _atom_site_symmetry_multiplicity
 _atom_site_fract_x
 _atom_site_fract_y
 _atom_site_fract_z
 _atom_site_occupancy
 _atom_site_pbe_bader_charge
 _atom_site_pbe_bader_spin_density
 _atom_site_pbe_cm5_charge
 _atom_site_pbe_ddec_charge
 _atom_site_pbe_ddec_spin_density
 _atom_site_pbe_ddec_sum_bond_order
 _atom_site_pbe_magmom
Cu  Cu0  1  0.11297912  0.25977436  0.74999919  1  1.10961  -0.592825  0.74852  0.814502  -0.770646  2.243058  -0.592
Cu  Cu1  1  0.38702063  0.75974863  0.24999777  1  1.109021  0.592777  0.748739  0.814528  0.770622  2.243655  0.592
Cu  Cu2  1  0.61298496  0.24024335  0.75000079  1  1.109459  0.592804  0.748568  0.814288  0.770634  2.243506  0.592
Cu  Cu3  1  0.88704010  0.74023075  0.24999733  1  1.109471  -0.592799  0.748595  0.814692  -0.770642  2.24306  -0.592
H  H4  1  0.85270293  0.50101503  0.75000592  1  0.10504  0.000166  0.146375  0.123144  7.8e-05  0.927009  0.0
H  H5  1  0.64732686  0.00095452  0.24999179  1  0.105834  -0.000166  0.146549  0.123442  -7.8e-05  0.926996  0.0
H  H6  1  0.35267244  0.99904022  0.75000473  1  0.105845  -0.000166  0.146467  0.123274  -7.8e-05  0.927139  0.0
H  H7  1  0.14732677  0.49901150  0.24999722  1  0.105998  0.000166  0.146427  0.123271  7.8e-05  0.927017  0.0
H  H8  1  0.84222761  0.37720981  0.75000584  1  0.236605  3.9e-05  0.141881  0.137633  6e-06  1.029757  0.0
H  H9  1  0.65776074  0.87715209  0.24999150  1  0.235864  -3.8e-05  0.141658  0.137277  -5e-06  1.029877  0.0
H  H10  1  0.34225114  0.12285440  0.75000350  1  0.236085  -3.8e-05  0.14169  0.137468  -5e-06  1.029677  0.0
H  H11  1  0.15775492  0.62282293  0.24999730  1  0.236455  3.9e-05  0.141785  0.137604  6e-06  1.029831  0.0
H  H12  1  0.05563973  0.62440312  0.96673976  1  0.054558  4e-06  0.098024  0.099273  -9e-06  1.002279  0.0
H  H13  1  0.44431169  0.12438973  0.03328649  1  0.053946  -4e-06  0.098057  0.099338  9e-06  1.002371  0.0
H  H14  1  0.55561539  0.87561541  0.53325683  1  0.05515  -4e-06  0.098191  0.099452  9e-06  1.00214  0.0
H  H15  1  0.94437308  0.37560195  0.46674305  1  0.055062  4e-06  0.098132  0.099356  -9e-06  1.002327  0.0
H  H16  1  0.94436377  0.37559784  0.03325575  1  0.055149  4e-06  0.098026  0.099293  -9e-06  1.002405  0.0
H  H17  1  0.55562051  0.87561538  0.96674108  1  0.055211  -4e-06  0.098133  0.099383  9e-06  1.002148  0.0
H  H18  1  0.44430108  0.12438694  0.46670458  1  0.053946  -4e-06  0.098117  0.099342  9e-06  1.002391  0.0
H  H19  1  0.05564090  0.62441283  0.53326722  1  0.054494  4e-06  0.098017  0.099267  -9e-06  1.002441  0.0
H  H20  1  0.97416985  0.56478358  0.85734177  1  0.13779  -0.000817  0.130516  0.125847  -0.000429  0.990673  0.0
H  H21  1  0.52583198  0.06475568  0.14264943  1  0.138081  0.000818  0.130502  0.125673  0.00043  0.990602  0.0
H  H22  1  0.47413748  0.93524081  0.64265647  1  0.138114  0.000818  0.130527  0.125739  0.00043  0.990655  0.0
H  H23  1  0.02585405  0.43522669  0.35734588  1  0.137919  -0.000818  0.130487  0.125752  -0.00043  0.990687  0.0
H  H24  1  0.02584413  0.43522291  0.14265526  1  0.137841  -0.000818  0.130461  0.125747  -0.00043  0.99062  0.0
H  H25  1  0.47414635  0.93524114  0.85734709  1  0.138075  0.000818  0.130523  0.125776  0.00043  0.990564  0.0
H  H26  1  0.52584086  0.06475601  0.35734209  1  0.138098  0.000818  0.130497  0.125631  0.00043  0.990692  0.0
H  H27  1  0.97416412  0.56478809  0.64266896  1  0.137652  -0.000817  0.130449  0.125751  -0.00043  0.990828  0.0
H  H28  1  0.16831743  0.69120081  0.06881067  1  0.08024  0.000157  0.101903  0.106102  0.000118  1.010764  0.0
H  H29  1  0.33166346  0.19119171  0.93121061  1  0.08016  -0.000157  0.101877  0.105927  -0.000118  1.011045  0.0
H  H30  1  0.66831144  0.80880082  0.43118875  1  0.080258  -0.000157  0.101865  0.105984  -0.000118  1.010723  0.0
H  H31  1  0.83168006  0.30879545  0.56880542  1  0.080302  0.000157  0.101904  0.106107  0.000118  1.010744  0.0
H  H32  1  0.83167033  0.30879739  0.93119146  1  0.080282  0.000157  0.101858  0.105977  0.000118  1.010837  0.0
H  H33  1  0.66832012  0.80880027  0.06880729  1  0.080306  -0.000157  0.101888  0.105958  -0.000118  1.010748  0.0
H  H34  1  0.33166060  0.19118978  0.56878029  1  0.08025  -0.000157  0.101885  0.105994  -0.000118  1.011174  0.0
H  H35  1  0.16831609  0.69120689  0.43119620  1  0.080266  0.000157  0.101872  0.106078  0.000118  1.010843  0.0
H  H36  1  0.22084557  0.31820486  0.89642049  1  0.139005  -0.000231  0.129279  0.120175  -6.2e-05  1.01165  0.0
H  H37  1  0.27910985  0.81819115  0.10359846  1  0.139087  0.000229  0.129245  0.120122  6.1e-05  1.011727  0.0
H  H38  1  0.72087316  0.18178726  0.60358802  1  0.138758  0.000231  0.129278  0.120185  6.2e-05  1.011699  0.0
H  H39  1  0.77914172  0.68179240  0.39641051  1  0.13893  -0.000231  0.129288  0.120173  -6.2e-05  1.011743  0.0
H  H40  1  0.77914429  0.68179264  0.10358723  1  0.138885  -0.00023  0.129297  0.120168  -6.2e-05  1.011835  0.0
H  H41  1  0.72087582  0.18179116  0.89641537  1  0.138673  0.000231  0.129288  0.120189  6.2e-05  1.011761  0.0
H  H42  1  0.27912615  0.81818883  0.39639578  1  0.139282  0.000229  0.129269  0.120162  6.1e-05  1.011578  0.0
H  H43  1  0.22084395  0.31821202  0.60358653  1  0.139146  -0.000231  0.129254  0.120108  -6.2e-05  1.011589  0.0
H  H44  1  0.33705250  0.39130688  0.97764413  1  0.07364  0.000249  0.101136  0.104813  0.000122  1.017745  0.0
H  H45  1  0.16293715  0.89130703  0.02235256  1  0.07356  -0.00025  0.101162  0.104906  -0.000122  1.017642  0.0
H  H46  1  0.83704367  0.10868978  0.52234896  1  0.073857  -0.00025  0.101215  0.104855  -0.000122  1.017641  0.0
H  H47  1  0.66297052  0.60869961  0.47765555  1  0.073669  0.000249  0.101145  0.104858  0.000122  1.017597  0.0
H  H48  1  0.66296672  0.60870168  0.02234782  1  0.073727  0.00025  0.101155  0.104826  0.000122  1.0176  0.0
H  H49  1  0.83704118  0.10869117  0.97764804  1  0.07383  -0.00025  0.101193  0.104855  -0.000122  1.017622  0.0
H  H50  1  0.16293256  0.89130150  0.47764654  1  0.073397  -0.00025  0.101161  0.104952  -0.000122  1.017634  0.0
H  H51  1  0.33704346  0.39131310  0.52236235  1  0.073845  0.00025  0.101169  0.104799  0.000122  1.017648  0.0
H  H52  1  0.45383573  0.46201462  0.07758312  1  0.085097  5.5e-05  0.103659  0.109489  7e-06  0.996927  0.0
H  H53  1  0.04618834  0.96200884  0.92240402  1  0.084985  -5.5e-05  0.10365  0.109428  -7e-06  0.996983  0.0
H  H54  1  0.95383500  0.03796432  0.42241584  1  0.085263  -5.5e-05  0.103726  0.109505  -7e-06  0.997099  0.0
H  H55  1  0.54617518  0.53798305  0.57758346  1  0.084938  5.5e-05  0.10366  0.109437  7e-06  0.997068  0.0
H  H56  1  0.54617511  0.53798842  0.92241748  1  0.084908  5.5e-05  0.103675  0.109429  7e-06  0.997111  0.0
H  H57  1  0.95383717  0.03796794  0.07758182  1  0.085199  -5.5e-05  0.103716  0.109471  -7e-06  0.997141  0.0
H  H58  1  0.04618108  0.96200969  0.57759392  1  0.084903  -5.5e-05  0.103644  0.109416  -7e-06  0.996979  0.0
H  H59  1  0.45382831  0.46201860  0.42242375  1  0.085311  5.5e-05  0.103699  0.109521  7e-06  0.99699  0.0
H  H60  1  0.39679620  0.33699227  0.70968803  1  0.645752  4.2e-05  0.270449  0.362465  -2.3e-05  0.994173  0.0
H  H61  1  0.10322278  0.83697029  0.29030958  1  0.646044  -4.2e-05  0.270508  0.362617  2.3e-05  0.993962  0.0
H  H62  1  0.89680173  0.16301007  0.79031133  1  0.645739  -4.2e-05  0.270411  0.362383  2.2e-05  0.994327  0.0
H  H63  1  0.60321982  0.66301340  0.20968869  1  0.645833  4.2e-05  0.270484  0.362502  -2.3e-05  0.994117  0.0
H  H64  1  0.60321778  0.66301007  0.29031257  1  0.645776  4.2e-05  0.270479  0.362471  -2.2e-05  0.994156  0.0
H  H65  1  0.89680797  0.16301409  0.70968746  1  0.645729  -4.1e-05  0.2704  0.362387  2.3e-05  0.994299  0.0
H  H66  1  0.10321854  0.83697777  0.20968621  1  0.645823  -4.2e-05  0.270422  0.362464  2.3e-05  0.994188  0.0
H  H67  1  0.39679625  0.33699378  0.79031648  1  0.645662  4.1e-05  0.27041  0.362355  -2.3e-05  0.994315  0.0
C  C68  1  0.39785115  0.62481713  0.13753552  1  1.577565  -0.0002  0.204032  0.560388  0.001258  4.223936  -0.002
C  C69  1  0.10216628  0.12482836  0.86245002  1  1.576188  0.00021  0.204028  0.560291  -0.001254  4.222984  0.002
C  C70  1  0.89785854  0.87517295  0.36246054  1  1.576731  0.000203  0.20403  0.560265  -0.001259  4.223903  0.002
C  C71  1  0.60215932  0.37517865  0.63754188  1  1.577677  -0.0002  0.204106  0.56051  0.001258  4.223745  -0.002
C  C72  1  0.60215129  0.37518452  0.86246050  1  1.577453  -0.0002  0.204096  0.560309  0.001259  4.223919  -0.002
C  C73  1  0.89785818  0.87517053  0.13753429  1  1.576109  0.000205  0.203971  0.560381  -0.001257  4.223844  0.002
C  C74  1  0.10217326  0.12483423  0.63754667  1  1.575943  0.000211  0.204026  0.560292  -0.001254  4.222989  0.002
C  C75  1  0.39785151  0.62482162  0.36246380  1  1.577829  -0.000202  0.204139  0.56053  0.001257  4.223429  -0.002
C  C76  1  0.12420338  0.46100618  0.90399532  1  0.075666  -0.00289  -0.018978  -0.021249  -0.001981  4.058951  -0.002
C  C77  1  0.37575576  0.96099900  0.09601726  1  0.074681  0.002891  -0.019007  -0.021128  0.00198  4.05825  0.002
C  C78  1  0.62420227  0.03900011  0.59601070  1  0.074739  0.00289  -0.019026  -0.02131  0.00198  4.058838  0.002
C  C79  1  0.87580364  0.53900009  0.40399420  1  0.07494  -0.002891  -0.018961  -0.021194  -0.001981  4.058688  -0.002
C  C80  1  0.87579697  0.53899617  0.09600884  1  0.074666  -0.00289  -0.019022  -0.021291  -0.001981  4.058885  -0.002
C  C81  1  0.62420789  0.03900127  0.90398894  1  0.074781  0.00289  -0.019017  -0.021313  0.00198  4.058873  0.002
C  C82  1  0.37576453  0.96099532  0.40397921  1  0.074606  0.00289  -0.019117  -0.02166  0.00198  4.058447  0.002
C  C83  1  0.12420719  0.46101262  0.59601301  1  0.075163  -0.002891  -0.019111  -0.021439  -0.001981  4.059222  -0.002
C  C84  1  0.91322581  0.43679251  0.75000569  1  0.610238  -0.000467  0.069597  -0.065361  -0.000293  3.858207  -0.001
C  C85  1  0.58679151  0.93675228  0.24999328  1  0.610326  0.000465  0.069655  -0.06515  0.000292  3.858383  0.001
C  C86  1  0.41323400  0.06324454  0.75000325  1  0.610616  0.000466  0.069715  -0.065377  0.000292  3.857979  0.001
C  C87  1  0.08676929  0.56321812  0.24999847  1  0.609964  -0.000465  0.069719  -0.06551  -0.000292  3.858418  -0.001
C  C88  1  0.14314041  0.58808790  0.99051725  1  -0.060508  -0.00056  -0.096555  -0.141139  -0.000414  4.0003  0.0
C  C89  1  0.35684210  0.08808485  0.00949621  1  -0.05926  0.000558  -0.096668  -0.141098  0.000412  4.000765  0.0
C  C90  1  0.64312331  0.91192021  0.50947730  1  -0.060906  0.00056  -0.096666  -0.141409  0.000414  3.999818  0.0
C  C91  1  0.85687496  0.41191380  0.49051857  1  -0.060816  -0.00056  -0.096684  -0.14136  -0.000414  3.999957  0.0
C  C92  1  0.85686518  0.41191030  0.00948233  1  -0.061003  -0.00056  -0.096523  -0.141199  -0.000414  4.00006  0.0
C  C93  1  0.64312784  0.91192026  0.99052220  1  -0.060987  0.00056  -0.09663  -0.141315  0.000414  3.999902  0.0
C  C94  1  0.35683196  0.08808075  0.49049327  1  -0.058904  0.000557  -0.096779  -0.141173  0.000412  4.000707  0.0
C  C95  1  0.14312959  0.58809960  0.50948814  1  -0.060444  -0.00056  -0.096602  -0.141061  -0.000414  4.000464  0.0
C  C96  1  0.02725450  0.49854520  0.85840353  1  0.318495  -0.001559  0.029904  -0.114153  -0.001481  3.876961  -0.002
C  C97  1  0.47272378  0.99850947  0.14160606  1  0.319833  0.001563  0.029978  -0.113856  0.001484  3.876842  0.002
C  C98  1  0.52724675  0.00148011  0.64160407  1  0.31975  0.001553  0.030046  -0.113751  0.001477  3.877121  0.002
C  C99  1  0.97275364  0.50146645  0.35839873  1  0.31943  -0.001554  0.029997  -0.113971  -0.001478  3.877094  -0.002
C  C100  1  0.97274480  0.50146681  0.14160165  1  0.319587  -0.001556  0.029994  -0.113983  -0.001479  3.877316  -0.002
C  C101  1  0.52725665  0.00148182  0.85839759  1  0.319748  0.001555  0.030034  -0.113866  0.001479  3.877206  0.002
C  C102  1  0.47273472  0.99851118  0.35838890  1  0.320393  0.001564  0.030068  -0.113524  0.001485  3.876396  0.002
C  C103  1  0.02725509  0.49855178  0.64160644  1  0.318681  -0.00156  0.030102  -0.113779  -0.001482  3.877085  -0.002
C  C104  1  0.20691276  0.62636091  0.04766848  1  0.002405  0.000789  -0.093707  -0.105893  0.000555  4.013489  0.0
C  C105  1  0.29309721  0.12635243  0.95234963  1  0.00398  -0.000782  -0.093731  -0.105889  -0.00055  4.014491  0.0
C  C106  1  0.70690966  0.87364777  0.45232818  1  0.002042  -0.000787  -0.093721  -0.105697  -0.000554  4.013583  0.0
C  C107  1  0.79308945  0.37364220  0.54767068  1  0.001961  0.000788  -0.093774  -0.105918  0.000554  4.013527  0.0
C  C108  1  0.79308025  0.37364282  0.95232957  1  0.002292  0.000788  -0.093722  -0.105752  0.000554  4.01356  0.0
C  C109  1  0.70691467  0.87364923  0.04766776  1  0.002116  -0.000787  -0.09371  -0.10575  -0.000553  4.013629  0.0
C  C110  1  0.29308755  0.12635388  0.54764392  1  0.004387  -0.000781  -0.093615  -0.105758  -0.000549  4.014332  0.0
C  C111  1  0.20690356  0.62636636  0.45233857  1  0.002155  0.000788  -0.09373  -0.105972  0.000555  4.014037  0.0
C  C112  1  0.15003513  0.37123542  0.87838727  1  0.44785  -0.000473  0.041876  0.005648  -0.000748  3.901999  -0.001
C  C113  1  0.34992356  0.87121809  0.12162566  1  0.447455  0.000476  0.04201  0.005791  0.000749  3.901064  0.001
C  C114  1  0.65005900  0.12876382  0.62161911  1  0.448032  0.00047  0.041826  0.005631  0.000746  3.90183  0.001
C  C115  1  0.84995785  0.62876662  0.37838289  1  0.448197  -0.000471  0.041882  0.005691  -0.000747  3.902113  -0.001
C  C116  1  0.84995054  0.62876623  0.12161587  1  0.447919  -0.000473  0.04181  0.005656  -0.000748  3.901916  -0.001
C  C117  1  0.65006001  0.12876698  0.87838410  1  0.447933  0.000472  0.041815  0.005612  0.000747  3.901864  0.001
C  C118  1  0.34994135  0.87121710  0.37836826  1  0.446218  0.000477  0.042017  0.005903  0.00075  3.90096  0.001
C  C119  1  0.15003726  0.37124056  0.62162127  1  0.448628  -0.000471  0.042006  0.005858  -0.000747  3.901691  -0.001
C  C120  1  0.18789400  0.50254064  0.96436613  1  -0.033378  0.00054  -0.006913  0.084141  0.000335  4.031953  0.0
C  C121  1  0.31206572  0.00253981  0.03563651  1  -0.034171  -0.000534  -0.007042  0.083784  -0.000331  4.031965  0.0
C  C122  1  0.68789171  0.99747086  0.53563123  1  -0.033342  -0.000539  -0.00689  0.084102  -0.000334  4.031438  0.0
C  C123  1  0.81211048  0.49746719  0.46437039  1  -0.033779  0.000539  -0.00687  0.08415  0.000334  4.031462  0.0
C  C124  1  0.81210215  0.49746377  0.03563244  1  -0.033165  0.000539  -0.006833  0.084123  0.000334  4.031634  0.0
C  C125  1  0.68789794  0.99747290  0.96436816  1  -0.033478  -0.000539  -0.006889  0.084155  -0.000334  4.031531  0.0
C  C126  1  0.31206041  0.00253701  0.46435665  1  -0.033874  -0.000531  -0.007052  0.083917  -0.000329  4.031992  0.0
C  C127  1  0.18788673  0.50254759  0.53563937  1  -0.033765  0.000541  -0.006813  0.083985  0.000335  4.032052  0.0
C  C128  1  0.32011270  0.58159628  0.07912770  1  -0.095955  0.011151  -0.025875  -0.042944  0.007816  3.993673  0.009
C  C129  1  0.17991643  0.08158790  0.92088321  1  -0.097367  -0.011173  -0.025791  -0.042674  -0.007829  3.993063  -0.009
C  C130  1  0.82011323  0.91839562  0.42087034  1  -0.095907  -0.011154  -0.0259  -0.042928  -0.007818  3.993445  -0.009
C  C131  1  0.67989712  0.41840486  0.57912860  1  -0.095913  0.011158  -0.02574  -0.042692  0.00782  3.993321  0.009
C  C132  1  0.67988869  0.41840676  0.92087290  1  -0.095821  0.011156  -0.025832  -0.042797  0.007819  3.993682  0.009
C  C133  1  0.82011327  0.91839648  0.07912553  1  -0.095807  -0.011157  -0.025842  -0.042777  -0.007819  3.993005  -0.009
C  C134  1  0.17990704  0.08158530  0.57911245  1  -0.097586  -0.011174  -0.025807  -0.04285  -0.007829  3.993445  -0.009
C  C135  1  0.32009904  0.58160233  0.42087912  1  -0.096013  0.011158  -0.025721  -0.042725  0.007819  3.993442  0.009
C  C136  1  0.29835233  0.45658555  0.99778169  1  0.009644  0.001024  -0.090887  -0.129553  0.000704  3.974413  0.001
C  C137  1  0.20163127  0.95658162  0.00221765  1  0.009778  -0.001024  -0.090989  -0.12971  -0.000704  3.975184  -0.001
C  C138  1  0.79834271  0.04340961  0.50221264  1  -0.001775  -0.001029  -0.091041  -0.129581  -0.000703  3.97464  -0.001
C  C139  1  0.70166495  0.54341894  0.49778718  1  -0.000819  0.001031  -0.091042  -0.129648  0.000704  3.974434  0.001
C  C140  1  0.70166060  0.54341749  0.00221637  1  0.009831  0.001024  -0.091076  -0.129649  0.000704  3.974505  0.001
C  C141  1  0.79834497  0.04341243  0.99778702  1  0.009446  -0.001023  -0.091068  -0.129671  -0.000703  3.974796  -0.001
C  C142  1  0.20162933  0.95657616  0.49777523  1  0.009518  -0.001025  -0.090999  -0.129753  -0.000704  3.974953  -0.001
C  C143  1  0.29833854  0.45659516  0.50222258  1  0.009819  0.001024  -0.09107  -0.129512  0.000704  3.974414  0.001
C  C144  1  0.36452241  0.49604281  0.05368043  1  -0.036736  0.002127  -0.089724  -0.101627  0.001412  4.012288  0.002
C  C145  1  0.13548962  0.99602317  0.94632407  1  -0.036532  -0.002123  -0.089575  -0.101426  -0.00141  4.012402  -0.002
C  C146  1  0.86452055  0.00395559  0.44632006  1  -0.025592  -0.00212  -0.089723  -0.101641  -0.001413  4.012363  -0.002
C  C147  1  0.63548595  0.50396515  0.55368427  1  -0.025706  0.002121  -0.089707  -0.101675  0.001412  4.012209  0.002
C  C148  1  0.63548214  0.50396644  0.94631763  1  -0.037044  0.002127  -0.089663  -0.101574  0.001413  4.012359  0.002
C  C149  1  0.86452332  0.00396121  0.05367704  1  -0.036842  -0.002127  -0.089763  -0.101672  -0.001413  4.012252  -0.002
C  C150  1  0.13548294  0.99602533  0.55367392  1  -0.03661  -0.002122  -0.089548  -0.101373  -0.001409  4.012466  -0.002
C  C151  1  0.36451440  0.49604479  0.44632498  1  -0.036803  0.002127  -0.089688  -0.101677  0.001413  4.012166  0.002
N  N152  1  0.07460739  0.35524370  0.82242489  1  -0.70864  -0.065619  -0.258431  -0.221667  -0.0461  3.482232  -0.058
N  N153  1  0.42539237  0.85521098  0.17758751  1  -0.706774  0.065618  -0.258414  -0.221613  0.046096  3.481833  0.058
N  N154  1  0.57462759  0.14476765  0.67758397  1  -0.706695  0.065607  -0.258354  -0.221505  0.046091  3.482076  0.058
N  N155  1  0.92538802  0.64476232  0.32241857  1  -0.708922  -0.065614  -0.258524  -0.221891  -0.046095  3.482159  -0.058
N  N156  1  0.92538772  0.64476210  0.17757978  1  -0.708579  -0.06562  -0.258475  -0.221736  -0.046098  3.48186  -0.058
N  N157  1  0.57462475  0.14477132  0.82242123  1  -0.706524  0.065604  -0.258365  -0.221512  0.046091  3.48184  0.058
N  N158  1  0.42540211  0.85520913  0.32240543  1  -0.70613  0.065616  -0.258451  -0.221543  0.046093  3.481682  0.058
N  N159  1  0.07460604  0.35524624  0.67758355  1  -0.708747  -0.06562  -0.25849  -0.221618  -0.046098  3.482413  -0.058
N  N160  1  0.00021239  0.43333527  0.81049633  1  -0.787796  -0.003875  -0.141593  0.174937  -0.002043  3.756  -0.002
N  N161  1  0.49979396  0.93330849  0.18951010  1  -0.790128  0.003882  -0.141744  0.174627  0.002047  3.756369  0.002
N  N162  1  0.50021418  0.06667985  0.68950990  1  -0.790564  0.003879  -0.141777  0.174648  0.002044  3.756844  0.002
N  N163  1  0.99979171  0.56666449  0.31049149  1  -0.78838  -0.003876  -0.141718  0.174946  -0.002043  3.756258  -0.002
N  N164  1  0.99979006  0.56666362  0.18950580  1  -0.788386  -0.003877  -0.141598  0.174965  -0.002044  3.756219  -0.002
N  N165  1  0.50021582  0.06668142  0.81049508  1  -0.790745  0.003879  -0.141739  0.174739  0.002044  3.756675  0.002
N  N166  1  0.49980400  0.93330798  0.31048204  1  -0.790036  0.003883  -0.141859  0.174399  0.002047  3.756363  0.002
N  N167  1  0.00020969  0.43333647  0.68951369  1  -0.788206  -0.003877  -0.14181  0.17454  -0.002044  3.756641  -0.002
O  O168  1  0.36661712  0.29973513  0.75000308  1  -1.306711  -0.000494  -0.608744  -0.827851  -0.000196  2.144124  0.0
O  O169  1  0.13338060  0.79971688  0.24999599  1  -1.307165  0.000496  -0.608802  -0.828189  0.000197  2.144191  0.0
O  O170  1  0.86664281  0.20027993  0.75000053  1  -1.306829  0.000495  -0.608751  -0.827967  0.000197  2.144268  0.0
O  O171  1  0.63337903  0.70026722  0.25000159  1  -1.306858  -0.000497  -0.608834  -0.828046  -0.000197  2.144268  0.0
O  O172  1  0.52697379  0.60939985  0.14328860  1  -1.187602  0.001562  -0.312401  -0.534005  0.000684  2.180448  0.002
O  O173  1  0.97303721  0.10937491  0.85669606  1  -1.186698  -0.001567  -0.312361  -0.533922  -0.000687  2.179815  -0.002
O  O174  1  0.02698671  0.89059736  0.35670960  1  -1.18724  -0.001565  -0.312422  -0.533975  -0.000686  2.180228  -0.002
O  O175  1  0.47302711  0.39059595  0.64328963  1  -1.187418  0.001565  -0.31246  -0.5341  0.000686  2.180267  0.002
O  O176  1  0.47302237  0.39060319  0.85671250  1  -1.187585  0.001564  -0.312411  -0.533932  0.000685  2.1804  0.002
O  O177  1  0.02697887  0.89059910  0.14329029  1  -1.187165  -0.001564  -0.312353  -0.533947  -0.000685  2.180295  -0.002
O  O178  1  0.97304299  0.10938011  0.64330678  1  -1.186572  -0.001567  -0.312423  -0.533975  -0.000687  2.179834  -0.002
O  O179  1  0.52697848  0.60940363  0.35671657  1  -1.187591  0.001564  -0.312468  -0.534071  0.000685  2.180272  0.002
O  O180  1  0.32139117  0.67548757  0.17695200  1  -1.114303  0.108175  -0.324521  -0.531973  0.070166  2.37701  0.098
O  O181  1  0.17862867  0.17553006  0.82305449  1  -1.113914  -0.108162  -0.324434  -0.532006  -0.070156  2.3769  -0.098
O  O182  1  0.82142019  0.82449876  0.32304399  1  -1.113875  -0.108178  -0.324453  -0.53195  -0.070166  2.377157  -0.098
O  O183  1  0.67861204  0.32450765  0.67695835  1  -1.11463  0.108189  -0.324485  -0.532007  0.070176  2.377342  0.098
O  O184  1  0.67860289  0.32451201  0.82304198  1  -1.11441  0.108187  -0.324507  -0.531914  0.070174  2.377104  0.098
O  O185  1  0.82141152  0.82448679  0.17694356  1  -1.113332  -0.108196  -0.324438  -0.532053  -0.070176  2.377118  -0.098
O  O186  1  0.17863572  0.17554435  0.67693421  1  -1.113882  -0.108175  -0.324385  -0.531838  -0.070161  2.376691  -0.098
O  O187  1  0.32138516  0.67548710  0.32304480  1  -1.11446  0.108184  -0.324539  -0.53209  0.070173  2.376906  0.098
