# generated using pymatgen
data_DyH18C20N4Cl3
_symmetry_space_group_name_H-M   'P 1'
_cell_length_a   12.68281592
_cell_length_b   14.21665729
_cell_length_c   14.75139999
_cell_angle_alpha   90.00000857
_cell_angle_beta   90.00001299
_cell_angle_gamma   89.99999808
_symmetry_Int_Tables_number   1
_chemical_formula_structural   DyH18C20N4Cl3
_chemical_formula_sum   'Dy4 H72 C80 N16 Cl12'
_cell_volume   2659.78432806
_cell_formula_units_Z   4
loop_
 _symmetry_equiv_pos_site_id
 _symmetry_equiv_pos_as_xyz
  1  'x, y, z'
loop_
 _atom_site_type_symbol
 _atom_site_label
 _atom_site_symmetry_multiplicity
 _atom_site_fract_x
 _atom_site_fract_y
 _atom_site_fract_z
 _atom_site_occupancy
 _atom_site_pbe_bader_charge
 _atom_site_pbe_bader_spin_density
 _atom_site_pbe_cm5_charge
 _atom_site_pbe_ddec_charge
 _atom_site_pbe_ddec_spin_density
 _atom_site_pbe_ddec_sum_bond_order
 _atom_site_pbe_magmom
Dy  Dy0  1  0.33567082  0.83407236  0.86386047  1  2.019915  0  1.177333  1.625266  0  2.528906  0
Dy  Dy1  1  0.16432869  0.16592792  0.36386041  1  2.019926  0  1.177298  1.625201  0  2.529005  0
Dy  Dy2  1  0.83567089  0.66592728  0.13613975  1  2.019909  0  1.177315  1.625239  0  2.528959  0
Dy  Dy3  1  0.66432889  0.33407224  0.63613971  1  2.019924  0  1.177314  1.625241  0  2.528959  0
H  H4  1  0.41542905  0.40002653  0.14172492  1  0.082472  0  0.109877  0.117847  0  0.999017  0
H  H5  1  0.08457120  0.59997301  0.64172558  1  0.082485  0  0.109856  0.117823  0  0.999057  0
H  H6  1  0.91542852  0.09997362  0.85827457  1  0.082492  0  0.109852  0.117801  0  0.99904  0
H  H7  1  0.58457053  0.90002664  0.35827459  1  0.082484  0  0.109876  0.117846  0  0.999014  0
H  H8  1  0.33534511  0.93787520  0.28834765  1  0.117376  0  0.101146  0.095869  0  1.026775  0
H  H9  1  0.16465518  0.06212437  0.78834757  1  0.117369  0  0.101146  0.095873  0  1.026769  0
H  H10  1  0.83534533  0.56212445  0.71165190  1  0.117358  0  0.101148  0.095871  0  1.02679  0
H  H11  1  0.66465447  0.43787509  0.21165255  1  0.117377  0  0.101155  0.095887  0  1.026788  0
H  H12  1  0.09468167  0.49942543  0.17609994  1  0.117224  0  0.100795  0.118601  0  1.051249  0
H  H13  1  0.40531780  0.50057412  0.67609997  1  0.117222  0  0.100839  0.118631  0  1.051126  0
H  H14  1  0.59468192  0.00057473  0.82390016  1  0.117223  0  0.100797  0.118614  0  1.051228  0
H  H15  1  0.90531790  0.99942552  0.32390027  1  0.117226  0  0.100841  0.11863  0  1.051122  0
H  H16  1  0.17695125  0.86329226  0.21680798  1  0.129923  0  0.100462  0.122124  0  1.011335  0
H  H17  1  0.32304901  0.13670729  0.71680862  1  0.129927  0  0.100471  0.122134  0  1.011332  0
H  H18  1  0.67695070  0.63670739  0.78319154  1  0.129911  0  0.100458  0.122112  0  1.011342  0
H  H19  1  0.82304911  0.36329216  0.28319153  1  0.129913  0  0.100464  0.122125  0  1.011331  0
H  H20  1  0.18157244  0.82490629  0.05229613  1  0.114084  0  0.104599  0.076684  0  1.04098  0
H  H21  1  0.31842699  0.17509253  0.55229678  1  0.114098  0  0.104585  0.076666  0  1.041022  0
H  H22  1  0.68157273  0.67509265  0.94770338  1  0.114099  0  0.10458  0.076667  0  1.041017  0
H  H23  1  0.81842713  0.32490762  0.44770337  1  0.114101  0  0.104568  0.076644  0  1.040985  0
H  H24  1  0.19218925  0.86190941  0.67138110  1  0.102568  0  0.1097  0.069156  0  1.030632  0
H  H25  1  0.30781100  0.13809013  0.17138106  1  0.102558  0  0.109704  0.069157  0  1.030673  0
H  H26  1  0.69218937  0.63809024  0.32861909  1  0.102573  0  0.109699  0.069151  0  1.030645  0
H  H27  1  0.80781124  0.36190932  0.82861908  1  0.102565  0  0.109702  0.069159  0  1.030621  0
H  H28  1  0.37147116  0.26965764  0.24785924  1  0.116157  0  0.105328  0.079345  0  1.042587  0
H  H29  1  0.12852911  0.73034262  0.74785993  1  0.115966  0  0.10534  0.079357  0  1.042629  0
H  H30  1  0.87147060  0.23034252  0.75214024  1  0.115965  0  0.105347  0.079366  0  1.042615  0
H  H31  1  0.62853000  0.76965773  0.25214025  1  0.115966  0  0.105356  0.079391  0  1.042639  0
H  H32  1  0.11974469  0.53957832  0.03131437  1  0.077678  0  0.107454  0.114458  0  1.030584  0
H  H33  1  0.38025473  0.46042191  0.53131439  1  0.077678  0  0.107452  0.114459  0  1.030588  0
H  H34  1  0.61974497  0.96042204  0.96868581  1  0.077675  0  0.107449  0.114452  0  1.030594  0
H  H35  1  0.88025489  0.03957824  0.46868577  1  0.077686  0  0.10745  0.114455  0  1.030587  0
H  H36  1  0.51317554  0.89366371  0.71026558  1  0.100828  0  0.108453  0.075168  0  1.036101  0
H  H37  1  0.98682425  0.10633653  0.21026557  1  0.100831  0  0.108458  0.075181  0  1.036076  0
H  H38  1  0.01317533  0.60633594  0.28973526  1  0.100837  0  0.108437  0.07517  0  1.036142  0
H  H39  1  0.48682495  0.39366362  0.78973461  1  0.100839  0  0.108441  0.075185  0  1.036132  0
H  H40  1  0.44444547  0.56118326  0.11856510  1  0.117258  0  0.097328  0.116925  0  1.035489  0
H  H41  1  0.05555477  0.43881698  0.61856506  1  0.117259  0  0.097332  0.116934  0  1.035488  0
H  H42  1  0.94444493  0.93881709  0.88143447  1  0.117253  0  0.097304  0.116898  0  1.035519  0
H  H43  1  0.55555491  0.06118248  0.38143504  1  0.11726  0  0.097327  0.116925  0  1.035505  0
H  H44  1  0.49612800  0.96673218  0.19053525  1  0.069334  0  0.102546  0.106365  0  1.0027  0
H  H45  1  0.00387226  0.03326807  0.69053514  1  0.069334  0  0.102534  0.106338  0  1.002711  0
H  H46  1  0.99612825  0.53326746  0.80946432  1  0.069327  0  0.102549  0.106332  0  1.002724  0
H  H47  1  0.50387157  0.46673139  0.30946427  1  0.069334  0  0.102542  0.106326  0  1.002735  0
H  H48  1  0.46756887  0.68848814  0.00736414  1  0.152251  0  0.106129  0.080585  0  1.041322  0
H  H49  1  0.03243056  0.31151208  0.50736407  1  0.152253  0  0.106132  0.080589  0  1.04132  0
H  H50  1  0.96756915  0.81151220  0.99263611  1  0.152246  0  0.106126  0.080567  0  1.041332  0
H  H51  1  0.53243072  0.18848808  0.49263602  1  0.152244  0  0.106142  0.080596  0  1.041358  0
H  H52  1  0.15597336  0.67154119  0.92393339  1  0.090433  0  0.112192  0.07436  0  1.028028  0
H  H53  1  0.34402696  0.32845839  0.42393338  1  0.090436  0  0.112189  0.074353  0  1.028023  0
H  H54  1  0.65597340  0.82845846  0.07606612  1  0.090444  0  0.112178  0.074341  0  1.028007  0
H  H55  1  0.84402715  0.17154176  0.57606677  1  0.090434  0  0.112172  0.074324  0  1.028024  0
H  H56  1  0.20516190  0.91128036  0.50827930  1  0.103896  0  0.0974  0.119121  0  1.029026  0
H  H57  1  0.29483831  0.08871916  0.00827925  1  0.1039  0  0.097388  0.11909  0  1.029048  0
H  H58  1  0.70516207  0.58871929  0.49172090  1  0.103897  0  0.097394  0.119116  0  1.029023  0
H  H59  1  0.79483859  0.41128029  0.99172089  1  0.1039  0  0.097399  0.119124  0  1.029024  0
H  H60  1  0.48594649  0.92565008  0.02580987  1  0.075718  0  0.107193  0.063911  0  1.06052  0
H  H61  1  0.01405294  0.07435015  0.52580976  1  0.075714  0  0.107191  0.063901  0  1.060526  0
H  H62  1  0.98594678  0.57434956  0.97418971  1  0.075711  0  0.107201  0.063943  0  1.060488  0
H  H63  1  0.51405309  0.42565002  0.47419033  1  0.075711  0  0.1072  0.063942  0  1.060489  0
H  H64  1  0.38085710  0.95862551  0.44742679  1  0.096828  0  0.098769  0.095511  0  1.030602  0
H  H65  1  0.11914322  0.04137407  0.94742670  1  0.096995  0  0.098714  0.095381  0  1.030615  0
H  H66  1  0.88085728  0.54137413  0.55257344  1  0.09682  0  0.098763  0.095493  0  1.030613  0
H  H67  1  0.61914247  0.45862539  0.05257341  1  0.096832  0  0.098729  0.095396  0  1.030607  0
H  H68  1  0.53968225  0.94801684  0.55070650  1  0.083619  0  0.10137  0.104301  0  1.014512  0
H  H69  1  0.96031750  0.05198338  0.05070715  1  0.083625  0  0.101384  0.104314  0  1.014492  0
H  H70  1  0.03968288  0.55198352  0.44929367  1  0.083669  0  0.101382  0.104304  0  1.014503  0
H  H71  1  0.46031745  0.44801677  0.94929303  1  0.08362  0  0.101378  0.104309  0  1.014508  0
H  H72  1  0.06422788  0.36343215  0.27759945  1  0.120287  0  0.112154  0.084639  0  1.023939  0
H  H73  1  0.43577161  0.63656741  0.77760018  1  0.120289  0  0.112149  0.084627  0  1.023964  0
H  H74  1  0.56422810  0.13656802  0.72239997  1  0.120288  0  0.112146  0.084641  0  1.023938  0
H  H75  1  0.93577170  0.86343223  0.22240006  1  0.120291  0  0.112145  0.084638  0  1.023945  0
C  C76  1  0.25851358  0.46156350  0.14902727  1  -0.018637  0  0.013451  0.110518  0  3.975122  0
C  C77  1  0.24148588  0.53843604  0.64902727  1  -0.018648  0  0.013451  0.110496  0  3.975193  0
C  C78  1  0.75851384  0.03843666  0.85097287  1  -0.018632  0  0.013442  0.110522  0  3.975161  0
C  C79  1  0.74148678  0.96156431  0.35097225  1  -0.018716  0  0.013429  0.110505  0  3.975147  0
C  C80  1  0.33675488  0.39582442  0.17125838  1  -0.020342  0  -0.084057  -0.175074  0  3.946411  0
C  C81  1  0.16324537  0.60417513  0.67125906  1  -0.020333  0  -0.084012  -0.174983  0  3.946395  0
C  C82  1  0.83675435  0.10417574  0.82874109  1  -0.020352  0  -0.084038  -0.175014  0  3.946414  0
C  C83  1  0.66324548  0.89582452  0.32874113  1  -0.020312  0  -0.084031  -0.175036  0  3.946325  0
C  C84  1  0.33666263  0.91757506  0.21707238  1  -0.098865  0  -0.064691  -0.021416  0  3.95743  0
C  C85  1  0.16333685  0.08242520  0.71707230  1  -0.09918  0  -0.064691  -0.021408  0  3.957493  0
C  C86  1  0.83666287  0.58242529  0.78292717  1  -0.099189  0  -0.064675  -0.021401  0  3.957416  0
C  C87  1  0.66333773  0.41757426  0.28292714  1  -0.098903  0  -0.06468  -0.021434  0  3.957496  0
C  C88  1  0.15907195  0.45045893  0.18934072  1  0.006019  0  -0.078213  -0.157233  0  3.886138  0
C  C89  1  0.34092831  0.54954062  0.68934075  1  0.006032  0  -0.078248  -0.157251  0  3.885987  0
C  C90  1  0.65907141  0.04954123  0.81065940  1  0.006021  0  -0.078182  -0.157224  0  3.886113  0
C  C91  1  0.84092841  0.95045902  0.31065880  1  0.006089  0  -0.078231  -0.157223  0  3.885969  0
C  C92  1  0.27874488  0.53819895  0.08409852  1  -0.041663  0  0.012298  0.104947  0  3.980663  0
C  C93  1  0.22125456  0.46180128  0.58409919  1  -0.041764  0  0.01229  0.104944  0  3.980694  0
C  C94  1  0.77874514  0.96180140  0.91590169  1  -0.041665  0  0.012295  0.104942  0  3.980724  0
C  C95  1  0.72125471  0.03819887  0.41590094  1  -0.041755  0  0.012289  0.104924  0  3.980675  0
C  C96  1  0.24788660  0.87702192  0.17746528  1  0.056078  0  -0.081519  -0.110843  0  3.927153  0
C  C97  1  0.25211287  0.12297762  0.67746455  1  0.055837  0  -0.08151  -0.110858  0  3.927155  0
C  C98  1  0.74788685  0.62297772  0.82253493  1  0.056094  0  -0.081535  -0.110871  0  3.92709  0
C  C99  1  0.75211219  0.37702183  0.32253491  1  0.055837  0  -0.081515  -0.110843  0  3.927143  0
C  C100  1  0.25009193  0.85602612  0.08529097  1  0.417488  0  0.046668  0.109625  0  3.942518  0
C  C101  1  0.24990909  0.14397341  0.58529025  1  0.417703  0  0.046678  0.109667  0  3.942481  0
C  C102  1  0.75009142  0.64397352  0.91470923  1  0.417467  0  0.04671  0.109687  0  3.942454  0
C  C103  1  0.74990843  0.35602605  0.41470921  1  0.417718  0  0.046685  0.109695  0  3.942408  0
C  C104  1  0.26813374  0.87953380  0.64117381  1  0.386812  0  0.044828  0.102382  0  3.967839  0
C  C105  1  0.23186651  0.12046644  0.14117443  1  0.386873  0  0.044836  0.102399  0  3.967835  0
C  C106  1  0.76813387  0.62046655  0.35882708  1  0.38681  0  0.04483  0.102388  0  3.967921  0
C  C107  1  0.73186597  0.37953372  0.85882638  1  0.38687  0  0.044829  0.102403  0  3.967849  0
C  C108  1  0.31241093  0.32205603  0.22932676  1  0.433857  0  0.041461  0.091745  0  3.99679  0
C  C109  1  0.18758934  0.67794423  0.72932745  1  0.434059  0  0.04141  0.091664  0  3.996735  0
C  C110  1  0.81241116  0.17794413  0.77067271  1  0.434037  0  0.041427  0.091712  0  3.996836  0
C  C111  1  0.68758944  0.82205542  0.27067206  1  0.434045  0  0.041403  0.091638  0  3.996849  0
C  C112  1  0.19794420  0.57081702  0.02753168  1  -0.024832  0  -0.079021  -0.155135  0  3.92299  0
C  C113  1  0.30205601  0.42918320  0.52753169  1  -0.024818  0  -0.079018  -0.155143  0  3.922993  0
C  C114  1  0.69794369  0.92918333  0.97246851  1  -0.024859  0  -0.079026  -0.155141  0  3.923025  0
C  C115  1  0.80205617  0.07081695  0.47246846  1  -0.024862  0  -0.07902  -0.155128  0  3.922997  0
C  C116  1  0.44712711  0.89885902  0.66320970  1  0.43833  0  0.047078  0.107977  0  3.957952  0
C  C117  1  0.05287314  0.10114123  0.16320961  1  0.43832  0  0.047068  0.107955  0  3.957959  0
C  C118  1  0.94712803  0.60114132  0.33679054  1  0.438318  0  0.047072  0.107973  0  3.957946  0
C  C119  1  0.55287259  0.39885894  0.83679049  1  0.438314  0  0.047087  0.107956  0  3.958024  0
C  C120  1  0.37780490  0.58103532  0.07603964  1  0.001528  0  -0.083004  -0.167074  0  3.919661  0
C  C121  1  0.12219533  0.41896491  0.57603961  1  0.001608  0  -0.083011  -0.167099  0  3.919691  0
C  C122  1  0.87780438  0.91896503  0.92395991  1  0.001532  0  -0.08298  -0.167076  0  3.919662  0
C  C123  1  0.62219548  0.08103525  0.42395983  1  0.001604  0  -0.08301  -0.167091  0  3.919682  0
C  C124  1  0.42497660  0.93457272  0.16293380  1  -0.032839  0  -0.089577  -0.134875  0  3.979373  0
C  C125  1  0.07502365  0.06542682  0.66293438  1  -0.032545  0  -0.089583  -0.134869  0  3.979418  0
C  C126  1  0.92497607  0.56542692  0.83706577  1  -0.032518  0  -0.089574  -0.134829  0  3.979414  0
C  C127  1  0.57502376  0.43457193  0.33706572  1  -0.032967  0  -0.089576  -0.13484  0  3.97939  0
C  C128  1  0.39139414  0.65378237  0.01426110  1  0.418496  0  0.047712  0.114514  0  3.950738  0
C  C129  1  0.10860607  0.34621785  0.51426106  1  0.418503  0  0.047728  0.114527  0  3.950791  0
C  C130  1  0.89139443  0.84621727  0.98573913  1  0.418509  0  0.047729  0.114583  0  3.950732  0
C  C131  1  0.60860544  0.15378231  0.48573905  1  0.418503  0  0.047715  0.114536  0  3.950793  0
C  C132  1  0.21811729  0.64375548  0.96748519  1  0.49531  0  0.047137  0.108242  0  3.967869  0
C  C133  1  0.28188225  0.35624482  0.46748517  1  0.495326  0  0.047156  0.108281  0  3.967894  0
C  C134  1  0.71811811  0.85624487  0.03251433  1  0.4953  0  0.047176  0.108307  0  3.967837  0
C  C135  1  0.78188242  0.14375534  0.53251429  1  0.495295  0  0.047176  0.108308  0  3.967824  0
C  C136  1  0.27533008  0.90706347  0.55085018  1  0.030795  0  -0.084574  -0.120108  0  3.943394  0
C  C137  1  0.22466935  0.09293676  0.05085012  1  0.030748  0  -0.084562  -0.120098  0  3.943381  0
C  C138  1  0.77533023  0.59293687  0.44915003  1  0.030789  0  -0.08456  -0.120095  0  3.943432  0
C  C139  1  0.72466963  0.40706340  0.94914933  1  0.030732  0  -0.084574  -0.120169  0  3.943434  0
C  C140  1  0.42026628  0.91165664  0.07131605  1  0.46493  0  0.042709  0.09822  0  3.984545  0
C  C141  1  0.07973394  0.08834289  0.57131596  1  0.464944  0  0.042718  0.098247  0  3.984545  0
C  C142  1  0.92026656  0.58834300  0.92868419  1  0.464928  0  0.04272  0.098222  0  3.984505  0
C  C143  1  0.57973329  0.41165657  0.42868414  1  0.465077  0  0.04271  0.098226  0  3.984491  0
C  C144  1  0.37377193  0.93277275  0.51678631  1  -0.060224  0  -0.067078  -0.024381  0  3.958951  0
C  C145  1  0.12622828  0.06722677  0.01678690  1  -0.060385  0  -0.06704  -0.024238  0  3.958934  0
C  C146  1  0.87377210  0.56722689  0.48321392  1  -0.060229  0  -0.067068  -0.024349  0  3.958928  0
C  C147  1  0.62622856  0.43277269  0.98321321  1  -0.060207  0  -0.067049  -0.024221  0  3.958862  0
C  C148  1  0.46121309  0.92819010  0.57400055  1  0.009356  0  -0.088178  -0.128953  0  3.971149  0
C  C149  1  0.03878714  0.07181013  0.07400112  1  0.009357  0  -0.08816  -0.128937  0  3.971201  0
C  C150  1  0.96121245  0.57181024  0.42599970  1  0.009309  0  -0.08818  -0.12895  0  3.971132  0
C  C151  1  0.53878661  0.42819003  0.92599897  1  0.009356  0  -0.088176  -0.128977  0  3.971194  0
C  C152  1  0.14135901  0.37436228  0.24651495  1  0.459354  0  0.052731  0.118341  0  3.93164  0
C  C153  1  0.35864126  0.62563798  0.74651499  1  0.459353  0  0.052733  0.118348  0  3.931641  0
C  C154  1  0.64135924  0.12563788  0.75348517  1  0.459367  0  0.052732  0.118348  0  3.931654  0
C  C155  1  0.85864135  0.87436237  0.25348524  1  0.459346  0  0.052738  0.118325  0  3.931608  0
N  N156  1  0.33447145  0.87322144  0.03229127  1  -1.27097  0  -0.395395  -0.349351  0  3.563944  0
N  N157  1  0.16552877  0.12677808  0.53229120  1  -1.27096  0  -0.395401  -0.349394  0  3.563994  0
N  N158  1  0.83447174  0.62677820  0.96770896  1  -1.270963  0  -0.395453  -0.349434  0  3.563901  0
N  N159  1  0.66552891  0.37322208  0.46770892  1  -1.270957  0  -0.395409  -0.349416  0  3.563901  0
N  N160  1  0.31307176  0.68562678  0.96067907  1  -1.259459  0  -0.385171  -0.340727  0  3.551039  0
N  N161  1  0.18692779  0.31437351  0.46067903  1  -1.259436  0  -0.385176  -0.340719  0  3.551107  0
N  N162  1  0.81307258  0.81437356  0.03932115  1  -1.259391  0  -0.385181  -0.340777  0  3.551113  0
N  N163  1  0.68692717  0.18562665  0.53932109  1  -1.259379  0  -0.385185  -0.340753  0  3.551069  0
N  N164  1  0.35205202  0.87516428  0.69705733  1  -1.257381  0  -0.39547  -0.343578  0  3.555577  0
N  N165  1  0.14794824  0.12483597  0.19705725  1  -1.257392  0  -0.395494  -0.343612  0  3.555603  0
N  N166  1  0.85205213  0.62483606  0.30294290  1  -1.257342  0  -0.395469  -0.343603  0  3.555583  0
N  N167  1  0.64794848  0.37516419  0.80294286  1  -1.257381  0  -0.395464  -0.343569  0  3.555588  0
N  N168  1  0.21597651  0.30983305  0.26596599  1  -1.249806  0  -0.378527  -0.336468  0  3.543749  0
N  N169  1  0.28402376  0.69016651  0.76596602  1  -1.249779  0  -0.378511  -0.336459  0  3.543738  0
N  N170  1  0.71597674  0.19016711  0.73403346  1  -1.249817  0  -0.378528  -0.336509  0  3.543825  0
N  N171  1  0.78402306  0.80983313  0.23403351  1  -1.249819  0  -0.378519  -0.336445  0  3.543819  0
Cl  Cl172  1  0.38915423  0.01257193  0.86659779  1  -0.727768  0  -0.386123  -0.63398  0  1.02514  0
Cl  Cl173  1  0.11084608  0.98742834  0.36659783  1  -0.727764  0  -0.38612  -0.633968  0  1.025154  0
Cl  Cl174  1  0.88915507  0.48742822  0.13340238  1  -0.727755  0  -0.386115  -0.633965  0  1.025153  0
Cl  Cl175  1  0.61084549  0.51257130  0.63340235  1  -0.727756  0  -0.386124  -0.633978  0  1.025153  0
Cl  Cl176  1  0.13206462  0.86317555  0.86146746  1  -0.725915  0  -0.355529  -0.608026  0  1.055754  0
Cl  Cl177  1  0.36793569  0.13682332  0.36146675  1  -0.725927  0  -0.355521  -0.60801  0  1.055759  0
Cl  Cl178  1  0.63206469  0.63682340  0.13853340  1  -0.725919  0  -0.355531  -0.608018  0  1.055758  0
Cl  Cl179  1  0.86793588  0.36317683  0.63853340  1  -0.725908  0  -0.355517  -0.608012  0  1.055757  0
Cl  Cl180  1  0.53151140  0.78212273  0.85885283  1  -0.717555  0  -0.36018  -0.599519  0  1.062838  0
Cl  Cl181  1  0.96848844  0.21787753  0.35885283  1  -0.717556  0  -0.360171  -0.599508  0  1.06285  0
Cl  Cl182  1  0.03151115  0.71787762  0.14114734  1  -0.717551  0  -0.360174  -0.59951  0  1.062843  0
Cl  Cl183  1  0.46848831  0.28212262  0.64114735  1  -0.717556  0  -0.360168  -0.599508  0  1.062838  0
