# generated using pymatgen
data_ZnH8C8S4(N3O2)2
_symmetry_space_group_name_H-M   'P 1'
_cell_length_a   8.23722247
_cell_length_b   8.86015239
_cell_length_c   12.30594710
_cell_angle_alpha   86.39071061
_cell_angle_beta   69.51235872
_cell_angle_gamma   66.80714123
_symmetry_Int_Tables_number   1
_chemical_formula_structural   ZnH8C8S4(N3O2)2
_chemical_formula_sum   'Zn2 H16 C16 S8 N12 O8'
_cell_volume   770.39497331
_cell_formula_units_Z   2
loop_
 _symmetry_equiv_pos_site_id
 _symmetry_equiv_pos_as_xyz
  1  'x, y, z'
loop_
 _atom_site_type_symbol
 _atom_site_label
 _atom_site_symmetry_multiplicity
 _atom_site_fract_x
 _atom_site_fract_y
 _atom_site_fract_z
 _atom_site_occupancy
 _atom_site_hle17_bader_spin_density
 _atom_site_hle17_ddec_charge
 _atom_site_hle17_ddec_spin_density
 _atom_site_hle17_ddec_sum_bond_order
 _atom_site_hle17_magmom
 _atom_site_hse06_10hf_bader_spin_density
 _atom_site_hse06_10hf_ddec_charge
 _atom_site_hse06_10hf_ddec_spin_density
 _atom_site_hse06_10hf_ddec_sum_bond_order
 _atom_site_hse06_10hf_magmom
 _atom_site_hse06_bader_spin_density
 _atom_site_hse06_ddec_charge
 _atom_site_hse06_ddec_spin_density
 _atom_site_hse06_ddec_sum_bond_order
 _atom_site_hse06_magmom
 _atom_site_pbe_bader_spin_density
 _atom_site_pbe_cm5_charge
 _atom_site_pbe_ddec_charge
 _atom_site_pbe_ddec_spin_density
 _atom_site_pbe_ddec_sum_bond_order
 _atom_site_pbe_magmom
Zn  Zn0  1  0.10298883  0.19918074  0.21680061  1  0  1.032731  0  1.826352  0  0  0.832917  0  2.313039  0  0  0.88002  0  2.25639  0  0  0.709669  0.800173  0  2.351853  0
Zn  Zn1  1  0.89701247  0.80081826  0.78319906  1  0  1.03273  0  1.826348  0  0  0.832896  0  2.313035  0  0  0.880003  0  2.256391  0  0  0.709645  0.800157  0  2.351835  0
H  H2  1  0.67101310  0.06438374  0.52169146  1  0  0.140181  0  0.933357  0  0  0.153176  0  0.993412  0  0  0.156223  0  0.991863  0  0  0.108353  0.151016  0  0.994569  0
H  H3  1  0.32898509  0.93561648  0.47830723  1  0  0.140156  0  0.933363  0  0  0.153161  0  0.993418  0  0  0.156209  0  0.991869  0  0  0.108352  0.151001  0  0.994583  0
H  H4  1  0.89793696  0.92697200  0.51180132  1  0  0.140836  0  0.962986  0  0  0.148233  0  1.029854  0  0  0.151637  0  1.027994  0  0  0.101827  0.145734  0  1.031371  0
H  H5  1  0.10206135  0.07303070  0.48819968  1  0  0.140835  0  0.963008  0  0  0.148232  0  1.029874  0  0  0.151635  0  1.028015  0  0  0.101824  0.145737  0  1.031387  0
H  H6  1  0.49362028  0.68352970  0.24768137  1  0  0.117397  0  0.935891  0  0  0.128352  0  0.99946  0  0  0.130667  0  0.997761  0  0  0.099727  0.126717  0  1.000786  0
H  H7  1  0.50638230  0.31646930  0.75231883  1  0  0.11739  0  0.935911  0  0  0.128362  0  0.999465  0  0  0.130682  0  0.997765  0  0  0.099732  0.126728  0  1.000792  0
H  H8  1  0.69377349  0.72624100  0.17387910  1  0  0.1372  0  0.947418  0  0  0.144179  0  1.014906  0  0  0.146358  0  1.014655  0  0  0.107986  0.142661  0  1.015177  0
H  H9  1  0.30622910  0.27375800  0.82612028  1  0  0.137245  0  0.947392  0  0  0.144208  0  1.01491  0  0  0.146391  0  1.014662  0  0  0.108005  0.142689  0  1.015181  0
H  H10  1  0.45584924  0.20285170  0.25387495  1  0  0.351309  0  0.913818  0  0  0.333242  0  0.978094  0  0  0.341987  0  0.970485  0  0  0.299338  0.327089  0  0.983424  0
H  H11  1  0.54414761  0.79714854  0.74612567  1  0  0.351291  0  0.913843  0  0  0.333218  0  0.978128  0  0  0.341962  0  0.970522  0  0  0.299321  0.327066  0  0.98346  0
H  H12  1  0.52661598  0.35643905  0.27583789  1  0  0.342867  0  0.857447  0  0  0.334398  0  0.905503  0  0  0.340362  0  0.901285  0  0  0.317035  0.330164  0  0.908561  0
H  H13  1  0.47338349  0.64356117  0.72416133  1  0  0.342981  0  0.857351  0  0  0.334498  0  0.905429  0  0  0.340462  0  0.901209  0  0  0.317075  0.330266  0  0.908493  0
H  H14  1  0.25133667  0.99369593  0.99815792  1  0  0.353923  0  0.891985  0  0  0.334236  0  0.956614  0  0  0.342409  0  0.949487  0  0  0.306306  0.328438  0  0.961733  0
H  H15  1  0.74866387  0.00630185  0.00184280  1  0  0.353924  0  0.891995  0  0  0.33424  0  0.956613  0  0  0.342414  0  0.949485  0  0  0.306331  0.328443  0  0.961724  0
H  H16  1  0.19336964  0.00878859  0.86891659  1  0  0.369735  0  0.89437  0  0  0.350279  0  0.955413  0  0  0.358554  0  0.948192  0  0  0.307648  0.344436  0  0.960558  0
H  H17  1  0.80663092  0.99120918  0.13108331  1  0  0.369721  0  0.894381  0  0  0.350261  0  0.955434  0  0  0.358537  0  0.94821  0  0  0.307644  0.344419  0  0.960576  0
C  C18  1  0.24763463  0.42913801  0.29923974  1  0  0.385407  0  3.866042  0  0  0.344014  0  4.176755  0  0  0.365353  0  4.188385  0  0  0.232696  0.329823  0  4.168427  0
C  C19  1  0.75236425  0.57086345  0.70076037  1  0  0.385566  0  3.865983  0  0  0.34414  0  4.176721  0  0  0.36548  0  4.188349  0  0  0.23272  0.329941  0  4.168406  0
C  C20  1  0.93207370  0.64199706  0.38296677  1  0  0.063984  0  3.823519  0  0  0.059004  0  4.14428  0  0  0.068264  0  4.159064  0  0  0.111875  0.052622  0  4.134192  0
C  C21  1  0.06792446  0.35800316  0.61703274  1  0  0.064005  0  3.823549  0  0  0.059023  0  4.144312  0  0  0.068284  0  4.159096  0  0  0.111888  0.052643  0  4.134217  0
C  C22  1  0.79902849  0.96519886  0.46426541  1  0  -0.327291  0  3.639006  0  0  -0.355823  0  3.889404  0  0  -0.361763  0  3.894977  0  0  -0.159257  -0.351771  0  3.885588  0
C  C23  1  0.20096853  0.03480384  0.53573506  1  0  -0.327252  0  3.638946  0  0  -0.355821  0  3.889403  0  0  -0.361764  0  3.894982  0  0  -0.159249  -0.351775  0  3.885592  0
C  C24  1  0.87841898  0.03280272  0.34942277  1  0  0.698458  0  3.891048  0  0  0.650584  0  4.188916  0  0  0.683335  0  4.183062  0  0  0.196067  0.628324  0  4.192048  0
C  C25  1  0.12157915  0.96719751  0.65057837  1  0  0.698466  0  3.891001  0  0  0.650597  0  4.188855  0  0  0.683346  0  4.183002  0  0  0.196072  0.62834  0  4.191984  0
C  C26  1  0.03135130  0.20163256  0.99209237  1  0  0.415615  0  3.820269  0  0  0.378675  0  4.112426  0  0  0.400958  0  4.12336  0  0  0.243415  0.363797  0  4.104666  0
C  C27  1  0.96864814  0.79836767  0.00790766  1  0  0.415515  0  3.820454  0  0  0.378574  0  4.112621  0  0  0.400857  0  4.123556  0  0  0.243351  0.363688  0  4.104872  0
C  C28  1  0.76610187  0.46507976  0.03710480  1  0  0.058216  0  3.816286  0  0  0.056654  0  4.12912  0  0  0.066194  0  4.143416  0  0  0.104792  0.0502  0  4.119219  0
C  C29  1  0.23389945  0.53491923  0.96289406  1  0  0.058217  0  3.816309  0  0  0.056634  0  4.129162  0  0  0.066176  0  4.143457  0  0  0.104794  0.050176  0  4.119268  0
C  C30  1  0.55448111  0.74485338  0.17360506  1  0  -0.296024  0  3.640023  0  0  -0.324546  0  3.890349  0  0  -0.329248  0  3.896706  0  0  -0.149939  -0.321536  0  3.88618  0
C  C31  1  0.44552146  0.25514562  0.82639514  1  0  -0.2961  0  3.640075  0  0  -0.324642  0  3.89042  0  0  -0.329367  0  3.89681  0  0  -0.149985  -0.321638  0  3.886257  0
C  C32  1  0.42772816  0.92690358  0.19393215  1  0  0.711101  0  3.860508  0  0  0.661062  0  4.157675  0  0  0.694535  0  4.15061  0  0  0.207436  0.638359  0  4.161679  0
C  C33  1  0.57227182  0.07309542  0.80606864  1  0  0.711177  0  3.860429  0  0  0.661154  0  4.157577  0  0  0.694634  0  4.150513  0  0  0.207469  0.638457  0  4.161573  0
S  S34  1  0.15865428  0.62213388  0.37324503  1  0  0.078547  0  2.364151  0  0  0.086413  0  2.671623  0  0  0.086813  0  2.669039  0  0  0.11429  0.085391  0  2.673787  0
S  S35  1  0.84134516  0.37786635  0.62675501  1  0  0.078534  0  2.364129  0  0  0.08641  0  2.671613  0  0  0.08681  0  2.669028  0  0  0.114309  0.085394  0  2.673776  0
S  S36  1  0.72133314  0.80486209  0.45537107  1  0  0.113836  0  2.450632  0  0  0.104754  0  2.790541  0  0  0.101601  0  2.789062  0  0  0.045828  0.106995  0  2.791607  0
S  S37  1  0.27866628  0.19513815  0.54462979  1  0  0.113836  0  2.450654  0  0  0.104759  0  2.790575  0  0  0.101607  0  2.789097  0  0  0.045821  0.107002  0  2.791637  0
S  S38  1  0.88287358  0.31625894  0.91791976  1  0  0.084803  0  2.45667  0  0  0.078541  0  2.796665  0  0  0.078828  0  2.795657  0  0  0.112833  0.077673  0  2.797737  0
S  S39  1  0.11712774  0.68374005  0.08207910  1  0  0.08481  0  2.456671  0  0  0.078561  0  2.796665  0  0  0.078846  0  2.79566  0  0  0.112849  0.077696  0  2.797746  0
S  S40  1  0.58001595  0.64965649  0.03885097  1  0  0.057228  0  2.467862  0  0  0.044111  0  2.827191  0  0  0.040013  0  2.827895  0  0  0.024729  0.046931  0  2.827097  0
S  S41  1  0.41998478  0.35034373  0.96114878  1  0  0.057232  0  2.467895  0  0  0.044129  0  2.827236  0  0  0.040039  0  2.827949  0  0  0.024732  0.046953  0  2.827146  0
N  N42  1  0.11100286  0.39343946  0.28814446  1  0  -0.357352  0  3.270363  0  0  -0.28143  0  3.585383  0  0  -0.302031  0  3.596  0  0  -0.26206  -0.267694  0  3.578042  0
N  N43  1  0.88899345  0.60656200  0.71185541  1  0  -0.357454  0  3.270405  0  0  -0.28149  0  3.585402  0  0  -0.302098  0  3.596029  0  0  -0.262064  -0.267754  0  3.578066  0
N  N44  1  0.93328411  0.51390030  0.33575474  1  0  -0.21159  0  3.094823  0  0  -0.208918  0  3.389335  0  0  -0.214678  0  3.404001  0  0  -0.234453  -0.204635  0  3.379155  0
N  N45  1  0.06671534  0.48609993  0.66424530  1  0  -0.211583  0  3.094792  0  0  -0.208924  0  3.389299  0  0  -0.214682  0  3.403965  0  0  -0.234452  -0.204639  0  3.379117  0
N  N46  1  0.43172382  0.32675549  0.25716695  1  0  -0.662053  0  3.112444  0  0  -0.633233  0  3.353905  0  0  -0.653552  0  3.351813  0  0  -0.572457  -0.619181  0  3.355014  0
N  N47  1  0.56827491  0.67324350  0.74283250  1  0  -0.662221  0  3.112371  0  0  -0.633387  0  3.353861  0  0  -0.653704  0  3.351768  0  0  -0.572495  -0.61933  0  3.354977  0
N  N48  1  0.98434713  0.27699498  0.09582888  1  0  -0.378811  0  3.271218  0  0  -0.304622  0  3.587928  0  0  -0.325607  0  3.596693  0  0  -0.275207  -0.290554  0  3.581755  0
N  N49  1  0.01565289  0.72300401  0.90417027  1  0  -0.378799  0  3.271227  0  0  -0.304633  0  3.587965  0  0  -0.325619  0  3.596733  0  0  -0.2752  -0.290557  0  3.58179  0
N  N50  1  0.83291053  0.42620019  0.12141765  1  0  -0.206282  0  3.08168  0  0  -0.196159  0  3.369124  0  0  -0.201988  0  3.384333  0  0  -0.234986  -0.191929  0  3.358594  0
N  N51  1  0.16709135  0.57379757  0.87858114  1  0  -0.206269  0  3.081643  0  0  -0.196112  0  3.36906  0  0  -0.201941  0  3.384268  0  0  -0.234986  -0.191885  0  3.358538  0
N  N52  1  0.17450204  0.05693494  0.94807264  1  0  -0.654511  0  3.122048  0  0  -0.613804  0  3.356621  0  0  -0.63506  0  3.353695  0  0  -0.569678  -0.599235  0  3.358499  0
N  N53  1  0.82549926  0.94306405  0.05192704  1  0  -0.65443  0  3.122173  0  0  -0.613704  0  3.356721  0  0  -0.634958  0  3.353796  0  0  -0.569663  -0.599135  0  3.358593  0
O  O54  1  0.95846569  0.12736058  0.36093700  1  0  -0.647315  0  2.04574  0  0  -0.568163  0  2.313107  0  0  -0.598081  0  2.299221  0  0  -0.332089  -0.547156  0  2.321822  0
O  O55  1  0.04153322  0.87264088  0.63906229  1  0  -0.647353  0  2.04575  0  0  -0.568169  0  2.313081  0  0  -0.598088  0  2.299195  0  0  -0.332106  -0.547163  0  2.321795  0
O  O56  1  0.86418111  0.99853195  0.25737687  1  0  -0.633725  0  1.992924  0  0  -0.586139  0  2.227321  0  0  -0.609248  0  2.219332  0  0  -0.323739  -0.56997  0  2.232352  0
O  O57  1  0.13581963  0.00146828  0.74262288  1  0  -0.633731  0  1.992919  0  0  -0.586138  0  2.227291  0  0  -0.609247  0  2.219301  0  0  -0.323744  -0.569976  0  2.232332  0
O  O58  1  0.31597162  0.98490927  0.13535066  1  0  -0.664007  0  2.056946  0  0  -0.584468  0  2.326618  0  0  -0.612833  0  2.310971  0  0  -0.328801  -0.564591  0  2.336692  0
O  O59  1  0.68402834  0.01508974  0.86465094  1  0  -0.664051  0  2.056934  0  0  -0.584518  0  2.3266  0  0  -0.612883  0  2.310951  0  0  -0.328814  -0.564641  0  2.336665  0
O  O60  1  0.43260545  0.00997636  0.27026901  1  0  -0.614402  0  1.978104  0  0  -0.565517  0  2.212109  0  0  -0.590022  0  2.2045  0  0  -0.309177  -0.548292  0  2.216606  0
O  O61  1  0.56739638  0.99002141  0.72973142  1  0  -0.614396  0  1.978057  0  0  -0.56552  0  2.212054  0  0  -0.590024  0  2.204444  0  0  -0.309183  -0.5483  0  2.216552  0
