# generated using pymatgen
data_CuH4C3IN
_symmetry_space_group_name_H-M   'P 1'
_cell_length_a   4.27606424
_cell_length_b   12.68484957
_cell_length_c   17.68276383
_cell_angle_alpha   90.00012479
_cell_angle_beta   89.99974689
_cell_angle_gamma   91.16569837
_symmetry_Int_Tables_number   1
_chemical_formula_structural   CuH4C3IN
_chemical_formula_sum   'Cu8 H32 C24 I8 N8'
_cell_volume   958.93638721
_cell_formula_units_Z   8
loop_
 _symmetry_equiv_pos_site_id
 _symmetry_equiv_pos_as_xyz
  1  'x, y, z'
loop_
 _atom_site_type_symbol
 _atom_site_label
 _atom_site_symmetry_multiplicity
 _atom_site_fract_x
 _atom_site_fract_y
 _atom_site_fract_z
 _atom_site_occupancy
 _atom_site_hle17_bader_spin_density
 _atom_site_hle17_ddec_charge
 _atom_site_hle17_ddec_spin_density
 _atom_site_hle17_ddec_sum_bond_order
 _atom_site_hle17_magmom
 _atom_site_hse06_10hf_bader_spin_density
 _atom_site_hse06_10hf_ddec_charge
 _atom_site_hse06_10hf_ddec_spin_density
 _atom_site_hse06_10hf_ddec_sum_bond_order
 _atom_site_hse06_10hf_magmom
 _atom_site_hse06_bader_spin_density
 _atom_site_hse06_ddec_charge
 _atom_site_hse06_ddec_spin_density
 _atom_site_hse06_ddec_sum_bond_order
 _atom_site_hse06_magmom
 _atom_site_pbe_bader_spin_density
 _atom_site_pbe_cm5_charge
 _atom_site_pbe_ddec_charge
 _atom_site_pbe_ddec_spin_density
 _atom_site_pbe_ddec_sum_bond_order
 _atom_site_pbe_magmom
Cu  Cu0  1  0.85221161  0.29286509  0.55815120  1  0  0.271485  0  2.105403  0  0  0.194786  0  2.559666  0  0  0.205142  0  2.509443  0  0  0.264746  0.189789  0  2.592963  0
Cu  Cu1  1  0.64778945  0.20713533  0.05815079  1  0  0.271447  0  2.105438  0  0  0.194728  0  2.559702  0  0  0.205096  0  2.509484  0  0  0.264748  0.18973  0  2.592998  0
Cu  Cu2  1  0.14777985  0.70713263  0.44184879  1  0  0.271463  0  2.105416  0  0  0.194794  0  2.559676  0  0  0.205155  0  2.509441  0  0  0.264786  0.189793  0  2.592969  0
Cu  Cu3  1  0.35221402  0.79286549  0.94184977  1  0  0.27149  0  2.105448  0  0  0.194778  0  2.559712  0  0  0.205162  0  2.509486  0  0  0.264754  0.189767  0  2.592998  0
Cu  Cu4  1  0.52710581  0.23387077  0.67525180  1  0  0.26542  0  2.116756  0  0  0.189486  0  2.56666  0  0  0.199461  0  2.51707  0  0  0.266931  0.184719  0  2.599483  0
Cu  Cu5  1  0.97289787  0.26613077  0.17525226  1  0  0.265382  0  2.116752  0  0  0.189437  0  2.566679  0  0  0.199413  0  2.517095  0  0  0.266925  0.184668  0  2.599503  0
Cu  Cu6  1  0.47289742  0.76612768  0.32475102  1  0  0.265428  0  2.116794  0  0  0.189483  0  2.566735  0  0  0.199437  0  2.517144  0  0  0.266916  0.18471  0  2.599556  0
Cu  Cu7  1  0.02710350  0.73387243  0.82474773  1  0  0.26537  0  2.116692  0  0  0.18948  0  2.566611  0  0  0.199426  0  2.517019  0  0  0.266936  0.184705  0  2.599425  0
H  H8  1  0.24790505  0.39617184  0.29800278  1  0  0.086096  0  0.961618  0  0  0.092241  0  1.033295  0  0  0.095402  0  1.031217  0  0  0.103354  0.089787  0  1.035121  0
H  H9  1  0.25210213  0.10383298  0.79800359  1  0  0.086108  0  0.96161  0  0  0.092235  0  1.033313  0  0  0.095391  0  1.031247  0  0  0.103377  0.089815  0  1.035079  0
H  H10  1  0.75208463  0.60383141  0.70199721  1  0  0.086084  0  0.961703  0  0  0.092258  0  1.033323  0  0  0.095419  0  1.031246  0  0  0.103385  0.089804  0  1.035145  0
H  H11  1  0.74790578  0.89616545  0.20200093  1  0  0.0861  0  0.961583  0  0  0.092239  0  1.033272  0  0  0.095399  0  1.031201  0  0  0.103344  0.08981  0  1.035065  0
H  H12  1  0.18812422  0.40882602  0.43860867  1  0  0.081784  0  0.990391  0  0  0.085951  0  1.065234  0  0  0.089291  0  1.062833  0  0  0.091312  0.083389  0  1.067225  0
H  H13  1  0.31188233  0.09117529  0.93860826  1  0  0.081791  0  0.990468  0  0  0.085957  0  1.065301  0  0  0.0893  0  1.062891  0  0  0.091322  0.083388  0  1.067307  0
H  H14  1  0.81187207  0.59117326  0.56139132  1  0  0.081813  0  0.990411  0  0  0.085991  0  1.065249  0  0  0.08933  0  1.062851  0  0  0.091356  0.083432  0  1.06723  0
H  H15  1  0.68812364  0.90882709  0.06139682  1  0  0.081834  0  0.99037  0  0  0.085976  0  1.065241  0  0  0.089321  0  1.062841  0  0  0.091311  0.083416  0  1.067224  0
H  H16  1  0.65692376  0.04985534  0.45671449  1  0  0.126027  0  0.954014  0  0  0.148877  0  1.013662  0  0  0.150368  0  1.014257  0  0  0.087613  0.147512  0  1.01354  0
H  H17  1  0.84307188  0.45014157  0.95671401  1  0  0.126051  0  0.954026  0  0  0.148903  0  1.013672  0  0  0.150393  0  1.01427  0  0  0.087627  0.14754  0  1.013549  0
H  H18  1  0.34306544  0.95014318  0.54328267  1  0  0.126033  0  0.953947  0  0  0.148891  0  1.013597  0  0  0.150382  0  1.01419  0  0  0.087621  0.147527  0  1.013474  0
H  H19  1  0.15693118  0.54985531  0.04328371  1  0  0.126043  0  0.954032  0  0  0.148918  0  1.013647  0  0  0.150407  0  1.014245  0  0  0.087635  0.147562  0  1.013517  0
H  H20  1  0.31382499  0.10480861  0.41964754  1  0  0.118577  0  0.964758  0  0  0.138236  0  1.02712  0  0  0.139153  0  1.02883  0  0  0.087012  0.137493  0  1.025979  0
H  H21  1  0.18617988  0.39519581  0.91965224  1  0  0.118595  0  0.96472  0  0  0.138238  0  1.027113  0  0  0.139154  0  1.028823  0  0  0.087013  0.137495  0  1.025971  0
H  H22  1  0.68617388  0.89519302  0.58034736  1  0  0.118662  0  0.96461  0  0  0.138299  0  1.02701  0  0  0.139217  0  1.028719  0  0  0.087041  0.137556  0  1.025868  0
H  H23  1  0.81382375  0.60480659  0.08035284  1  0  0.118594  0  0.964734  0  0  0.138259  0  1.027092  0  0  0.139175  0  1.0288  0  0  0.087011  0.137515  0  1.025953  0
H  H24  1  0.47803682  0.15581045  0.50526873  1  0  0.1056  0  1.011557  0  0  0.117174  0  1.093208  0  0  0.12166  0  1.087985  0  0  0.071913  0.113554  0  1.097295  0
H  H25  1  0.02195683  0.34419199  0.00526921  1  0  0.105597  0  1.011627  0  0  0.117184  0  1.09326  0  0  0.121671  0  1.088036  0  0  0.071916  0.113563  0  1.09735  0
H  H26  1  0.52195238  0.84418807  0.49472787  1  0  0.10558  0  1.011724  0  0  0.117172  0  1.093357  0  0  0.121654  0  1.088141  0  0  0.071925  0.113549  0  1.097447  0
H  H27  1  0.97804703  0.65581277  0.99473191  1  0  0.105632  0  1.011593  0  0  0.117215  0  1.093239  0  0  0.1217  0  1.088016  0  0  0.071941  0.113592  0  1.09733  0
H  H28  1  0.42331710  0.14667610  0.24613844  1  0  0.112061  0  0.997389  0  0  0.126617  0  1.07523  0  0  0.129619  0  1.07248  0  0  0.077112  0.124248  0  1.07722  0
H  H29  1  0.07668166  0.35332861  0.74613980  1  0  0.112083  0  0.99738  0  0  0.12662  0  1.075234  0  0  0.129625  0  1.072473  0  0  0.077083  0.124247  0  1.077229  0
H  H30  1  0.57667951  0.85332633  0.75385872  1  0  0.112075  0  0.997398  0  0  0.126621  0  1.075226  0  0  0.129623  0  1.072476  0  0  0.077105  0.124248  0  1.077224  0
H  H31  1  0.92332438  0.64667456  0.25386132  1  0  0.112115  0  0.997367  0  0  0.126659  0  1.075204  0  0  0.12966  0  1.072457  0  0  0.077104  0.124287  0  1.077201  0
H  H32  1  0.49716319  0.04805312  0.31518240  1  0  0.118603  0  0.985139  0  0  0.137596  0  1.048072  0  0  0.139464  0  1.048565  0  0  0.078291  0.136081  0  1.047936  0
H  H33  1  0.00283884  0.45195020  0.81518342  1  0  0.11862  0  0.985119  0  0  0.137596  0  1.048052  0  0  0.139463  0  1.048549  0  0  0.078277  0.136082  0  1.047916  0
H  H34  1  0.50283101  0.95194853  0.68481363  1  0  0.118583  0  0.98516  0  0  0.137567  0  1.048106  0  0  0.139434  0  1.0486  0  0  0.078279  0.136052  0  1.047971  0
H  H35  1  0.99715714  0.54804592  0.18481714  1  0  0.118606  0  0.98516  0  0  0.137619  0  1.048048  0  0  0.139487  0  1.048541  0  0  0.078282  0.136104  0  1.047914  0
H  H36  1  0.77132871  0.07574898  0.24135276  1  0  0.11537  0  0.982923  0  0  0.134173  0  1.051016  0  0  0.136531  0  1.049717  0  0  0.077993  0.132229  0  1.052158  0
H  H37  1  0.72867384  0.42425356  0.74135406  1  0  0.115356  0  0.982984  0  0  0.134174  0  1.051043  0  0  0.136532  0  1.049744  0  0  0.078005  0.132233  0  1.052178  0
H  H38  1  0.22867040  0.92425502  0.75864441  1  0  0.115354  0  0.98298  0  0  0.134177  0  1.051032  0  0  0.136537  0  1.049729  0  0  0.078012  0.132232  0  1.052175  0
H  H39  1  0.27132922  0.57574332  0.25864763  1  0  0.11536  0  0.9829  0  0  0.134206  0  1.050925  0  0  0.136565  0  1.049623  0  0  0.078016  0.132264  0  1.052067  0
C  C40  1  0.73244428  0.20111123  0.40608730  1  0  0.213297  0  3.642459  0  0  0.218471  0  3.882722  0  0  0.223638  0  3.901027  0  0  0.119708  0.214488  0  3.871154  0
C  C41  1  0.76755689  0.29888471  0.90608724  1  0  0.213269  0  3.642629  0  0  0.218362  0  3.882899  0  0  0.22354  0  3.901212  0  0  0.11964  0.214378  0  3.871327  0
C  C42  1  0.26755428  0.79888725  0.59391043  1  0  0.21325  0  3.642579  0  0  0.218544  0  3.882709  0  0  0.223697  0  3.901012  0  0  0.119755  0.214561  0  3.871137  0
C  C43  1  0.23244376  0.70111139  0.09391445  1  0  0.213321  0  3.642488  0  0  0.218524  0  3.882634  0  0  0.223704  0  3.900949  0  0  0.119695  0.214531  0  3.871062  0
C  C44  1  0.76883514  0.19333269  0.32692714  1  0  0.220007  0  3.633287  0  0  0.225856  0  3.872259  0  0  0.231079  0  3.89034  0  0  0.11965  0.221693  0  3.86089  0
C  C45  1  0.73117310  0.30667244  0.82693165  1  0  0.219996  0  3.633461  0  0  0.22595  0  3.872269  0  0  0.231173  0  3.890346  0  0  0.119738  0.221784  0  3.860902  0
C  C46  1  0.23116622  0.80667051  0.67307059  1  0  0.219873  0  3.633429  0  0  0.225721  0  3.872395  0  0  0.230941  0  3.890481  0  0  0.119651  0.221559  0  3.861021  0
C  C47  1  0.26883207  0.69332206  0.17307003  1  0  0.220017  0  3.633601  0  0  0.225919  0  3.872436  0  0  0.231138  0  3.890516  0  0  0.119735  0.221753  0  3.861068  0
C  C48  1  0.09925326  0.34017621  0.32896178  1  0  0.072121  0  3.679342  0  0  0.035288  0  3.945181  0  0  0.039036  0  3.958563  0  0  0.031141  0.032209  0  3.937521  0
C  C49  1  0.40075109  0.15982952  0.82896138  1  0  0.072136  0  3.679034  0  0  0.035349  0  3.944797  0  0  0.039096  0  3.95817  0  0  0.031199  0.032263  0  3.937129  0
C  C50  1  0.90073875  0.65982703  0.67103877  1  0  0.071999  0  3.679378  0  0  0.035264  0  3.945161  0  0  0.03901  0  3.958542  0  0  0.031135  0.032187  0  3.937493  0
C  C51  1  0.59924529  0.84017055  0.17103974  1  0  0.072181  0  3.678863  0  0  0.035368  0  3.944696  0  0  0.039112  0  3.958071  0  0  0.031221  0.032274  0  3.937013  0
C  C52  1  0.06564146  0.34726512  0.40653904  1  0  0.073343  0  3.691269  0  0  0.039142  0  3.953426  0  0  0.043538  0  3.96674  0  0  0.025526  0.035598  0  3.945893  0
C  C53  1  0.43436527  0.15273215  0.90653916  1  0  0.073411  0  3.691049  0  0  0.039177  0  3.953193  0  0  0.043592  0  3.966512  0  0  0.025507  0.035627  0  3.945663  0
C  C54  1  0.93435475  0.65273337  0.59346208  1  0  0.073305  0  3.691186  0  0  0.039043  0  3.953405  0  0  0.043427  0  3.966711  0  0  0.025455  0.0355  0  3.945872  0
C  C55  1  0.56563562  0.84726631  0.09346252  1  0  0.073321  0  3.691218  0  0  0.039093  0  3.95337  0  0  0.043497  0  3.966701  0  0  0.025518  0.035539  0  3.945834  0
C  C56  1  0.53281835  0.12436585  0.44913209  1  0  -0.365957  0  3.712035  0  0  -0.447501  0  3.946031  0  0  -0.45194  0  3.953587  0  0  -0.254036  -0.443899  0  3.941337  0
C  C57  1  0.96718711  0.37563414  0.94913420  1  0  -0.366015  0  3.712064  0  0  -0.447554  0  3.946039  0  0  -0.45199  0  3.953589  0  0  -0.254071  -0.443953  0  3.941346  0
C  C58  1  0.46717795  0.87563343  0.55086394  1  0  -0.366005  0  3.711989  0  0  -0.447615  0  3.945965  0  0  -0.452054  0  3.953529  0  0  -0.254091  -0.444012  0  3.941273  0
C  C59  1  0.03281355  0.62436196  0.05086523  1  0  -0.366009  0  3.712022  0  0  -0.447642  0  3.946022  0  0  -0.452074  0  3.953569  0  0  -0.254104  -0.444045  0  3.941325  0
C  C60  1  0.60572784  0.11072179  0.28115830  1  0  -0.373794  0  3.718107  0  0  -0.45462  0  3.949866  0  0  -0.459028  0  3.956358  0  0  -0.261726  -0.451043  0  3.945825  0
C  C61  1  0.89427165  0.38928088  0.78115881  1  0  -0.373786  0  3.718267  0  0  -0.454599  0  3.949913  0  0  -0.459008  0  3.956413  0  0  -0.261703  -0.451019  0  3.945868  0
C  C62  1  0.39427111  0.88928063  0.71884000  1  0  -0.373742  0  3.718304  0  0  -0.45453  0  3.950013  0  0  -0.458938  0  3.956505  0  0  -0.261734  -0.450955  0  3.94597  0
C  C63  1  0.10572900  0.61071522  0.21884118  1  0  -0.373865  0  3.71825  0  0  -0.45473  0  3.949971  0  0  -0.459142  0  3.956467  0  0  -0.261753  -0.451155  0  3.945929  0
I  I64  1  0.00503694  0.12010783  0.63474023  1  0  -0.34937  0  1.73837  0  0  -0.287603  0  2.183184  0  0  -0.304668  0  2.143241  0  0  -0.142891  -0.275278  0  2.210511  0
I  I65  1  0.49496814  0.37989258  0.13474196  1  0  -0.349299  0  1.738313  0  0  -0.287545  0  2.183158  0  0  -0.304612  0  2.143218  0  0  -0.142861  -0.275202  0  2.210466  0
I  I66  1  0.99496177  0.87989223  0.36525976  1  0  -0.349347  0  1.738375  0  0  -0.287562  0  2.183168  0  0  -0.30462  0  2.143221  0  0  -0.142876  -0.275223  0  2.210479  0
I  I67  1  0.50504250  0.62010979  0.86525916  1  0  -0.349343  0  1.738334  0  0  -0.287593  0  2.183164  0  0  -0.304648  0  2.143215  0  0  -0.142892  -0.275267  0  2.2105  0
I  I68  1  0.37958939  0.40673423  0.59921921  1  0  -0.35764  0  1.773408  0  0  -0.29948  0  2.230824  0  0  -0.317263  0  2.189878  0  0  -0.147271  -0.286765  0  2.259024  0
I  I69  1  0.12040933  0.09326610  0.09921866  1  0  -0.357632  0  1.773421  0  0  -0.29946  0  2.230833  0  0  -0.317241  0  2.189883  0  0  -0.147271  -0.286744  0  2.259039  0
I  I70  1  0.62040449  0.59326427  0.40078191  1  0  -0.357631  0  1.773422  0  0  -0.299482  0  2.230835  0  0  -0.317265  0  2.18989  0  0  -0.147264  -0.286761  0  2.259033  0
I  I71  1  0.87959656  0.90673550  0.90078303  1  0  -0.357643  0  1.773387  0  0  -0.299487  0  2.230796  0  0  -0.317271  0  2.189848  0  0  -0.147276  -0.286764  0  2.258991  0
N  N72  1  0.88431264  0.27808363  0.44566536  1  0  -0.263923  0  3.30836  0  0  -0.19598  0  3.588404  0  0  -0.203975  0  3.595296  0  0  -0.347977  -0.191538  0  3.584333  0
N  N73  1  0.61570472  0.22191787  0.94566705  1  0  -0.263952  0  3.308294  0  0  -0.195946  0  3.588281  0  0  -0.203985  0  3.595216  0  0  -0.347974  -0.1915  0  3.584204  0
N  N74  1  0.11568365  0.72191564  0.55433350  1  0  -0.263781  0  3.308222  0  0  -0.195895  0  3.588279  0  0  -0.203854  0  3.595141  0  0  -0.348003  -0.191455  0  3.584207  0
N  N75  1  0.38430358  0.77808451  0.05433633  1  0  -0.263952  0  3.308292  0  0  -0.195941  0  3.588194  0  0  -0.203985  0  3.59514  0  0  -0.347967  -0.191469  0  3.584092  0
N  N76  1  0.95260761  0.26362951  0.28863443  1  0  -0.269097  0  3.317001  0  0  -0.198708  0  3.592249  0  0  -0.206507  0  3.599641  0  0  -0.348406  -0.194273  0  3.587758  0
N  N77  1  0.54739681  0.23637710  0.78863395  1  0  -0.269178  0  3.316795  0  0  -0.198827  0  3.592024  0  0  -0.206619  0  3.599397  0  0  -0.348489  -0.1944  0  3.587545  0
N  N78  1  0.04738449  0.73637452  0.71136386  1  0  -0.268914  0  3.316869  0  0  -0.198691  0  3.592265  0  0  -0.206479  0  3.599634  0  0  -0.348436  -0.194251  0  3.587762  0
N  N79  1  0.45259690  0.76361982  0.21136773  1  0  -0.269244  0  3.316708  0  0  -0.198892  0  3.591957  0  0  -0.206671  0  3.599315  0  0  -0.348531  -0.19446  0  3.587474  0
