# generated using pymatgen
data_ZnH16C19N4O5
_symmetry_space_group_name_H-M   'P 1'
_cell_length_a   5.69103989
_cell_length_b   9.97291003
_cell_length_c   15.85049591
_cell_angle_alpha   98.44896293
_cell_angle_beta   100.03594292
_cell_angle_gamma   102.82119692
_symmetry_Int_Tables_number   1
_chemical_formula_structural   ZnH16C19N4O5
_chemical_formula_sum   'Zn2 H32 C38 N8 O10'
_cell_volume   847.47108263
_cell_formula_units_Z   2
loop_
 _symmetry_equiv_pos_site_id
 _symmetry_equiv_pos_as_xyz
  1  'x, y, z'
loop_
 _atom_site_type_symbol
 _atom_site_label
 _atom_site_symmetry_multiplicity
 _atom_site_fract_x
 _atom_site_fract_y
 _atom_site_fract_z
 _atom_site_occupancy
 _atom_site_hle17_bader_spin_density
 _atom_site_hle17_ddec_charge
 _atom_site_hle17_ddec_spin_density
 _atom_site_hle17_ddec_sum_bond_order
 _atom_site_hle17_magmom
 _atom_site_hse06_10hf_bader_spin_density
 _atom_site_hse06_10hf_ddec_charge
 _atom_site_hse06_10hf_ddec_spin_density
 _atom_site_hse06_10hf_ddec_sum_bond_order
 _atom_site_hse06_10hf_magmom
 _atom_site_hse06_bader_spin_density
 _atom_site_hse06_ddec_charge
 _atom_site_hse06_ddec_spin_density
 _atom_site_hse06_ddec_sum_bond_order
 _atom_site_hse06_magmom
 _atom_site_pbe_bader_spin_density
 _atom_site_pbe_cm5_charge
 _atom_site_pbe_ddec_charge
 _atom_site_pbe_ddec_spin_density
 _atom_site_pbe_ddec_sum_bond_order
 _atom_site_pbe_magmom
Zn  Zn0  1  0.63957300  0.08894694  0.66215789  1  0  1.065902  0  1.749852  0  0  0.875071  0  2.20071  0  0  0.926499  0  2.144125  0  0  0.675228  0.839064  0  2.239565  0
Zn  Zn1  1  0.36043792  0.91106253  0.33784244  1  0  1.065911  0  1.749707  0  0  0.875101  0  2.200525  0  0  0.926519  0  2.143938  0  0  0.675255  0.839087  0  2.239383  0
H  H2  1  0.17219464  0.13824975  0.59794066  1  0  0.43092  0  0.86613  0  0  0.398824  0  0.931116  0  0  0.410239  0  0.914467  0  0  0.290754  0.39084  0  0.942754  0
H  H3  1  0.82780809  0.86175226  0.40205720  1  0  0.430875  0  0.866186  0  0  0.398763  0  0.931204  0  0  0.410178  0  0.914554  0  0  0.290738  0.390777  0  0.942843  0
H  H4  1  0.31603575  0.29191493  0.72544243  1  0  0.082986  0  0.969531  0  0  0.091977  0  1.032206  0  0  0.093753  0  1.030683  0  0  0.123407  0.090467  0  1.03355  0
H  H5  1  0.68397557  0.70809032  0.27455316  1  0  0.083044  0  0.969599  0  0  0.092024  0  1.032267  0  0  0.0938  0  1.030741  0  0  0.123409  0.090517  0  1.03361  0
H  H6  1  0.10691196  0.38976555  0.52117090  1  0  0.104309  0  0.938854  0  0  0.124467  0  0.991808  0  0  0.125922  0  0.992165  0  0  0.101856  0.123368  0  0.991571  0
H  H7  1  0.89307933  0.61023526  0.47883048  1  0  0.10431  0  0.93864  0  0  0.124492  0  0.991643  0  0  0.125898  0  0.992068  0  0  0.10184  0.12339  0  0.991408  0
H  H8  1  0.32295419  0.37918936  0.61113826  1  0  0.100436  0  0.958734  0  0  0.113935  0  1.025146  0  0  0.116632  0  1.023548  0  0  0.096289  0.112005  0  1.026259  0
H  H9  1  0.67704057  0.62081977  0.38886028  1  0  0.10037  0  0.95872  0  0  0.113934  0  1.025141  0  0  0.116638  0  1.023522  0  0  0.096286  0.112002  0  1.026253  0
H  H10  1  0.60644957  0.43829752  0.00306853  1  0  0.093026  0  0.986198  0  0  0.10104  0  1.05682  0  0  0.103946  0  1.054017  0  0  0.107104  0.098836  0  1.059192  0
H  H11  1  0.39353390  0.56168225  0.99692423  1  0  0.092957  0  0.986173  0  0  0.100937  0  1.056862  0  0  0.103844  0  1.054061  0  0  0.107063  0.098734  0  1.059231  0
H  H12  1  0.33902025  0.87287385  0.81708265  1  0  0.123771  0  0.96038  0  0  0.129959  0  1.024671  0  0  0.133811  0  1.022121  0  0  0.113297  0.127225  0  1.026368  0
H  H13  1  0.66095249  0.12710274  0.18291856  1  0  0.123917  0  0.960255  0  0  0.130083  0  1.024538  0  0  0.133964  0  1.021953  0  0  0.113362  0.127346  0  1.026235  0
H  H14  1  0.27815257  0.60484914  0.69371007  1  0  0.050817  0  0.947498  0  0  0.069084  0  1.010354  0  0  0.070302  0  1.009876  0  0  0.083157  0.068317  0  1.010555  0
H  H15  1  0.72186915  0.39515939  0.30628336  1  0  0.050833  0  0.947351  0  0  0.069089  0  1.010189  0  0  0.070308  0  1.009707  0  0  0.083134  0.068323  0  1.010389  0
H  H16  1  0.06064408  0.61756100  0.60518847  1  0  0.05783  0  0.950797  0  0  0.074334  0  1.015546  0  0  0.075756  0  1.01452  0  0  0.08722  0.073251  0  1.016261  0
H  H17  1  0.93938761  0.38245502  0.39480755  1  0  0.057926  0  0.950778  0  0  0.074341  0  1.015602  0  0  0.075759  0  1.014584  0  0  0.087225  0.073257  0  1.016318  0
H  H18  1  0.37226202  0.01176783  0.96684703  1  0  0.092008  0  0.988711  0  0  0.099194  0  1.059953  0  0  0.102721  0  1.055978  0  0  0.103205  0.096801  0  1.062553  0
H  H19  1  0.62770543  0.98821273  0.03314909  1  0  0.091977  0  0.988691  0  0  0.099176  0  1.059963  0  0  0.102695  0  1.055994  0  0  0.103225  0.096782  0  1.062562  0
H  H20  1  0.30466843  0.44308664  0.86502603  1  0  0.11127  0  0.956228  0  0  0.115533  0  1.024697  0  0  0.119691  0  1.022599  0  0  0.107088  0.112596  0  1.026243  0
H  H21  1  0.69530483  0.55690445  0.13497264  1  0  0.111253  0  0.956155  0  0  0.1155  0  1.024639  0  0  0.119656  0  1.022543  0  0  0.107096  0.112566  0  1.026186  0
H  H22  1  0.60178200  0.61862754  0.60262192  1  0  0.107706  0  0.923644  0  0  0.124039  0  0.984212  0  0  0.126476  0  0.982837  0  0  0.10114  0.122112  0  0.985431  0
H  H23  1  0.39824052  0.38138013  0.39738222  1  0  0.107776  0  0.923376  0  0  0.124125  0  0.983928  0  0  0.126559  0  0.98256  0  0  0.101178  0.122194  0  0.985153  0
H  H24  1  0.38848189  0.63188647  0.51206560  1  0  0.109676  0  0.936198  0  0  0.12613  0  0.994778  0  0  0.127485  0  0.995637  0  0  0.101281  0.125138  0  0.994259  0
H  H25  1  0.61156457  0.36812152  0.48793016  1  0  0.109807  0  0.936127  0  0  0.126246  0  0.994706  0  0  0.127599  0  0.995566  0  0  0.101298  0.125254  0  0.99419  0
H  H26  1  0.04075987  0.90549102  0.69160966  1  0  0.103847  0  0.926696  0  0  0.11071  0  0.987568  0  0  0.113616  0  0.985144  0  0  0.127025  0.108514  0  0.989455  0
H  H27  1  0.95925270  0.09451031  0.30839894  1  0  0.103806  0  0.926544  0  0  0.110701  0  0.987397  0  0  0.113601  0  0.984973  0  0  0.126996  0.108506  0  0.989285  0
H  H28  1  0.12267641  0.42472212  0.22216523  1  0  0.107104  0  0.946175  0  0  0.113145  0  1.007812  0  0  0.116595  0  1.00554  0  0  0.119539  0.110328  0  1.009683  0
H  H29  1  0.87728669  0.57526268  0.77784167  1  0  0.107007  0  0.946357  0  0  0.113029  0  1.008033  0  0  0.11647  0  1.005761  0  0  0.119534  0.110215  0  1.009905  0
H  H30  1  0.41486173  0.26921121  0.20790245  1  0  0.090009  0  0.953453  0  0  0.09638  0  1.017577  0  0  0.099484  0  1.015514  0  0  0.117887  0.093843  0  1.019353  0
H  H31  1  0.58511138  0.73076644  0.79209951  1  0  0.089907  0  0.953495  0  0  0.096428  0  1.017477  0  0  0.099542  0  1.015397  0  0  0.117858  0.093886  0  1.019265  0
H  H32  1  0.32731505  0.11128366  0.52361288  1  0  0.439885  0  0.857926  0  0  0.406437  0  0.924116  0  0  0.418297  0  0.906914  0  0  0.29119  0.398081  0  0.936183  0
H  H33  1  0.67268683  0.88871626  0.47638538  1  0  0.439854  0  0.857944  0  0  0.406394  0  0.92416  0  0  0.418259  0  0.906951  0  0  0.29117  0.398041  0  0.936221  0
C  C34  1  0.09152925  0.11279460  0.92171300  1  0  -0.039598  0  3.777006  0  0  -0.027307  0  4.008729  0  0  -0.031449  0  4.033221  0  0  -0.00145  -0.024155  0  3.992253  0
C  C35  1  0.90845688  0.88720604  0.07828358  1  0  -0.039604  0  3.777149  0  0  -0.027318  0  4.00888  0  0  -0.031451  0  4.03338  0  0  -0.001501  -0.024176  0  3.99242  0
C  C36  1  0.92274391  0.12056094  0.84718698  1  0  0.13888  0  3.777549  0  0  0.129453  0  4.019031  0  0  0.133557  0  4.040515  0  0  0.120018  0.126578  0  4.004472  0
C  C37  1  0.07723896  0.87943132  0.15280867  1  0  0.138808  0  3.777438  0  0  0.129352  0  4.018854  0  0  0.133418  0  4.040388  0  0  0.119948  0.12648  0  4.004298  0
C  C38  1  0.94391487  0.28785676  0.01297495  1  0  0.128761  0  3.75956  0  0  0.125832  0  4.004832  0  0  0.128549  0  4.026241  0  0  0.120034  0.122884  0  3.992413  0
C  C39  1  0.05607927  0.71213791  0.98702801  1  0  0.128661  0  3.759257  0  0  0.125696  0  4.004452  0  0  0.128408  0  4.025864  0  0  0.119854  0.12275  0  3.992034  0
C  C40  1  0.75856260  0.21175085  0.85442807  1  0  0.150682  0  3.755988  0  0  0.140928  0  3.994978  0  0  0.146706  0  4.015931  0  0  0.126335  0.137306  0  3.980357  0
C  C41  1  0.24142441  0.78825713  0.14557235  1  0  0.150707  0  3.756193  0  0  0.141084  0  3.994847  0  0  0.146874  0  4.015804  0  0  0.126455  0.137463  0  3.98023  0
C  C42  1  0.44261554  0.29508477  0.78601631  1  0  0.175623  0  3.653086  0  0  0.141687  0  3.904707  0  0  0.150502  0  3.921196  0  0  0.069412  0.135766  0  3.894021  0
C  C43  1  0.55739829  0.70493202  0.21398357  1  0  0.175426  0  3.653095  0  0  0.141511  0  3.904695  0  0  0.150325  0  3.921179  0  0  0.069437  0.135591  0  3.894009  0
C  C44  1  0.76746041  0.29338985  0.93612921  1  0  -0.038087  0  3.753853  0  0  -0.02658  0  3.988893  0  0  -0.031501  0  4.012176  0  0  -3.2e-05  -0.022283  0  3.972582  0
C  C45  1  0.23256016  0.70659908  0.06387323  1  0  -0.038179  0  3.754016  0  0  -0.026546  0  3.98876  0  0  -0.031459  0  4.01204  0  0  -2.5e-05  -0.022254  0  3.972459  0
C  C46  1  0.10645736  0.19970128  0.00547803  1  0  0.114154  0  3.780231  0  0  0.11337  0  4.022916  0  0  0.115314  0  4.045101  0  0  0.116395  0.111125  0  4.009678  0
C  C47  1  0.89353188  0.80028493  0.99452072  1  0  0.114227  0  3.779832  0  0  0.113467  0  4.022467  0  0  0.115415  0  4.044648  0  0  0.116482  0.111224  0  4.009232  0
C  C48  1  0.16031970  0.41980884  0.59288897  1  0  -0.280782  0  3.678227  0  0  -0.317675  0  3.925987  0  0  -0.324376  0  3.936073  0  0  -0.171588  -0.312838  0  3.918586  0
C  C49  1  0.83968090  0.58019618  0.40710458  1  0  -0.280633  0  3.67806  0  0  -0.317722  0  3.926056  0  0  -0.324401  0  3.936133  0  0  -0.171568  -0.31287  0  3.918645  0
C  C50  1  0.49985163  0.81260265  0.61569856  1  0  0.68954  0  3.837949  0  0  0.640971  0  4.136113  0  0  0.673788  0  4.130896  0  0  0.202996  0.618811  0  4.138551  0
C  C51  1  0.50015999  0.18741010  0.38431156  1  0  0.68975  0  3.837838  0  0  0.641276  0  4.135877  0  0  0.674089  0  4.13066  0  0  0.203177  0.619105  0  4.138325  0
C  C52  1  0.94610867  0.34199421  0.62761933  1  0  0.688006  0  3.853063  0  0  0.640763  0  4.159763  0  0  0.673266  0  4.153484  0  0  0.20099  0.618703  0  4.163043  0
C  C53  1  0.05389573  0.65803189  0.37239014  1  0  0.68774  0  3.853044  0  0  0.640435  0  4.159922  0  0  0.672952  0  4.153616  0  0  0.200807  0.618354  0  4.163227  0
C  C54  1  0.60079246  0.37734682  0.93981521  1  0  -0.023282  0  3.698362  0  0  -0.057398  0  3.956861  0  0  -0.053279  0  3.973924  0  0  -0.065309  -0.059715  0  3.944825  0
C  C55  1  0.39920908  0.62265204  0.06018168  1  0  -0.023066  0  3.698921  0  0  -0.05725  0  3.957373  0  0  -0.05314  0  3.974442  0  0  -0.065196  -0.059559  0  3.945333  0
C  C56  1  0.22277846  0.94343180  0.82854102  1  0  -0.098918  0  3.692526  0  0  -0.115581  0  3.955095  0  0  -0.121114  0  3.974798  0  0  -0.077247  -0.110906  0  3.940286  0
C  C57  1  0.77721799  0.05655982  0.17146311  1  0  -0.099057  0  3.692126  0  0  -0.115696  0  3.954765  0  0  -0.121252  0  3.974445  0  0  -0.077287  -0.11102  0  3.939956  0
C  C58  1  0.22537415  0.57833457  0.62201017  1  0  -0.047735  0  3.722901  0  0  -0.091226  0  3.985263  0  0  -0.090676  0  3.999047  0  0  -0.168908  -0.091485  0  3.975354  0
C  C59  1  0.77464477  0.42167187  0.37798605  1  0  -0.047856  0  3.722766  0  0  -0.09117  0  3.985037  0  0  -0.090613  0  3.998806  0  0  -0.168851  -0.091429  0  3.97512  0
C  C60  1  0.24237687  0.02045802  0.91039995  1  0  -0.037216  0  3.707092  0  0  -0.071147  0  3.970091  0  0  -0.069123  0  3.988363  0  0  -0.068677  -0.071998  0  3.956578  0
C  C61  1  0.75761479  0.97952921  0.08959527  1  0  -0.037283  0  3.707239  0  0  -0.071209  0  3.97013  0  0  -0.069207  0  3.988472  0  0  -0.068751  -0.072055  0  3.956615  0
C  C62  1  0.43731946  0.37902390  0.86451712  1  0  -0.129448  0  3.716459  0  0  -0.140068  0  3.97425  0  0  -0.148045  0  3.995225  0  0  -0.083485  -0.135223  0  3.959799  0
C  C63  1  0.56267720  0.62097587  0.13547761  1  0  -0.12938  0  3.716331  0  0  -0.13997  0  3.974107  0  0  -0.14794  0  3.99508  0  0  -0.083524  -0.135123  0  3.959645  0
C  C64  1  0.43376098  0.65502592  0.58390195  1  0  -0.270801  0  3.655887  0  0  -0.307907  0  3.907698  0  0  -0.314155  0  3.917095  0  0  -0.165844  -0.303415  0  3.900993  0
C  C65  1  0.56627624  0.34498196  0.41609756  1  0  -0.270996  0  3.65582  0  0  -0.308122  0  3.907567  0  0  -0.314375  0  3.916964  0  0  -0.165839  -0.303632  0  3.900873  0
C  C66  1  0.05408410  0.96096146  0.75751619  1  0  0.171087  0  3.63036  0  0  0.137091  0  3.88787  0  0  0.144742  0  3.903368  0  0  0.070767  0.131841  0  3.876953  0
C  C67  1  0.94591988  0.03903547  0.24248702  1  0  0.171249  0  3.630274  0  0  0.137245  0  3.88776  0  0  0.144903  0  3.903258  0  0  0.070868  0.131997  0  3.87684  0
C  C68  1  0.11551839  0.36028522  0.15898963  1  0  0.075321  0  3.680853  0  0  0.054204  0  3.938186  0  0  0.056259  0  3.955064  0  0  0.057559  0.053786  0  3.92561  0
C  C69  1  0.88445860  0.63970590  0.84100678  1  0  0.075498  0  3.68066  0  0  0.054375  0  3.93807  0  0  0.056445  0  3.954943  0  0  0.057467  0.053952  0  3.925491  0
C  C70  1  0.28035498  0.27439040  0.15087187  1  0  0.080853  0  3.685057  0  0  0.057072  0  3.947412  0  0  0.059228  0  3.964134  0  0  0.056517  0.056022  0  3.935384  0
C  C71  1  0.71962683  0.72559573  0.84913077  1  0  0.080828  0  3.685261  0  0  0.056939  0  3.947609  0  0  0.059083  0  3.964343  0  0  0.056534  0.055894  0  3.935572  0
N  N72  1  0.90799900  0.04686731  0.76703239  1  0  -0.345116  0  3.269047  0  0  -0.278382  0  3.533291  0  0  -0.29599  0  3.550686  0  0  -0.310104  -0.26576  0  3.521158  0
N  N73  1  0.09199534  0.95313257  0.23297165  1  0  -0.345163  0  3.268952  0  0  -0.278411  0  3.533141  0  0  -0.296009  0  3.550546  0  0  -0.31011  -0.265789  0  3.521003  0
N  N74  1  0.59807387  0.21355055  0.78109657  1  0  -0.335679  0  3.251691  0  0  -0.264197  0  3.51728  0  0  -0.282418  0  3.532295  0  0  -0.303631  -0.25248  0  3.507689  0
N  N75  1  0.40192486  0.78645445  0.21889811  1  0  -0.335612  0  3.252001  0  0  -0.264236  0  3.517587  0  0  -0.282448  0  3.532585  0  0  -0.303686  -0.252521  0  3.508002  0
N  N76  1  0.94980735  0.36786649  0.09054237  1  0  -0.293037  0  3.046128  0  0  -0.263449  0  3.314213  0  0  -0.271593  0  3.329589  0  0  -0.298156  -0.259103  0  3.305039  0
N  N77  1  0.05017823  0.63212493  0.90946224  1  0  -0.293064  0  3.04564  0  0  -0.26348  0  3.313722  0  0  -0.271624  0  3.329094  0  0  -0.298061  -0.259133  0  3.304547  0
N  N78  1  0.27756309  0.19524895  0.07535609  1  0  -0.28629  0  3.044985  0  0  -0.258022  0  3.315521  0  0  -0.265662  0  3.331609  0  0  -0.298443  -0.253396  0  3.30552  0
N  N79  1  0.72242409  0.80474961  0.92463914  1  0  -0.28625  0  3.044912  0  0  -0.258003  0  3.315492  0  0  -0.265642  0  3.331589  0  0  -0.298402  -0.253377  0  3.305486  0
O  O80  1  0.31647998  0.10389634  0.58529358  1  0  -0.84579  0  1.895993  0  0  -0.779106  0  2.113115  0  0  -0.80068  0  2.073735  0  0  -0.583296  -0.764128  0  2.1401  0
O  O81  1  0.68351206  0.89610132  0.41470443  1  0  -0.845705  0  1.896011  0  0  -0.778996  0  2.113136  0  0  -0.800578  0  2.073763  0  0  -0.583234  -0.764026  0  2.14014  0
O  O82  1  0.42542747  0.86229427  0.68103469  1  0  -0.642391  0  2.000918  0  0  -0.586938  0  2.249211  0  0  -0.613798  0  2.242139  0  0  -0.313051  -0.568025  0  2.253166  0
O  O83  1  0.57459118  0.13770698  0.31896171  1  0  -0.642677  0  2.000465  0  0  -0.587291  0  2.248749  0  0  -0.614153  0  2.241665  0  0  -0.313237  -0.568372  0  2.252711  0
O  O84  1  0.63747978  0.89489859  0.57790296  1  0  -0.658832  0  2.000571  0  0  -0.579885  0  2.233947  0  0  -0.609305  0  2.221546  0  0  -0.319381  -0.559342  0  2.241627  0
O  O85  1  0.36253565  0.10511829  0.42210083  1  0  -0.65878  0  2.000873  0  0  -0.579897  0  2.234231  0  0  -0.609279  0  2.221803  0  0  -0.319389  -0.559326  0  2.241893  0
O  O86  1  0.92401225  0.20704372  0.62047291  1  0  -0.686383  0  2.049465  0  0  -0.60404  0  2.305395  0  0  -0.634606  0  2.290864  0  0  -0.330379  -0.582707  0  2.314536  0
O  O87  1  0.07597273  0.79297367  0.37953383  1  0  -0.686081  0  2.049519  0  0  -0.60375  0  2.30554  0  0  -0.634302  0  2.290987  0  0  -0.330313  -0.582417  0  2.314713  0
O  O88  1  0.80459179  0.40450777  0.65909867  1  0  -0.624991  0  1.908057  0  0  -0.582704  0  2.136165  0  0  -0.605341  0  2.128562  0  0  -0.328729  -0.566644  0  2.140839  0
O  O89  1  0.19543657  0.59551569  0.34091226  1  0  -0.625072  0  1.907631  0  0  -0.582689  0  2.135717  0  0  -0.605355  0  2.128147  0  0  -0.328702  -0.566615  0  2.140397  0
