# generated using pymatgen
data_RbH11C18N4O3
_symmetry_space_group_name_H-M   'P 1'
_cell_length_a   7.86992973
_cell_length_b   13.42902892
_cell_length_c   18.79300000
_cell_angle_alpha   107.71769675
_cell_angle_beta   90.00000000
_cell_angle_gamma   107.03891611
_symmetry_Int_Tables_number   1
_chemical_formula_structural   RbH11C18N4O3
_chemical_formula_sum   'Rb4 H44 C72 N16 O12'
_cell_volume   1800.20337196
_cell_formula_units_Z   4
loop_
 _symmetry_equiv_pos_site_id
 _symmetry_equiv_pos_as_xyz
  1  'x, y, z'
loop_
 _atom_site_type_symbol
 _atom_site_label
 _atom_site_symmetry_multiplicity
 _atom_site_fract_x
 _atom_site_fract_y
 _atom_site_fract_z
 _atom_site_occupancy
 _atom_site_hle17_bader_spin_density
 _atom_site_hle17_ddec_charge
 _atom_site_hle17_ddec_spin_density
 _atom_site_hle17_ddec_sum_bond_order
 _atom_site_hle17_magmom
 _atom_site_hse06_10hf_bader_spin_density
 _atom_site_hse06_10hf_ddec_charge
 _atom_site_hse06_10hf_ddec_spin_density
 _atom_site_hse06_10hf_ddec_sum_bond_order
 _atom_site_hse06_10hf_magmom
 _atom_site_hse06_bader_spin_density
 _atom_site_hse06_ddec_charge
 _atom_site_hse06_ddec_spin_density
 _atom_site_hse06_ddec_sum_bond_order
 _atom_site_hse06_magmom
 _atom_site_pbe_bader_charge
 _atom_site_pbe_bader_spin_density
 _atom_site_pbe_cm5_charge
 _atom_site_pbe_ddec_charge
 _atom_site_pbe_ddec_spin_density
 _atom_site_pbe_ddec_sum_bond_order
 _atom_site_pbe_magmom
Rb  Rb0  1  0.65852706  0.57843649  0.91272739  1  0  0.933701  0  0.511846  0  0  0.881295  0  0.736967  0  0  0.895102  0  0.716154  0  0.901576  0  0.848056  0.871243  0  0.751694  0
Rb  Rb1  1  0.92023830  0.57866243  0.41266744  1  0  0.933962  0  0.510688  0  0  0.881465  0  0.735623  0  0  0.895272  0  0.714811  0  0.9016  0  0.84763  0.87138  0  0.750416  0
Rb  Rb2  1  0.20104317  0.65874265  0.92956753  1  0  0.93305  0  0.50951  0  0  0.881105  0  0.732178  0  0  0.894756  0  0.711632  0  0.902979  0  0.850623  0.871136  0  0.746788  0
Rb  Rb3  1  0.45796440  0.65864406  0.42954929  1  0  0.933242  0  0.509454  0  0  0.881281  0  0.732163  0  0  0.894896  0  0.711693  0  0.902717  0  0.850753  0.871392  0  0.746622  0
H  H4  1  0.71030047  0.96917018  0.96308328  1  0  0.11333  0  0.939745  0  0  0.120714  0  1.003401  0  0  0.124177  0  1.001303  0  0.127168  0  0.113063  0.118242  0  1.00499  0
H  H5  1  0.25892545  0.96976746  0.46317805  1  0  0.113535  0  0.939676  0  0  0.120597  0  1.003574  0  0  0.124138  0  1.001359  0  0.097881  0  0.112884  0.118068  0  1.005237  0
H  H6  1  0.53147940  0.98909165  0.86227156  1  0  0.103946  0  0.932393  0  0  0.115218  0  0.987252  0  0  0.117954  0  0.986076  0  0.105421  0  0.111981  0.113231  0  0.988152  0
H  H7  1  0.45763327  0.98901442  0.36225051  1  0  0.103697  0  0.932743  0  0  0.115014  0  0.987725  0  0  0.117758  0  0.986557  0  0.130914  0  0.112051  0.113034  0  0.988625  0
H  H8  1  0.60135375  0.92942090  0.72977523  1  0  0.089839  0  0.969568  0  0  0.098478  0  1.033918  0  0  0.100761  0  1.033953  0  0.089312  0  0.101462  0.096831  0  1.034039  0
H  H9  1  0.32788942  0.92894439  0.22974664  1  0  0.090819  0  0.969308  0  0  0.099105  0  1.033838  0  0  0.101401  0  1.033861  0  0.075407  0  0.101577  0.097446  0  1.033964  0
H  H10  1  0.85270496  0.85333845  0.69865379  1  0  0.090011  0  0.975754  0  0  0.097899  0  1.043613  0  0  0.099707  0  1.04418  0  0.078604  0  0.102097  0.096591  0  1.043302  0
H  H11  1  0.00049742  0.85309362  0.19873411  1  0  0.090638  0  0.975825  0  0  0.098582  0  1.043477  0  0  0.100436  0  1.044006  0  0.081924  0  0.102397  0.097249  0  1.043168  0
H  H12  1  0.08196265  0.88576095  0.07610097  1  0  0.03479  0  0.937415  0  0  0.044065  0  1.001503  0  0  0.045126  0  0.999606  0  0.064788  0  0.10585  0.043219  0  1.002953  0
H  H13  1  0.80383988  0.88641738  0.57625383  1  0  0.033454  0  0.937078  0  0  0.043979  0  1.001219  0  0  0.044919  0  0.999415  0  0.06421  0  0.105653  0.043188  0  1.002654  0
H  H14  1  0.15155457  0.13649179  0.12912134  1  0  0.105937  0  0.974149  0  0  0.124753  0  1.039353  0  0  0.125117  0  1.041961  0  0.043407  0  0.085201  0.124406  0  1.037647  0
H  H15  1  0.98510434  0.13713426  0.62926425  1  0  0.10574  0  0.97584  0  0  0.124941  0  1.040464  0  0  0.125305  0  1.043088  0  0.039414  0  0.085455  0.124595  0  1.038748  0
H  H16  1  0.16144338  0.05930843  0.18994535  1  0  0.111179  0  0.953808  0  0  0.133336  0  1.01313  0  0  0.133722  0  1.01469  0  0.042996  0  0.090201  0.133001  0  1.012092  0
H  H17  1  0.89800843  0.05994761  0.69008275  1  0  0.111048  0  0.952946  0  0  0.132821  0  1.012869  0  0  0.133148  0  1.014508  0  0.038951  0  0.090045  0.132523  0  1.011789  0
H  H18  1  0.95506435  0.03819815  0.14019629  1  0  0.112126  0  0.961397  0  0  0.128309  0  1.028422  0  0  0.129606  0  1.028318  0  0.068025  0  0.086654  0.127364  0  1.028498  0
H  H19  1  0.08321039  0.03879297  0.64030915  1  0  0.11116  0  0.962279  0  0  0.127663  0  1.028904  0  0  0.128961  0  1.028802  0  0.052298  0  0.086334  0.126719  0  1.028976  0
H  H20  1  0.36229594  0.92659798  0.01460486  1  0  0.107075  0  0.951906  0  0  0.126619  0  1.0148  0  0  0.127969  0  1.014831  0  0.046692  0  0.093677  0.125643  0  1.01477  0
H  H21  1  0.56426610  0.92708107  0.51479239  1  0  0.107231  0  0.952557  0  0  0.126782  0  1.015287  0  0  0.128133  0  1.015327  0  0.011124  0  0.093952  0.1258  0  1.015262  0
H  H22  1  0.41036727  0.99283144  0.11315029  1  0  0.11287  0  0.957253  0  0  0.13404  0  1.018389  0  0  0.134191  0  1.020267  0  0.055845  0  0.092149  0.133906  0  1.017075  0
H  H23  1  0.58246925  0.99337285  0.61333029  1  0  0.112837  0  0.958341  0  0  0.133675  0  1.019762  0  0  0.133813  0  1.021645  0  0.043222  0  0.091802  0.133554  0  1.018433  0
H  H24  1  0.39615370  0.07023697  0.05337657  1  0  0.11272  0  0.954745  0  0  0.132209  0  1.018802  0  0  0.133629  0  1.018803  0  0.05664  0  0.090654  0.131142  0  1.01887  0
H  H25  1  0.67371925  0.07077100  0.55350387  1  0  0.111903  0  0.954625  0  0  0.131416  0  1.018845  0  0  0.132852  0  1.018829  0  0.049696  0  0.09015  0.13034  0  1.018914  0
H  H26  1  0.84888451  0.27616882  0.81529837  1  0  0.107282  0  0.932101  0  0  0.120022  0  0.986244  0  0  0.122861  0  0.985556  0  0.087873  0  0.114712  0.117995  0  0.986825  0
H  H27  1  0.42752362  0.27617374  0.31532339  1  0  0.106689  0  0.932753  0  0  0.119508  0  0.986914  0  0  0.1223  0  0.986295  0  0.093355  0  0.114162  0.117478  0  0.987496  0
H  H28  1  0.64431662  0.25756268  0.70813720  1  0  0.110594  0  0.935017  0  0  0.120031  0  0.992766  0  0  0.123058  0  0.990888  0  0.154681  0  0.114499  0.117866  0  0.994123  0
H  H29  1  0.61363777  0.25781162  0.20824667  1  0  0.110425  0  0.936788  0  0  0.119978  0  0.994468  0  0  0.123011  0  0.992585  0  0.132229  0  0.11431  0.117818  0  0.995809  0
H  H30  1  0.76857145  0.31341969  0.59924014  1  0  0.091275  0  0.960318  0  0  0.099532  0  1.024484  0  0  0.101768  0  1.024672  0  0.073725  0  0.102338  0.097937  0  1.024463  0
H  H31  1  0.54517337  0.31356018  0.09931751  1  0  0.090822  0  0.959418  0  0  0.099406  0  1.023456  0  0  0.101558  0  1.023735  0  0.078119  0  0.102104  0.097828  0  1.023409  0
H  H32  1  0.09595969  0.38144089  0.59610814  1  0  0.091142  0  0.973719  0  0  0.098826  0  1.041999  0  0  0.100676  0  1.042476  0  0.096642  0  0.101704  0.0975  0  1.041693  0
H  H33  1  0.28529640  0.38108679  0.09603380  1  0  0.09117  0  0.974585  0  0  0.098821  0  1.042876  0  0  0.10074  0  1.043189  0  0.09541  0  0.101841  0.097498  0  1.042564  0
H  H34  1  0.30891530  0.34532789  0.95698999  1  0  0.031038  0  0.934273  0  0  0.041755  0  0.997648  0  0  0.042455  0  0.996237  0  0.080089  0  0.104496  0.04117  0  0.998739  0
H  H35  1  0.03652383  0.34523341  0.45695508  1  0  0.030661  0  0.934728  0  0  0.042005  0  0.997269  0  0  0.04266  0  0.995914  0  0.081667  0  0.105038  0.041443  0  0.998345  0
H  H36  1  0.47849367  0.18920547  0.84717494  1  0  0.122501  0  0.967931  0  0  0.140158  0  1.03367  0  0  0.142181  0  1.032575  0  0.098015  0  0.090702  0.138636  0  1.034505  0
H  H37  1  0.71058636  0.18934349  0.34718208  1  0  0.122541  0  0.968485  0  0  0.140383  0  1.033912  0  0  0.142418  0  1.03282  0  0.070756  0  0.090722  0.138872  0  1.034724  0
H  H38  1  0.56784283  0.26939414  0.94171422  1  0  0.107026  0  0.95539  0  0  0.128333  0  1.016299  0  0  0.128537  0  1.018096  0  0.031802  0  0.089807  0.12816  0  1.015024  0
H  H39  1  0.70157671  0.26967018  0.44170667  1  0  0.107569  0  0.956239  0  0  0.128881  0  1.016944  0  0  0.129092  0  1.018734  0  0.03726  0  0.08981  0.128685  0  1.01569  0
H  H40  1  0.55556417  0.33478384  0.87348009  1  0  0.098487  0  0.96879  0  0  0.115959  0  1.038184  0  0  0.117216  0  1.03843  0  0.016507  0  0.088181  0.114985  0  1.038072  0
H  H41  1  0.77964240  0.33492104  0.37344394  1  0  0.0983  0  0.969426  0  0  0.116066  0  1.038482  0  0  0.117357  0  1.03869  0  0.020317  0  0.088227  0.115104  0  1.038354  0
H  H42  1  0.19362059  0.09238408  0.89252579  1  0  0.115347  0  0.945354  0  0  0.1341  0  1.008472  0  0  0.13522  0  1.009141  0  0.037803  0  0.089598  0.133207  0  1.008111  0
H  H43  1  0.89832461  0.09229288  0.39264005  1  0  0.115202  0  0.944821  0  0  0.134068  0  1.007805  0  0  0.135196  0  1.008469  0  0.036428  0  0.089483  0.133188  0  1.007429  0
H  H44  1  0.06461515  0.16959044  0.94898077  1  0  0.110909  0  0.960903  0  0  0.1268  0  1.029749  0  0  0.12796  0  1.030294  0  0.056383  0  0.086282  0.125911  0  1.029426  0
H  H45  1  0.10462196  0.16942038  0.44906138  1  0  0.111012  0  0.960608  0  0  0.12723  0  1.029015  0  0  0.128472  0  1.029458  0  0.043027  0  0.086649  0.126297  0  1.028752  0
H  H46  1  0.27033483  0.17008585  0.98766936  1  0  0.110297  0  0.955965  0  0  0.132131  0  1.017859  0  0  0.132871  0  1.018523  0  0.043683  0  0.091178  0.131546  0  1.017435  0
H  H47  1  0.89948269  0.17017212  0.48775516  1  0  0.110702  0  0.95496  0  0  0.131798  0  1.01787  0  0  0.13253  0  1.018557  0  0.044231  0  0.091083  0.131212  0  1.017449  0
C  C48  1  0.08637288  0.83400687  0.79504688  1  0  0.379267  0  3.742468  0  0  0.364707  0  4.006344  0  0  0.383848  0  4.009572  0  0.943358  0  0.171978  0.351368  0  4.00414  0
C  C49  1  0.74752260  0.83418268  0.29510001  1  0  0.379771  0  3.742429  0  0  0.365463  0  4.00561  0  0  0.384609  0  4.008835  0  0.935532  0  0.172323  0.352123  0  4.003401  0
C  C50  1  0.92461606  0.86730681  0.81302064  1  0  -0.067369  0  3.771133  0  0  -0.060006  0  4.006121  0  0  -0.067609  0  4.032643  0  -0.01587  0  -0.015355  -0.054835  0  3.988195  0
C  C51  1  0.94259732  0.86748755  0.31312699  1  0  -0.067727  0  3.769592  0  0  -0.060019  0  4.004169  0  0  -0.067665  0  4.030721  0  -0.025998  0  -0.015122  -0.054841  0  3.986239  0
C  C52  1  0.88092618  0.89851749  0.88795611  1  0  -0.044404  0  3.707366  0  0  -0.032175  0  3.94528  0  0  -0.035533  0  3.965018  0  -0.037855  0  0.009968  -0.029861  0  3.931931  0
C  C53  1  0.01752462  0.89889623  0.38807945  1  0  -0.044067  0  3.704927  0  0  -0.032137  0  3.942583  0  0  -0.035458  0  3.962356  0  -0.096178  0  0.009578  -0.02984  0  3.929236  0
C  C54  1  0.74078881  0.94290864  0.90506986  1  0  -0.067708  0  3.688757  0  0  -0.093779  0  3.941634  0  0  -0.095928  0  3.960887  0  0.061526  0  -0.066723  -0.092296  0  3.928481  0
C  C55  1  0.20209601  0.94324549  0.40516120  1  0  -0.067824  0  3.686223  0  0  -0.093255  0  3.939021  0  0  -0.095451  0  3.958267  0  0.121873  0  -0.065999  -0.091718  0  3.925862  0
C  C56  1  0.64091597  0.95456757  0.84826988  1  0  -0.004083  0  3.678481  0  0  -0.021669  0  3.929618  0  0  -0.021049  0  3.948228  0  -0.049888  0  -0.058487  -0.021795  0  3.916739  0
C  C57  1  0.31359153  0.95457003  0.34830447  1  0  -0.002952  0  3.676326  0  0  -0.020772  0  3.92781  0  0  -0.020166  0  3.94644  0  -0.077473  0  -0.059009  -0.020914  0  3.914929  0
C  C58  1  0.67976579  0.92088395  0.77398696  1  0  -0.061964  0  3.740641  0  0  -0.077231  0  3.992379  0  0  -0.080333  0  4.013963  0  -0.027236  0  -0.083144  -0.075194  0  3.977689  0
C  C59  1  0.24099698  0.92066295  0.27400435  1  0  -0.064397  0  3.741345  0  0  -0.079406  0  3.993744  0  0  -0.082517  0  4.015325  0  0.002784  0  -0.083261  -0.077365  0  3.979071  0
C  C60  1  0.82059277  0.87755180  0.75651393  1  0  -0.065446  0  3.727583  0  0  -0.088572  0  3.977582  0  0  -0.08957  0  4.001059  0  -0.062445  0  -0.076143  -0.087683  0  3.961509  0
C  C61  1  0.05682640  0.87745075  0.25658507  1  0  -0.064583  0  3.728237  0  0  -0.087968  0  3.978002  0  0  -0.088999  0  4.001525  0  -0.029483  0  -0.076005  -0.087047  0  3.961908  0
C  C62  1  0.97192219  0.87859931  0.94988226  1  0  0.632414  0  3.811437  0  0  0.574974  0  4.118082  0  0  0.610905  0  4.105007  0  1.556207  0  0.247117  0.55039  0  4.126602  0
C  C63  1  0.90663128  0.87915715  0.45004241  1  0  0.631712  0  3.809317  0  0  0.57561  0  4.114881  0  0  0.611419  0  4.101888  0  1.552675  0  0.247793  0.551027  0  4.123405  0
C  C64  1  0.14081013  0.96869777  0.07222122  1  0  0.301407  0  3.553125  0  0  0.284202  0  3.807479  0  0  0.293434  0  3.816613  0  0.357306  0  0.004925  0.277894  0  3.801219  0
C  C65  1  0.82789260  0.96934599  0.57236166  1  0  0.304432  0  3.546226  0  0  0.284003  0  3.805882  0  0  0.293289  0  3.814935  0  0.377768  0  0.004495  0.277626  0  3.799668  0
C  C66  1  0.09917294  0.05547005  0.13653999  1  0  -0.355951  0  3.676785  0  0  -0.437755  0  3.91737  0  0  -0.440878  0  3.927051  0  -0.071367  0  -0.252139  -0.435333  0  3.910674  0
C  C67  1  0.95639607  0.05610430  0.63666568  1  0  -0.355532  0  3.675965  0  0  -0.436535  0  3.917287  0  0  -0.439631  0  3.926965  0  -0.058618  0  -0.251875  -0.434147  0  3.910609  0
C  C68  1  0.33844084  0.99056308  0.06236061  1  0  -0.355014  0  3.67142  0  0  -0.435215  0  3.908883  0  0  -0.438551  0  3.918558  0  -0.084792  0  -0.243892  -0.432639  0  3.902141  0
C  C69  1  0.65206384  0.99112750  0.56252167  1  0  -0.355257  0  3.67142  0  0  -0.434217  0  3.909511  0  0  -0.437553  0  3.919216  0  -0.03925  0  -0.2432  -0.431623  0  3.902727  0
C  C70  1  0.09877970  0.77468036  0.71256155  1  0  0.032669  0  3.725345  0  0  0.018671  0  3.974563  0  0  0.029854  0  3.989368  0  -0.040475  0  0.029037  0.011875  0  3.964149  0
C  C71  1  0.67591004  0.77491040  0.21257113  1  0  0.032514  0  3.727295  0  0  0.018925  0  3.975579  0  0  0.030093  0  3.990244  0  0.022844  0  0.028903  0.012132  0  3.965202  0
C  C72  1  0.01343536  0.66062569  0.68897932  1  0  -0.158907  0  3.944112  0  0  -0.142598  0  4.186532  0  0  -0.155312  0  4.206323  0  0.231093  0  -0.024674  -0.134386  0  4.173287  0
C  C73  1  0.64705825  0.66083601  0.18897131  1  0  -0.156862  0  3.943354  0  0  -0.140929  0  4.18565  0  0  -0.153507  0  4.205251  0  0.198397  0  -0.023901  -0.132694  0  4.172381  0
C  C74  1  0.19132549  0.83891658  0.66994046  1  0  -0.147075  0  3.934108  0  0  -0.129997  0  4.17539  0  0  -0.141917  0  4.194307  0  0.264466  0  -0.019266  -0.12236  0  4.162848  0
C  C75  1  0.64773462  0.83918030  0.16994779  1  0  -0.149999  0  3.938033  0  0  -0.132532  0  4.178435  0  0  -0.144369  0  4.197155  0  0.265217  0  -0.020105  -0.124985  0  4.166038  0
C  C76  1  0.28399643  0.95204616  0.70387864  1  0  0.2566  0  3.830473  0  0  0.240165  0  4.109279  0  0  0.250745  0  4.128749  0  0.81516  0  0.174262  0.233072  0  4.096278  0
C  C77  1  0.66780078  0.95223759  0.20397614  1  0  0.257845  0  3.832796  0  0  0.241109  0  4.111494  0  0  0.251671  0  4.130894  0  0.791623  0  0.174378  0.234046  0  4.098528  0
C  C78  1  0.20317972  0.79760057  0.59206247  1  0  0.322316  0  3.811945  0  0  0.309235  0  4.074057  0  0  0.322816  0  4.091932  0  0.824411  0  0.197285  0.30007  0  4.062102  0
C  C79  1  0.59487133  0.79793741  0.09205005  1  0  0.323656  0  3.81032  0  0  0.310386  0  4.072311  0  0  0.323939  0  4.090104  0  0.81558  0  0.197756  0.30125  0  4.060416  0
C  C80  1  0.94083633  0.61081627  0.74303710  1  0  0.300283  0  3.835863  0  0  0.2836  0  4.11079  0  0  0.295032  0  4.13173  0  0.845206  0  0.185629  0.275906  0  4.096705  0
C  C81  1  0.66982561  0.61102331  0.24303583  1  0  0.299398  0  3.834966  0  0  0.282685  0  4.11019  0  0  0.294067  0  4.131084  0  0.814635  0  0.185425  0.274983  0  4.096098  0
C  C82  1  0.00119224  0.58933136  0.61506259  1  0  0.293329  0  3.827637  0  0  0.279083  0  4.096245  0  0  0.291862  0  4.114934  0  0.842845  0  0.185481  0.270514  0  4.083667  0
C  C83  1  0.58793264  0.58950306  0.11507598  1  0  0.29269  0  3.828957  0  0  0.278553  0  4.097559  0  0  0.291297  0  4.116221  0  0.860795  0  0.18435  0.269961  0  4.08498  0
C  C84  1  0.35395333  0.39909071  0.69883158  1  0  0.384006  0  3.732166  0  0  0.370531  0  3.99225  0  0  0.389467  0  3.995922  0  0.965123  0  0.175087  0.357355  0  3.98981  0
C  C85  1  0.04490335  0.39855915  0.19867980  1  0  0.384398  0  3.729656  0  0  0.36972  0  3.991554  0  0  0.388562  0  3.995338  0  0.972256  0  0.175088  0.356643  0  3.98886  0
C  C86  1  0.15917113  0.36677748  0.70360472  1  0  -0.064037  0  3.760901  0  0  -0.057084  0  3.996147  0  0  -0.064582  0  4.022151  0  -0.020803  0  -0.014005  -0.052023  0  3.978575  0
C  C87  1  0.20742421  0.36635519  0.20351289  1  0  -0.066074  0  3.763597  0  0  -0.058315  0  3.998183  0  0  -0.065818  0  4.024191  0  -0.026347  0  -0.013489  -0.053249  0  3.980625  0
C  C88  1  0.08782294  0.33759690  0.76617186  1  0  -0.039847  0  3.697812  0  0  -0.027505  0  3.93546  0  0  -0.029995  0  3.954253  0  -0.072929  0  0.012053  -0.025737  0  3.922784  0
C  C89  1  0.24968965  0.33732742  0.26612443  1  0  -0.038079  0  3.697258  0  0  -0.025782  0  3.933972  0  0  -0.028349  0  3.952636  0  -0.02223  0  0.011812  -0.02406  0  3.921502  0
C  C90  1  0.90320604  0.29841451  0.76695027  1  0  -0.073452  0  3.694865  0  0  -0.096928  0  3.944361  0  0  -0.099391  0  3.963531  0  0.027571  0  -0.066756  -0.09526  0  3.931264  0
C  C91  1  0.39533185  0.29833975  0.26695476  1  0  -0.07353  0  3.693797  0  0  -0.097072  0  3.943486  0  0  -0.099524  0  3.962718  0  -0.001435  0  -0.066199  -0.095377  0  3.930403  0
C  C92  1  0.78815633  0.28878980  0.70683084  1  0  -0.002325  0  3.671822  0  0  -0.021016  0  3.925082  0  0  -0.01989  0  3.943078  0  -0.002836  0  -0.056135  -0.021498  0  3.912663  0
C  C93  1  0.50086148  0.28887360  0.20688471  1  0  -0.002417  0  3.670857  0  0  -0.021525  0  3.924541  0  0  -0.020407  0  3.942518  0  -0.083598  0  -0.056218  -0.021989  0  3.912109  0
C  C94  1  0.85788717  0.31994790  0.64584098  1  0  -0.065695  0  3.739438  0  0  -0.080987  0  3.995275  0  0  -0.084175  0  4.016474  0  -0.036625  0  -0.08199  -0.078943  0  3.980951  0
C  C95  1  0.46223890  0.31992654  0.14585708  1  0  -0.064579  0  3.737448  0  0  -0.080074  0  3.993373  0  0  -0.083204  0  4.014628  0  0.04884  0  -0.081544  -0.078036  0  3.979001  0
C  C96  1  0.04195811  0.35869404  0.64428074  1  0  -0.070628  0  3.730613  0  0  -0.094365  0  3.983602  0  0  -0.095102  0  4.006452  0  -0.068665  0  -0.076306  -0.09364  0  3.967982  0
C  C97  1  0.31666475  0.35843278  0.14422978  1  0  -0.070992  0  3.732346  0  0  -0.094831  0  3.985188  0  0  -0.095566  0  4.008044  0  -0.057679  0  -0.077029  -0.094105  0  3.969583  0
C  C98  1  0.20438528  0.35566490  0.83485651  1  0  0.632152  0  3.806525  0  0  0.574095  0  4.116329  0  0  0.609558  0  4.103612  0  1.551774  0  0.246194  0.549681  0  4.124783  0
C  C99  1  0.15110796  0.35543650  0.33479354  1  0  0.63189  0  3.806565  0  0  0.574486  0  4.114926  0  0  0.610263  0  4.10164  0  1.544068  0  0.246503  0.54995  0  4.123616  0
C  C100  1  0.30196154  0.26729831  0.91382270  1  0  0.306071  0  3.555205  0  0  0.287533  0  3.811907  0  0  0.296517  0  3.821774  0  0.342283  0  0.005084  0.28136  0  3.805114  0
C  C101  1  0.96528052  0.26721286  0.41381636  1  0  0.306251  0  3.555049  0  0  0.287457  0  3.811621  0  0  0.296466  0  3.82148  0  0.350343  0  0.004189  0.281263  0  3.80484  0
C  C102  1  0.48728687  0.26522137  0.89259788  1  0  -0.361211  0  3.675462  0  0  -0.439798  0  3.912507  0  0  -0.443522  0  3.922381  0  -0.079868  0  -0.248245  -0.436864  0  3.905638  0
C  C103  1  0.77798828  0.26533311  0.39259558  1  0  -0.362242  0  3.678061  0  0  -0.441333  0  3.914838  0  0  -0.445114  0  3.924681  0  -0.049286  0  -0.248606  -0.438386  0  3.907984  0
C  C104  1  0.20072856  0.16926592  0.93681687  1  0  -0.354685  0  3.681485  0  0  -0.438622  0  3.930521  0  0  -0.441003  0  3.938627  0  -0.041948  0  -0.251501  -0.436713  0  3.924949  0
C  C105  1  0.96824553  0.16920102  0.43687938  1  0  -0.354278  0  3.679663  0  0  -0.438182  0  3.928917  0  0  -0.440659  0  3.93703  0  -0.051002  0  -0.251303  -0.43622  0  3.923327  0
C  C106  1  0.42655704  0.45778871  0.64192572  1  0  0.03013  0  3.721666  0  0  0.016805  0  3.971328  0  0  0.027901  0  3.98628  0  -0.011052  0  0.028268  0.009883  0  3.960874  0
C  C107  1  0.03133065  0.45722101  0.14174320  1  0  0.031915  0  3.72355  0  0  0.017947  0  3.973819  0  0  0.029038  0  3.988617  0  -0.023053  0  0.028383  0.011116  0  3.96335  0
C  C108  1  0.44927274  0.39281801  0.57058461  1  0  -0.148276  0  3.932785  0  0  -0.133032  0  4.176617  0  0  -0.144579  0  4.19487  0  0.212123  0  -0.021834  -0.125434  0  4.164256  0
C  C109  1  0.94359105  0.39229713  0.07041014  1  0  -0.149629  0  3.934241  0  0  -0.134169  0  4.17819  0  0  -0.145739  0  4.196462  0  0.183729  0  -0.021971  -0.126658  0  4.165919  0
C  C110  1  0.46566228  0.57273068  0.66935014  1  0  -0.155582  0  3.939156  0  0  -0.139686  0  4.181759  0  0  -0.152351  0  4.201584  0  0.3098  0  -0.023516  -0.131373  0  4.168387  0
C  C111  1  0.10777715  0.57211039  0.16916417  1  0  -0.156988  0  3.941512  0  0  -0.139767  0  4.182438  0  0  -0.152185  0  4.201803  0  0.278905  0  -0.023713  -0.131623  0  4.169314  0
C  C112  1  0.44938193  0.62304208  0.74578837  1  0  0.301256  0  3.834792  0  0  0.283786  0  4.11128  0  0  0.295334  0  4.132121  0  0.76439  0  0.184596  0.275965  0  4.097238  0
C  C113  1  0.17406620  0.62240536  0.24563980  1  0  0.300834  0  3.833964  0  0  0.283172  0  4.109817  0  0  0.294635  0  4.130547  0  0.788225  0  0.184625  0.275386  0  4.095872  0
C  C114  1  0.52968720  0.64460423  0.62720276  1  0  0.29156  0  3.826866  0  0  0.277708  0  4.095769  0  0  0.290421  0  4.114534  0  0.794653  0  0.18432  0.269152  0  4.083103  0
C  C115  1  0.11617881  0.64407513  0.12704939  1  0  0.292137  0  3.828601  0  0  0.27799  0  4.096869  0  0  0.290618  0  4.115572  0  0.814027  0  0.184958  0.269478  0  4.084235  0
C  C116  1  0.50981316  0.43535406  0.51183332  1  0  0.317101  0  3.811699  0  0  0.304559  0  4.075431  0  0  0.318184  0  4.092766  0  0.828862  0  0.195475  0.295294  0  4.063803  0
C  C117  1  0.92585079  0.43491616  0.01167690  1  0  0.3183  0  3.812194  0  0  0.305661  0  4.075946  0  0  0.319272  0  4.093287  0  0.821285  0  0.195791  0.29643  0  4.064323  0
C  C118  1  0.41881127  0.27837309  0.55447085  1  0  0.257742  0  3.828584  0  0  0.242309  0  4.105939  0  0  0.252771  0  4.125527  0  0.74157  0  0.171113  0.235231  0  4.092793  0
C  C119  1  0.85913054  0.27789576  0.05430692  1  0  0.256176  0  3.831374  0  0  0.240734  0  4.108791  0  0  0.251192  0  4.128393  0  0.82338  0  0.170473  0.23368  0  4.095651  0
N  N120  1  0.88728608  0.57232400  0.78995930  1  0  -0.486948  0  2.651917  0  0  -0.467354  0  2.902216  0  0  -0.478996  0  2.914786  0  -1.187032  0  -0.425627  -0.459472  0  2.893831  0
N  N121  1  0.68491152  0.57254418  0.28996781  1  0  -0.486222  0  2.650337  0  0  -0.466421  0  2.900527  0  0  -0.478058  0  2.913159  0  -1.18825  0  -0.425221  -0.458527  0  2.892104  0
N  N122  1  0.98687253  0.52752042  0.55431815  1  0  -0.451669  0  2.609928  0  0  -0.428113  0  2.843219  0  0  -0.439661  0  2.854585  0  -1.19002  0  -0.368546  -0.420308  0  2.835603  0
N  N123  1  0.54043535  0.52756889  0.05436434  1  0  -0.452045  0  2.610695  0  0  -0.428485  0  2.843965  0  0  -0.440055  0  2.855348  0  -1.193232  0  -0.368248  -0.420676  0  2.836361  0
N  N124  1  0.36724618  0.04491285  0.72989362  1  0  -0.387495  0  2.559595  0  0  -0.364621  0  2.774529  0  0  -0.373901  0  2.78613  0  -1.162927  0  -0.297851  -0.358459  0  2.766883  0
N  N125  1  0.67698210  0.04502212  0.23010202  1  0  -0.388239  0  2.560905  0  0  -0.365258  0  2.77581  0  0  -0.374585  0  2.787481  0  -1.1461  0  -0.29795  -0.35908  0  2.768142  0
N  N126  1  0.21291305  0.76640878  0.52726040  1  0  -0.502394  0  2.642458  0  0  -0.477221  0  2.880556  0  0  -0.490071  0  2.891861  0  -1.209425  0  -0.425499  -0.468521  0  2.873022  0
N  N127  1  0.55423377  0.76678999  0.02722304  1  0  -0.502076  0  2.641327  0  0  -0.476983  0  2.879405  0  0  -0.489832  0  2.890705  0  -1.206328  0  -0.424647  -0.468271  0  2.871869  0
N  N128  1  0.55806528  0.46836069  0.46196487  1  0  -0.498217  0  2.645831  0  0  -0.47486  0  2.887093  0  0  -0.487591  0  2.898477  0  -1.186638  0  -0.413355  -0.466244  0  2.879531  0
N  N129  1  0.91076037  0.46806986  0.96186757  1  0  -0.498603  0  2.645784  0  0  -0.47526  0  2.887035  0  0  -0.487982  0  2.898431  0  -1.190104  0  -0.412862  -0.466647  0  2.879453  0
N  N130  1  0.40022046  0.18439106  0.54073288  1  0  -0.391896  0  2.543057  0  0  -0.367705  0  2.751959  0  0  -0.377247  0  2.764804  0  -1.073934  0  -0.303042  -0.361316  0  2.743407  0
N  N131  1  0.78331007  0.18396877  0.04056283  1  0  -0.39054  0  2.544897  0  0  -0.36641  0  2.75388  0  0  -0.375961  0  2.76675  0  -1.11231  0  -0.302681  -0.360009  0  2.745303  0
N  N132  1  0.43956394  0.66216367  0.80990974  1  0  -0.489036  0  2.649203  0  0  -0.468833  0  2.899181  0  0  -0.480425  0  2.911497  0  -1.177912  0  -0.429624  -0.460988  0  2.890998  0
N  N133  1  0.22271245  0.66169456  0.30978325  1  0  -0.48906  0  2.648887  0  0  -0.468987  0  2.899036  0  0  -0.480564  0  2.911336  0  -1.175003  0  -0.430262  -0.461149  0  2.890862  0
N  N134  1  0.58110801  0.70707406  0.59409165  1  0  -0.451413  0  2.609695  0  0  -0.428599  0  2.842774  0  0  -0.44002  0  2.854149  0  -1.168534  0  -0.363706  -0.420882  0  2.835162  0
N  N135  1  0.12757820  0.70670107  0.09404513  1  0  -0.451282  0  2.610366  0  0  -0.428344  0  2.843295  0  0  -0.439811  0  2.854735  0  -1.177041  0  -0.364331  -0.420586  0  2.835634  0
O  O136  1  0.20867409  0.85113828  0.84238594  1  0  -0.430675  0  1.938765  0  0  -0.391892  0  2.142565  0  0  -0.407844  0  2.140614  0  -1.077659  0  -0.237047  -0.380605  0  2.143714  0
O  O137  1  0.64215413  0.85121386  0.34236353  1  0  -0.431436  0  1.940595  0  0  -0.392971  0  2.144249  0  0  -0.409003  0  2.142475  0  -1.080393  0  -0.23747  -0.381639  0  2.145289  0
O  O138  1  0.96136248  0.78589153  0.95161588  1  0  -0.628406  0  2.01844  0  0  -0.592165  0  2.264472  0  0  -0.614496  0  2.255758  0  -1.170625  0  -0.401614  -0.576481  0  2.270049  0
O  O139  1  0.82440200  0.78645841  0.45181897  1  0  -0.62928  0  2.016997  0  0  -0.593029  0  2.262016  0  0  -0.61533  0  2.253339  0  -1.174283  0  -0.401661  -0.577366  0  2.267628  0
O  O140  1  0.05158926  0.97217631  0.00402382  1  0  -0.334223  0  2.246585  0  0  -0.252857  0  2.468582  0  0  -0.276821  0  2.468281  0  -1.039466  0  -0.141644  -0.236464  0  2.468457  0
O  O141  1  0.92054979  0.97276291  0.50414074  1  0  -0.332959  0  2.244098  0  0  -0.252851  0  2.468336  0  0  -0.276657  0  2.467964  0  -1.03615  0  -0.141277  -0.236416  0  2.468161  0
O  O142  1  0.45991202  0.38357287  0.73922808  1  0  -0.421657  0  1.952044  0  0  -0.380884  0  2.153995  0  0  -0.397369  0  2.152592  0  -1.065915  0  -0.227498  -0.369166  0  2.154646  0
O  O143  1  0.92335048  0.38312511  0.23906845  1  0  -0.42114  0  1.948165  0  0  -0.380016  0  2.150802  0  0  -0.396405  0  2.149287  0  -1.077368  0  -0.227472  -0.368411  0  2.151564  0
O  O144  1  0.28742626  0.44810649  0.87706064  1  0  -0.626994  0  2.015658  0  0  -0.590356  0  2.261866  0  0  -0.612869  0  2.253952  0  -1.176338  0  -0.391939  -0.574514  0  2.266979  0
O  O145  1  0.16038419  0.44785180  0.37693022  1  0  -0.625644  0  2.013906  0  0  -0.58953  0  2.259987  0  0  -0.612136  0  2.251906  0  -1.175919  0  -0.391296  -0.573646  0  2.26515  0
O  O146  1  0.19532905  0.26157524  0.84677066  1  0  -0.330317  0  2.207332  0  0  -0.254414  0  2.429841  0  0  -0.276895  0  2.427379  0  -1.029498  0  -0.146275  -0.238892  0  2.431152  0
O  O147  1  0.06614026  0.26135752  0.34675683  1  0  -0.331522  0  2.207085  0  0  -0.255761  0  2.429212  0  0  -0.27833  0  2.426561  0  -1.032631  0  -0.146665  -0.2402  0  2.430613  0
