# generated using pymatgen
data_PrH12C9NO10
_symmetry_space_group_name_H-M   'P 1'
_cell_length_a   7.26898359
_cell_length_b   11.73038602
_cell_length_c   18.76353575
_cell_angle_alpha   99.72402238
_cell_angle_beta   90.00153915
_cell_angle_gamma   90.00084883
_symmetry_Int_Tables_number   1
_chemical_formula_structural   PrH12C9NO10
_chemical_formula_sum   'Pr4 H48 C36 N4 O40'
_cell_volume   1576.94226267
_cell_formula_units_Z   4
loop_
 _symmetry_equiv_pos_site_id
 _symmetry_equiv_pos_as_xyz
  1  'x, y, z'
loop_
 _atom_site_type_symbol
 _atom_site_label
 _atom_site_symmetry_multiplicity
 _atom_site_fract_x
 _atom_site_fract_y
 _atom_site_fract_z
 _atom_site_occupancy
 _atom_site_pbe_bader_charge
 _atom_site_pbe_bader_spin_density
 _atom_site_pbe_cm5_charge
 _atom_site_pbe_ddec_charge
 _atom_site_pbe_ddec_spin_density
 _atom_site_pbe_ddec_sum_bond_order
 _atom_site_pbe_magmom
Pr  Pr0  1  0.27014903  0.30796694  0.36829848  1  2.285428  0  1.479818  2.164966  0  2.06162  0
Pr  Pr1  1  0.77015025  0.19203893  0.13170207  1  2.285462  0  1.479848  2.164966  0  2.061606  0
Pr  Pr2  1  0.72985140  0.69201660  0.63169959  1  2.285305  0  1.479817  2.164876  0  2.061779  0
Pr  Pr3  1  0.22985019  0.80797312  0.86829759  1  2.285465  0  1.479881  2.164994  0  2.061652  0
H  H4  1  0.00226460  0.12944240  0.27983092  1  0.619486  0  0.295437  0.387884  0  0.956717  0
H  H5  1  0.50229540  0.37055792  0.22017800  1  0.619599  0  0.295504  0.387994  0  0.956557  0
H  H6  1  0.99772895  0.87055071  0.72016964  1  0.619438  0  0.29542  0.387833  0  0.956755  0
H  H7  1  0.49770228  0.62944134  0.77982579  1  0.619654  0  0.295508  0.388034  0  0.956506  0
H  H8  1  0.16183643  0.06923134  0.32020339  1  0.655365  0  0.286846  0.385694  0  0.960558  0
H  H9  1  0.66183696  0.43076696  0.17979051  1  0.655837  0  0.28686  0.385629  0  0.960652  0
H  H10  1  0.83816538  0.93075115  0.67978872  1  0.655974  0  0.286886  0.38572  0  0.960542  0
H  H11  1  0.33815522  0.56923838  0.82021492  1  0.655808  0  0.286878  0.385683  0  0.960562  0
H  H12  1  0.83225618  0.40936122  0.36420029  1  0.634324  0  0.329394  0.433848  0  0.857489  0
H  H13  1  0.33225716  0.09064179  0.13579531  1  0.634423  0  0.329422  0.433813  0  0.857534  0
H  H14  1  0.16775251  0.59063708  0.63580075  1  0.634275  0  0.329342  0.433768  0  0.857597  0
H  H15  1  0.66773364  0.90936494  0.86420011  1  0.63433  0  0.329426  0.433879  0  0.857462  0
H  H16  1  0.92675450  0.35586889  0.28985286  1  0.636241  0  0.308763  0.407607  0  0.924215  0
H  H17  1  0.42675913  0.14412757  0.21014473  1  0.636267  0  0.308794  0.407604  0  0.924195  0
H  H18  1  0.07323493  0.64412929  0.71014443  1  0.636272  0  0.308781  0.40762  0  0.924204  0
H  H19  1  0.57324681  0.85585844  0.78984983  1  0.636209  0  0.308783  0.407771  0  0.924002  0
H  H20  1  0.28477138  0.55205403  0.32336543  1  0.626084  0  0.336746  0.427337  0  0.854754  0
H  H21  1  0.78476385  0.94794476  0.17663316  1  0.626007  0  0.336785  0.427382  0  0.854684  0
H  H22  1  0.71524281  0.44793290  0.67663082  1  0.625995  0  0.336744  0.427307  0  0.854795  0
H  H23  1  0.21525310  0.05206388  0.82336778  1  0.625943  0  0.33675  0.427354  0  0.854745  0
H  H24  1  0.28290372  0.57971326  0.40955569  1  0.64441  0  0.303454  0.401938  0  0.926569  0
H  H25  1  0.78290334  0.92030536  0.09044367  1  0.644731  0  0.303378  0.401755  0  0.926755  0
H  H26  1  0.71710635  0.42027969  0.59044006  1  0.644316  0  0.303482  0.401963  0  0.926488  0
H  H27  1  0.21709435  0.07970935  0.90955837  1  0.644449  0  0.303442  0.401936  0  0.926567  0
H  H28  1  0.18414920  0.49350955  0.49878000  1  0.624069  0  0.296356  0.381179  0  0.963701  0
H  H29  1  0.68415904  0.00649779  0.00121817  1  0.623816  0  0.296357  0.381077  0  0.96385  0
H  H30  1  0.81585949  0.50647922  0.50121962  1  0.624108  0  0.29631  0.381136  0  0.963765  0
H  H31  1  0.31586753  0.99351256  0.99878239  1  0.623285  0  0.296376  0.381214  0  0.963665  0
H  H32  1  0.04816487  0.38596288  0.50406856  1  0.650155  0  0.305591  0.398758  0  0.930951  0
H  H33  1  0.54815915  0.11403726  0.99593658  1  0.65017  0  0.305541  0.398671  0  0.931077  0
H  H34  1  0.95183694  0.61402848  0.49593131  1  0.65021  0  0.305612  0.398817  0  0.93088  0
H  H35  1  0.45184679  0.88596456  0.00406692  1  0.650148  0  0.305534  0.398631  0  0.931114  0
H  H36  1  0.25333419  0.83339392  0.44075968  1  0.133165  0  0.114712  0.117943  0  0.997098  0
H  H37  1  0.75332017  0.66661726  0.05923387  1  0.13316  0  0.114758  0.117951  0  0.997084  0
H  H38  1  0.74666625  0.16659132  0.55923748  1  0.133071  0  0.114752  0.117964  0  0.997147  0
H  H39  1  0.24666651  0.33340516  0.94076675  1  0.133101  0  0.114776  0.118035  0  0.997111  0
H  H40  1  0.18894839  0.21391734  0.65478509  1  0.053617  0  0.096196  0.140258  0  0.99047  0
H  H41  1  0.68895970  0.28607336  0.84522172  1  0.054044  0  0.096163  0.140199  0  0.990438  0
H  H42  1  0.81101765  0.78607470  0.34520897  1  0.053764  0  0.096258  0.140325  0  0.990548  0
H  H43  1  0.31104349  0.71394333  0.15478796  1  0.053791  0  0.096182  0.140309  0  0.990501  0
H  H44  1  0.08111606  0.21575551  0.56880371  1  0.077669  0  0.096045  0.140582  0  1.016027  0
H  H45  1  0.58113189  0.28423553  0.93120093  1  0.077234  0  0.096083  0.14068  0  1.01612  0
H  H46  1  0.91886511  0.78422436  0.43118762  1  0.077524  0  0.096029  0.140656  0  1.015868  0
H  H47  1  0.41887542  0.71577856  0.06880851  1  0.07746  0  0.096101  0.140784  0  1.0161  0
H  H48  1  0.31787879  0.24119492  0.57767637  1  0.087772  0  0.101763  0.153321  0  0.986362  0
H  H49  1  0.81789203  0.25881735  0.92233595  1  0.087488  0  0.101751  0.153231  0  0.986477  0
H  H50  1  0.68209550  0.75879719  0.42231983  1  0.087526  0  0.10175  0.153307  0  0.986423  0
H  H51  1  0.18211665  0.74120535  0.07767322  1  0.088041  0  0.101801  0.153364  0  0.986336  0
C  C52  1  0.23916966  0.06395699  0.57694947  1  0.477499  0  0.143968  0.331626  0  3.890242  0
C  C53  1  0.73916375  0.43604099  0.92305055  1  0.476878  0  0.144011  0.33162  0  3.890489  0
C  C54  1  0.76082114  0.93603604  0.42304841  1  0.477234  0  0.143966  0.331746  0  3.890218  0
C  C55  1  0.26082981  0.56397299  0.07695568  1  0.476502  0  0.144031  0.33181  0  3.890258  0
C  C56  1  0.24232646  0.00163101  0.50529870  1  0.024434  0  -0.011148  -0.13961  0  3.88669  0
C  C57  1  0.74231870  0.49837571  0.99470377  1  0.024769  0  -0.011191  -0.139924  0  3.887093  0
C  C58  1  0.75766297  0.99835684  0.49469924  1  0.024855  0  -0.01124  -0.139975  0  3.887142  0
C  C59  1  0.25766797  0.50164265  0.00530446  1  0.025208  0  -0.011222  -0.140098  0  3.887167  0
C  C60  1  0.25942416  0.88162851  0.49568888  1  -0.030366  0  -0.056092  -0.050532  0  3.94423  0
C  C61  1  0.75940934  0.61837765  0.00430693  1  -0.030271  0  -0.056088  -0.050275  0  3.944226  0
C  C62  1  0.74058040  0.11835322  0.50430636  1  -0.029987  0  -0.056102  -0.050383  0  3.944239  0
C  C63  1  0.24057596  0.38164483  0.99569529  1  -0.029965  0  -0.05613  -0.050374  0  3.944195  0
C  C64  1  0.28871709  0.82490435  0.55430181  1  -0.029896  0  -0.011601  -0.13571  0  3.996749  0
C  C65  1  0.78871347  0.67509725  0.94569390  1  -0.030054  0  -0.011709  -0.136011  0  3.997058  0
C  C66  1  0.71128059  0.17508259  0.44569444  1  -0.030086  0  -0.011651  -0.135874  0  3.997118  0
C  C67  1  0.21129109  0.32491393  0.05430567  1  -0.030132  0  -0.011723  -0.136108  0  3.997268  0
C  C68  1  0.29441022  0.89499174  0.62301497  1  0.558186  0  0.132219  0.096838  0  3.982495  0
C  C69  1  0.79440570  0.60500396  0.87698291  1  0.558253  0  0.132293  0.096944  0  3.982529  0
C  C70  1  0.70559159  0.10499945  0.37697954  1  0.558117  0  0.132328  0.096791  0  3.982617  0
C  C71  1  0.20559198  0.39500556  0.12301864  1  0.558231  0  0.132283  0.096927  0  3.982144  0
C  C72  1  0.20490981  0.19117360  0.59606832  1  -0.082312  0  -0.237346  -0.443147  0  3.926314  0
C  C73  1  0.70491746  0.30882068  0.90393686  1  -0.081459  0  -0.237329  -0.443026  0  3.926487  0
C  C74  1  0.79506723  0.80881503  0.40392702  1  -0.081793  0  -0.237353  -0.443275  0  3.926212  0
C  C75  1  0.29508985  0.69119078  0.09607127  1  -0.081708  0  -0.237372  -0.443424  0  3.926492  0
C  C76  1  0.22782205  0.05538885  0.43792882  1  1.614442  0  0.21964  0.615276  0  4.186692  0
C  C77  1  0.72780514  0.44461559  0.06207008  1  1.61361  0  0.219583  0.615197  0  4.186719  0
C  C78  1  0.77218527  0.94459200  0.56206580  1  1.614415  0  0.219612  0.615164  0  4.186474  0
C  C79  1  0.27218291  0.55540439  0.93793511  1  1.614118  0  0.219718  0.61532  0  4.186372  0
C  C80  1  0.30616875  0.69613010  0.54172033  1  1.60262  0  0.238932  0.633415  0  4.168742  0
C  C81  1  0.80618279  0.80386477  0.95827441  1  1.603914  0  0.238924  0.63332  0  4.168547  0
C  C82  1  0.69383168  0.30385711  0.45828448  1  1.603807  0  0.238938  0.633533  0  4.168319  0
C  C83  1  0.19382315  0.19614293  0.04172431  1  1.603437  0  0.238889  0.633481  0  4.168576  0
C  C84  1  0.33975685  0.85263431  0.69266512  1  1.587188  0  0.255713  0.625988  0  4.131562  0
C  C85  1  0.83975952  0.64735761  0.80733237  1  1.587202  0  0.255698  0.625933  0  4.131537  0
C  C86  1  0.66025047  0.14736737  0.30733411  1  1.587343  0  0.255712  0.626084  0  4.131118  0
C  C87  1  0.16023541  0.35264071  0.19266921  1  1.586669  0  0.255617  0.625872  0  4.130916  0
N  N88  1  0.26369848  0.00902813  0.63379339  1  -1.174479  0  -0.31256  -0.329238  0  3.256047  0
N  N89  1  0.76369543  0.49096758  0.86620722  1  -1.174575  0  -0.312542  -0.329166  0  3.256263  0
N  N90  1  0.73629370  0.99096133  0.36620096  1  -1.174893  0  -0.312478  -0.32907  0  3.255918  0
N  N91  1  0.23629675  0.50904469  0.13379939  1  -1.174949  0  -0.312494  -0.329046  0  3.255768  0
O  O92  1  0.24783602  0.16582822  0.44507646  1  -1.228068  0  -0.431007  -0.700395  0  2.295157  0
O  O93  1  0.74782153  0.33417743  0.05492543  1  -1.227984  0  -0.430931  -0.700229  0  2.295127  0
O  O94  1  0.75216441  0.83415266  0.55491923  1  -1.228472  0  -0.431117  -0.700377  0  2.294989  0
O  O95  1  0.25217203  0.66584613  0.94508329  1  -1.228351  0  -0.431147  -0.70045  0  2.295028  0
O  O96  1  0.20004169  0.98886780  0.37874339  1  -1.157193  0  -0.305728  -0.525519  0  2.120901  0
O  O97  1  0.70002692  0.51113352  0.12125827  1  -1.156584  0  -0.305708  -0.525439  0  2.120803  0
O  O98  1  0.79998075  0.01111300  0.62124963  1  -1.156877  0  -0.305599  -0.525323  0  2.120846  0
O  O99  1  0.29997351  0.48888578  0.87875218  1  -1.156823  0  -0.305621  -0.525299  0  2.120753  0
O  O100  1  0.19895749  0.63888148  0.49399341  1  -1.211981  0  -0.303487  -0.586775  0  2.228284  0
O  O101  1  0.69899803  0.86112304  0.00600107  1  -1.212839  0  -0.303345  -0.586521  0  2.228116  0
O  O102  1  0.80104156  0.36110390  0.50600802  1  -1.212911  0  -0.303445  -0.586891  0  2.228316  0
O  O103  1  0.30102991  0.13888740  0.99400216  1  -1.212621  0  -0.303367  -0.586793  0  2.228108  0
O  O104  1  0.42045088  0.64731531  0.57783644  1  -1.207565  0  -0.381199  -0.647968  0  2.22819  0
O  O105  1  0.92046082  0.85268181  0.92215812  1  -1.208006  0  -0.381339  -0.647988  0  2.227872  0
O  O106  1  0.57954680  0.35267957  0.42216535  1  -1.20759  0  -0.381312  -0.648099  0  2.227617  0
O  O107  1  0.07954649  0.14732408  0.07783776  1  -1.207511  0  -0.381301  -0.648064  0  2.227966  0
O  O108  1  0.50202146  0.81656340  0.70015300  1  -1.199617  0  -0.376572  -0.631779  0  2.369307  0
O  O109  1  0.00201533  0.68342951  0.79984152  1  -1.199608  0  -0.376654  -0.631814  0  2.369595  0
O  O110  1  0.49798998  0.18343301  0.29984307  1  -1.199623  0  -0.376587  -0.631787  0  2.369305  0
O  O111  1  0.99797960  0.31657302  0.20015724  1  -1.198965  0  -0.376577  -0.631767  0  2.369457  0
O  O112  1  0.22114653  0.86307474  0.74294407  1  -1.191861  0  -0.348309  -0.616708  0  2.323495  0
O  O113  1  0.72112897  0.63691317  0.75705391  1  -1.192061  0  -0.348277  -0.61667  0  2.323248  0
O  O114  1  0.77888005  0.13693474  0.25705641  1  -1.192135  0  -0.348317  -0.616759  0  2.323037  0
O  O115  1  0.27887697  0.36308426  0.24294705  1  -1.192117  0  -0.348288  -0.6167  0  2.323061  0
O  O116  1  0.13518051  0.13481830  0.29207575  1  -1.287698  0  -0.661808  -0.879168  0  2.066305  0
O  O117  1  0.63520208  0.36518680  0.20792489  1  -1.28835  0  -0.6619  -0.879219  0  2.066283  0
O  O118  1  0.86481305  0.86517479  0.70792427  1  -1.288321  0  -0.661839  -0.879175  0  2.066294  0
O  O119  1  0.36479423  0.63481320  0.79207524  1  -1.288379  0  -0.66191  -0.879338  0  2.066219  0
O  O120  1  0.94540153  0.37392622  0.34313251  1  -1.267498  0  -0.632472  -0.87876  0  2.022637  0
O  O121  1  0.44539930  0.12606792  0.15686614  1  -1.267607  0  -0.632528  -0.878715  0  2.02271  0
O  O122  1  0.05460441  0.62608059  0.65686506  1  -1.267425  0  -0.632447  -0.878707  0  2.022825  0
O  O123  1  0.55460114  0.87391983  0.84312859  1  -1.26744  0  -0.632514  -0.878966  0  2.022508  0
O  O124  1  0.32436818  0.52399679  0.36681659  1  -1.250149  0  -0.624345  -0.836122  0  1.981593  0
O  O125  1  0.82436656  0.97601478  0.13318894  1  -1.250321  0  -0.624297  -0.835996  0  1.981766  0
O  O126  1  0.67563363  0.47598937  0.63318225  1  -1.249896  0  -0.624358  -0.836075  0  1.981592  0
O  O127  1  0.17563525  0.02400076  0.86681211  1  -1.250071  0  -0.624324  -0.836106  0  1.981609  0
O  O128  1  0.17286571  0.40743357  0.49018546  1  -1.27342  0  -0.647958  -0.842995  0  2.043207  0
O  O129  1  0.67286441  0.09257290  0.00981677  1  -1.273218  0  -0.647926  -0.842824  0  2.043339  0
O  O130  1  0.82713748  0.59255441  0.50981621  1  -1.273633  0  -0.647915  -0.842963  0  2.04324  0
O  O131  1  0.32714702  0.90743658  0.99018371  1  -1.272703  0  -0.647913  -0.842926  0  2.043341  0
