# generated using pymatgen
data_CoH8C10(SeN3)2
_symmetry_space_group_name_H-M   'P 1'
_cell_length_a   7.38248810
_cell_length_b   6.73159050
_cell_length_c   7.38503513
_cell_angle_alpha   109.72963159
_cell_angle_beta   110.27261168
_cell_angle_gamma   90.76453913
_symmetry_Int_Tables_number   1
_chemical_formula_structural   CoH8C10(SeN3)2
_chemical_formula_sum   'Co1 H8 C10 Se2 N6'
_cell_volume   320.51304666
_cell_formula_units_Z   1
loop_
 _symmetry_equiv_pos_site_id
 _symmetry_equiv_pos_as_xyz
  1  'x, y, z'
loop_
 _atom_site_type_symbol
 _atom_site_label
 _atom_site_symmetry_multiplicity
 _atom_site_fract_x
 _atom_site_fract_y
 _atom_site_fract_z
 _atom_site_occupancy
 _atom_site_pbe_cm5_charge
 _atom_site_pbe_ddec_charge
 _atom_site_pbe_ddec_spin_density
 _atom_site_pbe_ddec_sum_bond_order
 _atom_site_pbe_magmom
Co  Co0  1  0.99997497  0.00002464  0.50001860  1  0.740001  0.575682  -1.008931  3.301703  -0.914
H  H1  1  0.54666859  0.82011078  0.17785708  1  0.110557  0.080921  -0.00114  1.040224  -0.002
H  H2  1  0.25944603  0.42332152  0.76446508  1  0.118714  0.09167  0.000171  1.046777  0.0
H  H3  1  0.45336132  0.18010265  0.82204925  1  0.11064  0.081062  -0.001143  1.040338  -0.002
H  H4  1  0.74050378  0.57676690  0.23580366  1  0.118544  0.09127  0.000172  1.046898  0.0
H  H5  1  0.78790031  0.18117947  0.80815795  1  0.116019  0.098632  -0.001144  1.016119  -0.002
H  H6  1  0.74296158  0.21300919  0.24284350  1  0.122105  0.102214  0.000145  1.020229  0.0
H  H7  1  0.21212730  0.81897323  0.19175581  1  0.115982  0.098746  -0.001143  1.01601  -0.002
H  H8  1  0.25689970  0.78719322  0.75739741  1  0.122  0.102015  0.000145  1.02012  0.0
C  C9  1  0.81094098  0.78971923  0.03324589  1  0.096272  0.179015  0.008707  4.163119  0.005
C  C10  1  0.18874481  0.21031825  0.96683387  1  0.095842  0.178498  0.008686  4.162027  0.005
C  C11  1  0.52711876  0.90057982  0.32357916  1  0.045298  0.037329  -0.000415  3.951929  -0.002
C  C12  1  0.14199690  0.45488712  0.64488376  1  0.051952  0.040611  0.007108  3.903458  0.004
C  C13  1  0.47293687  0.09914578  0.67646833  1  0.045195  0.037241  -0.000422  3.953959  -0.002
C  C14  1  0.85823281  0.54502335  0.35497038  1  0.051969  0.041053  0.007077  3.903818  0.004
C  C15  1  0.65915044  0.09990340  0.66982111  1  0.046073  0.045908  -0.000625  3.957149  -0.002
C  C16  1  0.85965013  0.34008137  0.35798579  1  0.052979  0.041783  0.006571  3.896976  0.003
C  C17  1  0.34085257  0.89991197  0.33022327  1  0.045882  0.045328  -0.000623  3.956157  -0.002
C  C18  1  0.14055713  0.65989163  0.64182483  1  0.053264  0.042287  0.006571  3.895883  0.003
Se  Se19  1  0.67154809  0.62745620  0.77149045  1  -0.111946  -0.263249  0.008252  2.211003  0.003
Se  Se20  1  0.32844013  0.37249202  0.22848742  1  -0.111965  -0.263094  0.008261  2.211925  0.003
N  N21  1  0.89995947  0.89273455  0.21056508  1  -0.414343  -0.424544  0.000243  3.57991  -0.002
N  N22  1  0.09967867  0.10726168  0.78948601  1  -0.413746  -0.424055  0.000224  3.577736  -0.002
N  N23  1  0.68717511  0.00032840  0.49286662  1  -0.294535  -0.189244  -0.03778  3.501332  -0.062
N  N24  1  0.00174463  0.29156855  0.50292276  1  -0.309198  -0.12884  0.0144  3.629262  0.011
N  N25  1  0.31288814  0.99967515  0.50720895  1  -0.294596  -0.189514  -0.037782  3.501738  -0.062
N  N26  1  0.99853999  0.70834829  0.49680537  1  -0.308962  -0.128724  0.014416  3.629101  0.011
