# generated using pymatgen
data_ZnH16C24S(N2O3)2
_symmetry_space_group_name_H-M   'P 1'
_cell_length_a   7.16981521
_cell_length_b   19.06819561
_cell_length_c   21.62571839
_cell_angle_alpha   89.99974372
_cell_angle_beta   89.99989618
_cell_angle_gamma   98.84770376
_symmetry_Int_Tables_number   1
_chemical_formula_structural   ZnH16C24S(N2O3)2
_chemical_formula_sum   'Zn4 H64 C96 S4 N16 O24'
_cell_volume   2921.38836675
_cell_formula_units_Z   4
loop_
 _symmetry_equiv_pos_site_id
 _symmetry_equiv_pos_as_xyz
  1  'x, y, z'
loop_
 _atom_site_type_symbol
 _atom_site_label
 _atom_site_symmetry_multiplicity
 _atom_site_fract_x
 _atom_site_fract_y
 _atom_site_fract_z
 _atom_site_occupancy
 _atom_site_pbe_bader_charge
 _atom_site_pbe_bader_spin_density
 _atom_site_pbe_cm5_charge
 _atom_site_pbe_ddec_charge
 _atom_site_pbe_ddec_spin_density
 _atom_site_pbe_ddec_sum_bond_order
 _atom_site_pbe_magmom
Zn  Zn0  1  0.50197374  0.56521946  0.80003043  1  1.249478  0  0.701665  0.768154  0  2.349977  0
Zn  Zn1  1  0.49804446  0.93479169  0.30002921  1  1.249254  0  0.701672  0.768123  0  2.350255  0
Zn  Zn2  1  0.49801630  0.43478630  0.19997062  1  1.249507  0  0.701604  0.768076  0  2.350047  0
Zn  Zn3  1  0.50196270  0.06522147  0.69997647  1  1.249626  0  0.701694  0.76817  0  2.350157  0
H  H4  1  0.18899935  0.47115897  0.06145085  1  0.540676  0  0.306043  0.288475  0  1.00863  0
H  H5  1  0.81100817  0.02884524  0.56144926  1  0.540684  0  0.306083  0.288594  0  1.008538  0
H  H6  1  0.81101480  0.52885098  0.93854512  1  0.540655  0  0.306039  0.288517  0  1.008675  0
H  H7  1  0.18900618  0.97114239  0.43854578  1  0.540846  0  0.30609  0.288694  0  1.008647  0
H  H8  1  0.86109532  0.15429214  0.17811885  1  0.461598  0  0.328039  0.283904  0  0.921433  0
H  H9  1  0.13889859  0.34570137  0.67812565  1  0.461303  0  0.327976  0.283772  0  0.921509  0
H  H10  1  0.13887658  0.84571687  0.82188313  1  0.461509  0  0.328086  0.283779  0  0.921558  0
H  H11  1  0.86111893  0.65429370  0.32188095  1  0.461337  0  0.328006  0.283725  0  0.921425  0
H  H12  1  0.93673928  0.69921948  0.70447252  1  0.081425  0  0.102237  0.099364  0  1.040234  0
H  H13  1  0.06326347  0.80078694  0.20446745  1  0.081256  0  0.102176  0.099249  0  1.040305  0
H  H14  1  0.06324413  0.30077409  0.29551975  1  0.081601  0  0.102227  0.099302  0  1.040388  0
H  H15  1  0.93674585  0.19921824  0.79551927  1  0.08132  0  0.102175  0.099248  0  1.040362  0
H  H16  1  0.14228720  0.79403272  0.64557788  1  0.104927  0  0.104809  0.115627  0  0.995753  0
H  H17  1  0.85768570  0.70598793  0.14556486  1  0.107569  0  0.10504  0.115913  0  0.995386  0
H  H18  1  0.85767330  0.20597898  0.35442410  1  0.10708  0  0.104924  0.115736  0  0.995397  0
H  H19  1  0.14232620  0.29401353  0.85442418  1  0.107059  0  0.104959  0.115715  0  0.995337  0
H  H20  1  0.04206686  0.91204617  0.63272030  1  0.11452  0  0.099281  0.098271  0  1.043752  0
H  H21  1  0.95790782  0.58796869  0.13271878  1  0.114401  0  0.099239  0.098222  0  1.043867  0
H  H22  1  0.95790387  0.08796337  0.36728908  1  0.114402  0  0.099244  0.098172  0  1.043747  0
H  H23  1  0.04211616  0.41203167  0.86728551  1  0.114372  0  0.099251  0.098213  0  1.04364  0
H  H24  1  0.53643355  0.84099592  0.73689764  1  0.111  0  0.101548  0.104649  0  1.023275  0
H  H25  1  0.46355416  0.65900186  0.23691371  1  0.111321  0  0.101491  0.104494  0  1.02333  0
H  H26  1  0.46355623  0.15898647  0.26309601  1  0.111096  0  0.10155  0.104677  0  1.023174  0
H  H27  1  0.53649524  0.34101224  0.76308550  1  0.111466  0  0.101522  0.104571  0  1.02345  0
H  H28  1  0.44781714  0.68745272  0.88283717  1  0.133954  0  0.116101  0.098921  0  1.022488  0
H  H29  1  0.55218423  0.81254952  0.38283269  1  0.13441  0  0.116048  0.098813  0  1.022555  0
H  H30  1  0.55215365  0.31255045  0.11715880  1  0.134249  0  0.116147  0.099005  0  1.022276  0
H  H31  1  0.44779665  0.18744140  0.61715634  1  0.133716  0  0.116024  0.098635  0  1.022958  0
H  H32  1  0.33203001  0.70053493  0.99192534  1  0.102146  0  0.118384  0.126234  0  0.963794  0
H  H33  1  0.66801596  0.79947189  0.49191392  1  0.102115  0  0.118397  0.126339  0  0.963923  0
H  H34  1  0.66798741  0.29947289  0.00807525  1  0.10214  0  0.118406  0.126261  0  0.963725  0
H  H35  1  0.33196907  0.20052221  0.50807049  1  0.102229  0  0.118348  0.126285  0  0.963846  0
H  H36  1  0.22181988  0.59091675  0.05336255  1  0.137822  0  0.113216  0.122884  0  1.017071  0
H  H37  1  0.77820665  0.90908140  0.55336041  1  0.13784  0  0.113263  0.123011  0  1.016979  0
H  H38  1  0.77819844  0.40909319  0.94664128  1  0.137878  0  0.113239  0.122833  0  1.017048  0
H  H39  1  0.22181079  0.09089719  0.44663694  1  0.138234  0  0.113293  0.122885  0  1.017024  0
H  H40  1  0.35867148  0.46746987  0.89724362  1  0.15677  0  0.121194  0.111271  0  1.036261  0
H  H41  1  0.64132668  0.03252984  0.39724620  1  0.15672  0  0.121221  0.111238  0  1.036311  0
H  H42  1  0.64133106  0.53253905  0.10275003  1  0.156458  0  0.121242  0.111369  0  1.036395  0
H  H43  1  0.35868141  0.96745622  0.60276225  1  0.156328  0  0.121194  0.111289  0  1.036359  0
H  H44  1  0.02675514  0.39378523  0.12154015  1  0.146169  0  0.110253  0.134693  0  1.025084  0
H  H45  1  0.97321323  0.10620654  0.62154649  1  0.146155  0  0.11022  0.134636  0  1.024863  0
H  H46  1  0.97323157  0.60622905  0.87844795  1  0.146515  0  0.110284  0.134753  0  1.024727  0
H  H47  1  0.02679829  0.89375825  0.37845780  1  0.146866  0  0.11026  0.134636  0  1.025081  0
H  H48  1  0.94738209  0.27177021  0.17873360  1  0.127059  0  0.110245  0.122698  0  1.008994  0
H  H49  1  0.05258999  0.22822442  0.67873953  1  0.12757  0  0.110251  0.12278  0  1.008955  0
H  H50  1  0.05259950  0.72824515  0.82126838  1  0.127621  0  0.110292  0.122849  0  1.008784  0
H  H51  1  0.94736880  0.77174424  0.32128742  1  0.127391  0  0.110317  0.122843  0  1.008919  0
H  H52  1  0.65823828  0.06297230  0.22858538  1  0.15803  0  0.122829  0.108882  0  1.013571  0
H  H53  1  0.34174794  0.43703317  0.72859495  1  0.155747  0  0.122792  0.108822  0  1.013615  0
H  H54  1  0.34176424  0.93703981  0.77140966  1  0.156486  0  0.122801  0.108867  0  1.01337  0
H  H55  1  0.65822678  0.56297265  0.27140425  1  0.157491  0  0.122708  0.108695  0  1.013568  0
H  H56  1  0.83210182  0.87036540  0.26527941  1  0.120472  0  0.115088  0.091749  0  1.027024  0
H  H57  1  0.16788570  0.62962903  0.76527086  1  0.120659  0  0.115168  0.091832  0  1.026971  0
H  H58  1  0.16787955  0.12964942  0.73473922  1  0.120838  0  0.115154  0.091719  0  1.027314  0
H  H59  1  0.83210028  0.37036400  0.23473019  1  0.120467  0  0.115135  0.091745  0  1.027228  0
H  H60  1  0.14364715  0.90850119  0.21150745  1  0.125929  0  0.109492  0.122242  0  1.039177  0
H  H61  1  0.85636868  0.59149027  0.71149218  1  0.126511  0  0.109508  0.122188  0  1.039374  0
H  H62  1  0.85632885  0.09151737  0.78850424  1  0.125757  0  0.109591  0.122453  0  1.039432  0
H  H63  1  0.14365363  0.40848990  0.28850148  1  0.125903  0  0.109514  0.122369  0  1.039325  0
H  H64  1  0.20256529  0.02765504  0.15999735  1  0.165641  0  0.119814  0.140448  0  0.991828  0
H  H65  1  0.79743551  0.47233802  0.65998709  1  0.165941  0  0.119828  0.140437  0  0.991818  0
H  H66  1  0.79740960  0.97235768  0.84000371  1  0.165535  0  0.119808  0.140427  0  0.991738  0
H  H67  1  0.20255521  0.52764330  0.34001119  1  0.165693  0  0.119824  0.140375  0  0.991816  0
C  C68  1  0.59581613  0.70675839  0.75860353  1  1.551786  0  0.202716  0.573543  0  4.208434  0
C  C69  1  0.40420458  0.79324183  0.25860430  1  1.551743  0  0.202802  0.573793  0  4.208213  0
C  C70  1  0.40418078  0.29323089  0.24139290  1  1.551717  0  0.202687  0.573461  0  4.208584  0
C  C71  1  0.59582088  0.20677500  0.74137826  1  1.552116  0  0.202653  0.57334  0  4.208423  0
C  C72  1  0.72330051  0.76410722  0.72439781  1  -0.020143  0  -0.02205  -0.04225  0  3.97155  0
C  C73  1  0.27670978  0.73589428  0.22440119  1  -0.02015  0  -0.021983  -0.04219  0  3.971053  0
C  C74  1  0.27670496  0.23588575  0.27560279  1  -0.020062  0  -0.021929  -0.042211  0  3.971667  0
C  C75  1  0.72332407  0.26411933  0.77559015  1  -0.019665  0  -0.021948  -0.042102  0  3.9711  0
C  C76  1  0.89501363  0.75130785  0.69893273  1  -0.086702  0  -0.084058  -0.091267  0  3.968382  0
C  C77  1  0.10497943  0.74869544  0.19892784  1  -0.087116  0  -0.084076  -0.091302  0  3.9682  0
C  C78  1  0.10497646  0.24869155  0.30106370  1  -0.086909  0  -0.084017  -0.091235  0  3.967963  0
C  C79  1  0.89504404  0.25131023  0.80106026  1  -0.086733  0  -0.083928  -0.09117  0  3.967876  0
C  C80  1  0.01021770  0.80418376  0.66611964  1  -0.046159  0  -0.094029  -0.088803  0  4.00528  0
C  C81  1  0.98974907  0.69582935  0.16611121  1  -0.048102  0  -0.094045  -0.088817  0  4.005153  0
C  C82  1  0.98973987  0.19581785  0.33388188  1  -0.048801  0  -0.093895  -0.088425  0  4.004825  0
C  C83  1  0.01026158  0.30418221  0.83387644  1  -0.048114  0  -0.094053  -0.088573  0  4.005123  0
C  C84  1  0.95411675  0.87044924  0.65848342  1  -0.053599  0  -0.086215  -0.090018  0  3.977426  0
C  C85  1  0.04586959  0.62956385  0.15848135  1  -0.053026  0  -0.086245  -0.090133  0  3.977845  0
C  C86  1  0.04585888  0.12955870  0.34152133  1  -0.052602  0  -0.086327  -0.090292  0  3.977983  0
C  C87  1  0.95415274  0.37043916  0.84151508  1  -0.053127  0  -0.086305  -0.090248  0  3.977921  0
C  C88  1  0.78393602  0.88449352  0.68405901  1  -0.00098  0  -0.024043  -0.053417  0  3.992085  0
C  C89  1  0.21602862  0.61550833  0.18406383  1  -0.00174  0  -0.024216  -0.053643  0  3.992226  0
C  C90  1  0.21603460  0.11550273  0.31594482  1  -0.001491  0  -0.024089  -0.053408  0  3.991808  0
C  C91  1  0.78398880  0.38449949  0.81594231  1  -0.001773  0  -0.024068  -0.053373  0  3.991784  0
C  C92  1  0.66951354  0.83115550  0.71707354  1  -0.060746  0  -0.075922  -0.091525  0  3.91818  0
C  C93  1  0.33046852  0.66884187  0.21708132  1  -0.060936  0  -0.075794  -0.091202  0  3.918157  0
C  C94  1  0.33048562  0.16884227  0.28292566  1  -0.060844  0  -0.075948  -0.091588  0  3.918207  0
C  C95  1  0.66955077  0.33116382  0.78291788  1  -0.06165  0  -0.075884  -0.091489  0  3.91825  0
C  C96  1  0.72980767  0.95671846  0.67488878  1  1.541557  0  0.20878  0.578993  0  4.211333  0
C  C97  1  0.27016378  0.54328289  0.17489385  1  1.541905  0  0.208761  0.578934  0  4.21122  0
C  C98  1  0.27015900  0.04327834  0.32512245  1  1.541414  0  0.208806  0.579064  0  4.21132  0
C  C99  1  0.72983444  0.45671594  0.82510859  1  1.542229  0  0.208712  0.578764  0  4.211467  0
C  C100  1  0.40143087  0.64180312  0.91233502  1  0.464736  0  0.0362  0.058035  0  3.959863  0
C  C101  1  0.59856285  0.85819791  0.41232802  1  0.464207  0  0.036395  0.058496  0  3.95928  0
C  C102  1  0.59856961  0.35820421  0.08766742  1  0.464138  0  0.036279  0.058118  0  3.959529  0
C  C103  1  0.40140364  0.14179198  0.58766563  1  0.464759  0  0.036381  0.058695  0  3.959372  0
C  C104  1  0.33521844  0.64814158  0.97228078  1  -0.014079  0  -0.077843  -0.099857  0  4.003701  0
C  C105  1  0.66480293  0.85185638  0.47227978  1  -0.014422  0  -0.077878  -0.100166  0  4.002906  0
C  C106  1  0.66479153  0.35186838  0.02771657  1  -0.013751  0  -0.077887  -0.099979  0  4.003223  0
C  C107  1  0.33517565  0.14813241  0.52771248  1  -0.014449  0  -0.077818  -0.100206  0  4.003143  0
C  C108  1  0.27392428  0.58742847  0.00634029  1  0.005509  0  -0.066757  -0.114765  0  3.886296  0
C  C109  1  0.72612256  0.91257414  0.50633586  1  0.006309  0  -0.066847  -0.114886  0  3.886187  0
C  C110  1  0.72607964  0.41258364  0.99366215  1  0.004961  0  -0.066745  -0.114453  0  3.886031  0
C  C111  1  0.27390273  0.08740974  0.49366104  1  0.005006  0  -0.066785  -0.114413  0  3.885985  0
C  C112  1  0.27907533  0.52017140  0.98002784  1  0.348031  0  0.107231  0.216159  0  4.0029  0
C  C113  1  0.72094970  0.97982545  0.48002261  1  0.347816  0  0.107237  0.216247  0  4.002739  0
C  C114  1  0.72092396  0.47983966  0.01997275  1  0.347992  0  0.107041  0.215971  0  4.002828  0
C  C115  1  0.27909950  0.02015890  0.51997706  1  0.347117  0  0.106887  0.215807  0  4.002643  0
C  C116  1  0.34845044  0.51779707  0.91948464  1  0.487187  0  0.034613  -0.023625  0  3.887005  0
C  C117  1  0.65157134  0.98220118  0.41948452  1  0.486037  0  0.034637  -0.023532  0  3.887036  0
C  C118  1  0.65155578  0.48221715  0.08050994  1  0.48769  0  0.034539  -0.023735  0  3.887311  0
C  C119  1  0.34845719  0.01778375  0.58051746  1  0.490076  0  0.034724  -0.023468  0  3.88735  0
C  C120  1  0.21625985  0.39067283  0.99905084  1  1.401313  0  0.232861  0.481533  0  4.159454  0
C  C121  1  0.78377490  0.10932568  0.49905119  1  1.401064  0  0.232809  0.4813  0  4.15942  0
C  C122  1  0.78378350  0.60934341  0.00094652  1  1.401266  0  0.232706  0.481246  0  4.160274  0
C  C123  1  0.21623930  0.89065186  0.50094987  1  1.39921  0  0.232775  0.481359  0  4.160298  0
C  C124  1  0.14670969  0.33774728  0.04661416  1  -0.233117  0  -0.024392  -0.134384  0  4.012973  0
C  C125  1  0.85331585  0.16225324  0.54661989  1  -0.258349  0  -0.024492  -0.134446  0  4.013318  0
C  C126  1  0.85331668  0.66227167  0.95338504  1  -0.258411  0  -0.02431  -0.134169  0  4.012786  0
C  C127  1  0.14668865  0.83771794  0.45339735  1  -0.256885  0  -0.024205  -0.133826  0  4.012595  0
C  C128  1  0.05690470  0.34380607  0.10280283  1  -0.009849  0  -0.094761  -0.108295  0  3.982905  0
C  C129  1  0.94305839  0.15619591  0.60281084  1  0.015548  0  -0.094777  -0.108171  0  3.983751  0
C  C130  1  0.94305253  0.65620776  0.89718944  1  0.015748  0  -0.094887  -0.108326  0  3.982991  0
C  C131  1  0.05694636  0.84377262  0.39719623  1  0.014875  0  -0.095074  -0.108691  0  3.983698  0
C  C132  1  0.01533979  0.27815154  0.13362276  1  -0.014714  0  -0.096372  -0.111472  0  3.988835  0
C  C133  1  0.98462292  0.22184018  0.63362724  1  -0.015151  0  -0.096264  -0.111655  0  3.989182  0
C  C134  1  0.98462603  0.72186280  0.86637784  1  -0.015255  0  -0.096323  -0.111757  0  3.989304  0
C  C135  1  0.01537837  0.77812677  0.36639046  1  -0.014909  0  -0.096228  -0.111408  0  3.989725  0
C  C136  1  0.07728690  0.22347992  0.10090439  1  -0.221054  0  -0.021713  -0.130109  0  4.014648  0
C  C137  1  0.92273634  0.27652244  0.60089992  1  -0.221696  0  -0.021814  -0.130109  0  4.014471  0
C  C138  1  0.92275849  0.77654110  0.89910406  1  -0.221855  0  -0.021647  -0.129881  0  4.014989  0
C  C139  1  0.07722060  0.72344517  0.39911963  1  -0.221248  0  -0.021722  -0.130058  0  4.015171  0
C  C140  1  0.07948225  0.14868511  0.11757589  1  1.412169  0  0.234881  0.488512  0  4.167804  0
C  C141  1  0.92058146  0.35132075  0.61756095  1  1.413339  0  0.234662  0.488322  0  4.16787  0
C  C142  1  0.92057875  0.85133002  0.88243256  1  1.409632  0  0.234714  0.488275  0  4.167416  0
C  C143  1  0.07937887  0.64865800  0.38244704  1  1.408478  0  0.234986  0.488476  0  4.167582  0
C  C144  1  0.93407461  0.05457224  0.18910039  1  0.442984  0  0.10855  0.209958  0  4.036432  0
C  C145  1  0.06591871  0.44542652  0.68910315  1  0.442918  0  0.108507  0.20988  0  4.036605  0
C  C146  1  0.06592945  0.94544996  0.81089928  1  0.443854  0  0.108212  0.209474  0  4.036924  0
C  C147  1  0.93406942  0.55455853  0.31088681  1  0.444462  0  0.108267  0.209609  0  4.03627  0
C  C148  1  0.76894350  0.03023303  0.22228320  1  0.446471  0  0.042991  -0.01741  0  3.898683  0
C  C149  1  0.23104513  0.46976822  0.72228854  1  0.448511  0  0.043028  -0.017346  0  3.898488  0
C  C150  1  0.23105249  0.96978335  0.77772017  1  0.447252  0  0.043055  -0.017432  0  3.898215  0
C  C151  1  0.76893897  0.53022694  0.27770188  1  0.446546  0  0.04321  -0.017122  0  3.898298  0
C  C152  1  0.86845359  0.92232190  0.24364163  1  0.410306  0  0.039297  0.069087  0  3.937196  0
C  C153  1  0.13153241  0.57767850  0.74363516  1  0.410083  0  0.039202  0.068892  0  3.937328  0
C  C154  1  0.13152056  0.07769560  0.75636358  1  0.40934  0  0.039154  0.068979  0  3.937396  0
C  C155  1  0.86845310  0.42231347  0.25636358  1  0.409802  0  0.039401  0.069263  0  3.937064  0
C  C156  1  0.03679658  0.94336033  0.21223848  1  0.042434  0  -0.081087  -0.103841  0  3.97831  0
C  C157  1  0.96319946  0.55663703  0.71222745  1  0.041198  0  -0.08113  -0.103689  0  3.978672  0
C  C158  1  0.96317661  0.05666143  0.78776997  1  0.042268  0  -0.081094  -0.104023  0  3.978496  0
C  C159  1  0.03680403  0.44334479  0.28776944  1  0.042771  0  -0.081175  -0.104275  0  3.978443  0
C  C160  1  0.07158731  0.00981074  0.18438274  1  -0.082726  0  -0.062944  -0.112394  0  3.886337  0
C  C161  1  0.92840349  0.49018859  0.68437557  1  -0.082646  0  -0.062827  -0.112314  0  3.886578  0
C  C162  1  0.92840814  0.99021414  0.81562248  1  -0.083697  0  -0.06276  -0.111996  0  3.886248  0
C  C163  1  0.07158165  0.50979275  0.31561809  1  -0.083981  0  -0.06281  -0.111948  0  3.885997  0
S  S164  1  0.18156755  0.25197186  0.03187955  1  0.309237  0  0.119336  0.177716  0  2.883753  0
S  S165  1  0.81845254  0.24802877  0.53188079  1  0.309559  0  0.11939  0.177799  0  2.883724  0
S  S166  1  0.81844788  0.74805084  0.96812104  1  0.309887  0  0.119241  0.177614  0  2.883382  0
S  S167  1  0.18157497  0.75194076  0.46813136  1  0.309251  0  0.119273  0.177593  0  2.883359  0
N  N168  1  0.40742445  0.57758488  0.88724049  1  -1.273507  0  -0.335596  -0.222314  0  3.64811  0
N  N169  1  0.59259551  0.92241197  0.38723925  1  -1.272334  0  -0.335674  -0.222429  0  3.648537  0
N  N170  1  0.59257466  0.42241927  0.11275687  1  -1.273372  0  -0.335518  -0.222319  0  3.648211  0
N  N171  1  0.40739794  0.07757573  0.61275949  1  -1.274654  0  -0.335566  -0.222448  0  3.648445  0
N  N172  1  0.21709736  0.46034233  0.01573400  1  -1.294839  0  -0.395349  -0.378194  0  3.562564  0
N  N173  1  0.78290915  0.03965896  0.51573609  1  -1.294829  0  -0.39538  -0.378294  0  3.56238  0
N  N174  1  0.78293018  0.53967609  0.98426104  1  -1.294803  0  -0.395377  -0.378403  0  3.562359  0
N  N175  1  0.21711037  0.96032122  0.48426034  1  -1.294181  0  -0.395326  -0.378581  0  3.562396  0
N  N176  1  0.95487835  0.12267988  0.16396629  1  -1.23847  0  -0.389247  -0.365076  0  3.562721  0
N  N177  1  0.04511681  0.37731636  0.66397118  1  -1.238226  0  -0.38915  -0.364811  0  3.562842  0
N  N178  1  0.04511880  0.87733597  0.83602136  1  -1.238142  0  -0.389134  -0.364612  0  3.562808  0
N  N179  1  0.95485699  0.62266129  0.33603126  1  -1.2383  0  -0.389211  -0.364768  0  3.562601  0
N  N180  1  0.73765364  0.96576054  0.24860050  1  -1.259697  0  -0.333366  -0.214495  0  3.619534  0
N  N181  1  0.26233716  0.53424460  0.74860337  1  -1.259105  0  -0.333354  -0.214481  0  3.619357  0
N  N182  1  0.26233165  0.03425693  0.75139825  1  -1.257775  0  -0.333383  -0.214415  0  3.618996  0
N  N183  1  0.73764975  0.46574736  0.25139861  1  -1.259068  0  -0.333436  -0.214533  0  3.619552  0
O  O184  1  0.66065572  0.64649729  0.76300903  1  -1.16519  0  -0.33512  -0.559048  0  2.360572  0
O  O185  1  0.33937374  0.85350713  0.26301238  1  -1.164996  0  -0.335177  -0.55916  0  2.360437  0
O  O186  1  0.33935621  0.35350098  0.23698555  1  -1.165067  0  -0.335106  -0.55898  0  2.360351  0
O  O187  1  0.66062349  0.14649915  0.73698405  1  -1.165111  0  -0.33508  -0.559077  0  2.360553  0
O  O188  1  0.44158266  0.71808804  0.78025323  1  -1.183463  0  -0.332519  -0.566284  0  2.116355  0
O  O189  1  0.55842307  0.78190678  0.28025905  1  -1.183706  0  -0.332606  -0.566461  0  2.116486  0
O  O190  1  0.55839225  0.28189545  0.21973765  1  -1.183574  0  -0.332603  -0.5663  0  2.116555  0
O  O191  1  0.44162878  0.21811953  0.71970733  1  -1.183757  0  -0.332629  -0.566164  0  2.116463  0
O  O192  1  0.58935176  0.97156160  0.70718552  1  -1.179118  0  -0.326856  -0.553532  0  2.354254  0
O  O193  1  0.41062851  0.52843795  0.20718595  1  -1.179571  0  -0.326773  -0.553488  0  2.354535  0
O  O194  1  0.41062532  0.02843995  0.29282293  1  -1.179043  0  -0.326741  -0.553501  0  2.354488  0
O  O195  1  0.58936065  0.47156251  0.79281927  1  -1.179835  0  -0.326823  -0.553484  0  2.35443  0
O  O196  1  0.82215776  0.99892376  0.63725663  1  -1.205019  0  -0.322193  -0.577261  0  2.246901  0
O  O197  1  0.17782306  0.50107619  0.13726007  1  -1.204786  0  -0.322226  -0.577159  0  2.246563  0
O  O198  1  0.17782472  0.00107087  0.36275460  1  -1.20479  0  -0.322374  -0.57737  0  2.246876  0
O  O199  1  0.82218469  0.49892209  0.86273914  1  -1.20493  0  -0.322206  -0.577088  0  2.246687  0
O  O200  1  0.27088274  0.37180870  0.94797556  1  -1.136317  0  -0.289288  -0.477243  0  2.140271  0
O  O201  1  0.72911571  0.12819232  0.44797725  1  -1.136047  0  -0.289257  -0.477138  0  2.14  0
O  O202  1  0.72911487  0.62820820  0.05201810  1  -1.136246  0  -0.289135  -0.477039  0  2.140576  0
O  O203  1  0.27094929  0.87178985  0.55202010  1  -1.135745  0  -0.289257  -0.477199  0  2.140464  0
O  O204  1  0.18612898  0.11287863  0.09154535  1  -1.121769  0  -0.29597  -0.465151  0  2.061672  0
O  O205  1  0.81395228  0.38713530  0.59152247  1  -1.122836  0  -0.295815  -0.465107  0  2.061514  0
O  O206  1  0.81392500  0.88714289  0.90847466  1  -1.119887  0  -0.295865  -0.465178  0  2.061075  0
O  O207  1  0.18602909  0.61285349  0.40849292  1  -1.119041  0  -0.296031  -0.465228  0  2.061326  0
