# generated using pymatgen
data_CuH20C16(NO3)2
_symmetry_space_group_name_H-M   'P 1'
_cell_length_a   8.60405566
_cell_length_b   9.35464413
_cell_length_c   10.05605800
_cell_angle_alpha   100.36279578
_cell_angle_beta   90.00008102
_cell_angle_gamma   89.99995357
_symmetry_Int_Tables_number   1
_chemical_formula_structural   CuH20C16(NO3)2
_chemical_formula_sum   'Cu2 H40 C32 N4 O12'
_cell_volume   796.18838475
_cell_formula_units_Z   2
loop_
 _symmetry_equiv_pos_site_id
 _symmetry_equiv_pos_as_xyz
  1  'x, y, z'
loop_
 _atom_site_type_symbol
 _atom_site_label
 _atom_site_symmetry_multiplicity
 _atom_site_fract_x
 _atom_site_fract_y
 _atom_site_fract_z
 _atom_site_occupancy
 _atom_site_hle17_ddec_charge
 _atom_site_hle17_ddec_spin_density
 _atom_site_hle17_ddec_sum_bond_order
 _atom_site_hle17_magmom
 _atom_site_hse06_10hf_ddec_charge
 _atom_site_hse06_10hf_ddec_spin_density
 _atom_site_hse06_10hf_ddec_sum_bond_order
 _atom_site_hse06_10hf_magmom
 _atom_site_hse06_ddec_charge
 _atom_site_hse06_ddec_spin_density
 _atom_site_hse06_ddec_sum_bond_order
 _atom_site_hse06_magmom
 _atom_site_pbe_cm5_charge
 _atom_site_pbe_ddec_charge
 _atom_site_pbe_ddec_spin_density
 _atom_site_pbe_ddec_sum_bond_order
 _atom_site_pbe_magmom
Cu  Cu0  1  0.00000094  0.50000017  0.00000014  1  0.852925  -0.701243  1.784458  -0.518  0.831313  -0.784026  2.159398  -0.632  0.921558  -0.848835  2.094447  -0.717  0.732916  0.776504  -0.738392  2.20433  -0.577
Cu  Cu1  1  0.49999907  0.99999873  0.49999773  1  0.852933  -0.701264  1.784599  -0.518  0.831188  -0.784022  2.159665  -0.632  0.921517  -0.84883  2.094624  -0.717  0.732879  0.776376  -0.738376  2.204583  -0.577
H  H2  1  0.44052962  0.15912863  0.27929099  1  0.095937  -0.000966  0.948794  -0.002  0.102146  -0.000786  1.016675  -0.001  0.103806  -0.000542  1.015625  -0.001  0.116805  0.10076  -0.00099  1.017557  -0.002
H  H3  1  0.94052975  0.34086968  0.22070113  1  0.095977  -0.000967  0.948796  -0.002  0.102145  -0.000786  1.016742  -0.001  0.103821  -0.000542  1.015671  -0.001  0.116806  0.100766  -0.00099  1.017607  -0.002
H  H4  1  0.55946779  0.84087068  0.72070455  1  0.095965  -0.000965  0.948761  -0.002  0.10217  -0.000786  1.016656  -0.001  0.103836  -0.000542  1.015595  -0.001  0.116821  0.100785  -0.00099  1.017527  -0.002
H  H5  1  0.05946882  0.65912965  0.77929839  1  0.095989  -0.00097  0.948773  -0.002  0.10216  -0.000786  1.016714  -0.001  0.103834  -0.000542  1.015647  -0.001  0.11681  0.100781  -0.00099  1.017576  -0.002
H  H6  1  0.70975721  0.55472746  0.36837637  1  0.115051  -0.000265  0.968851  -0.001  0.124639  7e-06  1.02827  0.0  0.127849  5.2e-05  1.026068  0.0  0.107382  0.122078  -6.1e-05  1.030612  0.0
H  H7  1  0.20976240  0.94527243  0.13162389  1  0.115074  -0.000269  0.968802  -0.001  0.124662  7e-06  1.028225  0.0  0.127873  5.2e-05  1.026023  0.0  0.107373  0.122098  -6.1e-05  1.030568  0.0
H  H8  1  0.29023904  0.44527187  0.63162414  1  0.115066  -0.000262  0.968802  -0.001  0.12464  7e-06  1.028244  0.0  0.127848  5.2e-05  1.026046  0.0  0.107375  0.122078  -6.1e-05  1.030588  0.0
H  H9  1  0.79023849  0.05472799  0.86837779  1  0.115086  -0.000268  0.968815  -0.001  0.124655  7e-06  1.028251  0.0  0.127865  5.2e-05  1.026052  0.0  0.107393  0.122094  -6.1e-05  1.030591  0.0
H  H10  1  0.80655015  0.46703001  0.57802489  1  0.110757  -0.000582  0.95733  -0.001  0.121138  -0.000509  1.01507  -0.001  0.124362  -0.000361  1.013793  0.0  0.106541  0.118661  -0.000607  1.016292  -0.001
H  H11  1  0.30655618  0.03296874  0.92197389  1  0.110781  -0.000581  0.957374  -0.001  0.121157  -0.000509  1.015107  -0.001  0.124383  -0.000361  1.013829  0.0  0.106556  0.118681  -0.000607  1.016323  -0.001
H  H12  1  0.19344494  0.53296823  0.42197445  1  0.11077  -0.000587  0.957382  -0.001  0.121132  -0.000508  1.015133  -0.001  0.124357  -0.000361  1.013859  0.0  0.106556  0.118657  -0.000607  1.01635  -0.001
H  H13  1  0.69344471  0.96703276  0.07802797  1  0.110768  -0.000574  0.957348  -0.001  0.121139  -0.000509  1.015099  -0.001  0.124368  -0.00036  1.013812  0.0  0.106554  0.118666  -0.000607  1.016314  -0.001
H  H14  1  0.70847910  0.23204517  0.62585055  1  0.088664  -0.001104  0.966925  -0.002  0.094446  -0.000851  1.035251  -0.002  0.097041  -0.000587  1.031782  -0.001  0.119453  0.091864  -0.000938  1.038412  -0.002
H  H15  1  0.20848368  0.26795036  0.87414561  1  0.088599  -0.001099  0.966986  -0.002  0.09443  -0.000851  1.035268  -0.002  0.097026  -0.000587  1.031798  -0.001  0.119456  0.091849  -0.000938  1.038429  -0.002
H  H16  1  0.29151715  0.76795088  0.37414645  1  0.088603  -0.001105  0.966961  -0.002  0.094426  -0.000851  1.03525  -0.002  0.097023  -0.000588  1.031777  -0.001  0.119454  0.091844  -0.000938  1.038411  -0.002
H  H17  1  0.79151953  0.73205006  0.12585707  1  0.088604  -0.001097  0.967002  -0.002  0.094434  -0.000851  1.035288  -0.002  0.097029  -0.000587  1.031822  -0.001  0.11946  0.091853  -0.000938  1.038449  -0.002
H  H18  1  0.53192698  0.52665244  0.18561786  1  0.084753  -0.000462  0.938513  0.0  0.101692  -0.000314  1.000017  0.0  0.102783  -0.000198  0.999498  0.0  0.097919  0.100566  -0.000407  1.000835  0.0
H  H19  1  0.03192896  0.97334862  0.31438039  1  0.084756  -0.00046  0.938514  0.0  0.101696  -0.000314  1.000017  0.0  0.102789  -0.000198  0.999496  0.0  0.097913  0.100567  -0.000407  1.000834  0.0
H  H20  1  0.46807159  0.47334797  0.81438183  1  0.084739  -0.000463  0.938535  0.0  0.101681  -0.000313  1.000034  0.0  0.102772  -0.000198  0.999516  0.0  0.097912  0.100555  -0.000407  1.000854  0.0
H  H21  1  0.96807193  0.02665289  0.68562147  1  0.08476  -0.00046  0.938469  0.0  0.101704  -0.000313  0.99998  0.0  0.102794  -0.000198  0.999457  0.0  0.097918  0.100576  -0.000407  1.000798  0.0
H  H22  1  0.37047411  0.41252453  0.19313871  1  0.086359  -4.7e-05  0.921835  0.0  0.104851  4.4e-05  0.97874  0.0  0.104565  2.1e-05  0.980752  0.0  0.098577  0.104998  5.1e-05  0.977413  0.0
H  H23  1  0.87047459  0.08747818  0.30685901  1  0.086307  -4.8e-05  0.92191  0.0  0.10484  4.4e-05  0.97877  0.0  0.104543  2.1e-05  0.980797  0.0  0.098562  0.104986  5.1e-05  0.977445  0.0
H  H24  1  0.62952679  0.58747588  0.80685899  1  0.086346  -4.5e-05  0.921853  0.0  0.10484  4.4e-05  0.97876  0.0  0.104556  2.1e-05  0.98077  0.0  0.098561  0.104988  5.1e-05  0.977434  0.0
H  H25  1  0.12952514  0.91252223  0.69314268  1  0.086334  -3.9e-05  0.921822  0.0  0.104841  4.4e-05  0.978735  0.0  0.104543  2.1e-05  0.980761  0.0  0.098544  0.104986  5.1e-05  0.977409  0.0
H  H26  1  0.45164697  0.33169614  0.97323503  1  0.098899  7.2e-05  0.966014  0.0  0.112618  -0.0001  1.032284  0.0  0.114146  -6e-06  1.032268  0.0  0.100682  0.111347  -0.000206  1.03279  0.0
H  H27  1  0.95164809  0.16830253  0.52676193  1  0.098906  7.2e-05  0.96603  0.0  0.112621  -9.9e-05  1.032312  0.0  0.114149  -5e-06  1.032293  0.0  0.100682  0.11135  -0.000206  1.032816  0.0
H  H28  1  0.54835508  0.66830209  0.02676331  1  0.098855  6.6e-05  0.966049  0.0  0.11257  -9.9e-05  1.03233  0.0  0.114099  -6e-06  1.032314  0.0  0.10065  0.111299  -0.000206  1.032836  0.0
H  H29  1  0.04835281  0.83169898  0.47323894  1  0.098879  6.9e-05  0.966018  0.0  0.112579  -9.9e-05  1.032328  0.0  0.114105  -5e-06  1.032313  0.0  0.100665  0.111306  -0.000206  1.032831  0.0
H  H30  1  0.54206409  0.20423343  0.05347412  1  0.103336  -0.00028  0.929281  0.0  0.12204  -0.000373  0.985181  0.0  0.122924  -0.000236  0.986134  0.0  0.103808  0.121682  -0.0005  0.984244  0.0
H  H31  1  0.04206412  0.29576838  0.44652605  1  0.103313  -0.000279  0.929246  0.0  0.122054  -0.000374  0.985112  0.0  0.122937  -0.000236  0.986064  0.0  0.103817  0.121694  -0.000499  0.984176  0.0
H  H32  1  0.45793797  0.79576698  0.94652657  1  0.103327  -0.000284  0.929273  0.0  0.122034  -0.000373  0.985175  0.0  0.122918  -0.000236  0.986128  0.0  0.103807  0.121675  -0.0005  0.984236  0.0
H  H33  1  0.95793677  0.70423312  0.55347482  1  0.103342  -0.000279  0.929207  0.0  0.122078  -0.000374  0.985072  0.0  0.122962  -0.000236  0.986024  0.0  0.103824  0.121718  -0.000499  0.984136  0.0
H  H34  1  0.05800449  0.32664050  0.71386407  1  0.403051  4.1e-05  0.902584  0.0  0.37512  4.3e-05  0.966777  0.0  0.386449  2.9e-05  0.950153  0.0  0.278068  0.36714  4.9e-05  0.978442  0.0
H  H35  1  0.55800603  0.17336056  0.78613579  1  0.403041  4.2e-05  0.902591  0.0  0.375109  4.3e-05  0.966787  0.0  0.38644  2.9e-05  0.950162  0.0  0.278073  0.36713  4.9e-05  0.978452  0.0
H  H36  1  0.94199408  0.67335992  0.28613662  1  0.403042  3.7e-05  0.902586  0.0  0.375105  4.3e-05  0.966798  0.0  0.386436  2.9e-05  0.95017  0.0  0.278066  0.367125  4.9e-05  0.978463  0.0
H  H37  1  0.44199486  0.82664094  0.21386508  1  0.403025  3.6e-05  0.902603  0.0  0.375092  4.3e-05  0.966817  0.0  0.386422  2.8e-05  0.950191  0.0  0.278043  0.367112  4.9e-05  0.978483  0.0
H  H38  1  0.89029577  0.33710955  0.78577287  1  0.397895  0.000179  0.917098  0.0  0.363355  0.000197  0.990539  0.0  0.37473  0.000212  0.973655  0.0  0.273346  0.355214  0.000154  1.002584  0.0
H  H39  1  0.39029786  0.16289133  0.71422537  1  0.397882  0.000181  0.917119  0.0  0.363339  0.000197  0.990563  0.0  0.374716  0.000212  0.973678  0.0  0.273335  0.355197  0.000154  1.00261  0.0
H  H40  1  0.10970397  0.66289195  0.21422700  1  0.39787  0.000175  0.917127  0.0  0.363331  0.000197  0.990567  0.0  0.374708  0.000211  0.97368  0.0  0.273332  0.355189  0.000154  1.002612  0.0
H  H41  1  0.60970420  0.83710800  0.28577415  1  0.397854  0.000178  0.917152  0.0  0.363311  0.000197  0.990599  0.0  0.374686  0.000212  0.973714  0.0  0.273322  0.355169  0.000154  1.002645  0.0
C  C42  1  0.52097426  0.23273653  0.34133662  1  0.068964  0.011515  3.64772  0.008  0.037162  0.002439  3.895677  0.001  0.045623  0.004025  3.91425  0.003  0.043416  0.031523  0.001204  3.883691  0.0
C  C43  1  0.02097501  0.26725984  0.15865666  1  0.06889  0.01151  3.64787  0.008  0.037135  0.002443  3.895834  0.001  0.045582  0.004022  3.914396  0.003  0.043401  0.031497  0.001203  3.883854  0.0
C  C44  1  0.47902314  0.76726062  0.65866155  1  0.069005  0.011526  3.647678  0.008  0.037196  0.00244  3.895643  0.001  0.04565  0.004027  3.914212  0.003  0.043424  0.031557  0.001203  3.883657  0.0
C  C45  1  0.97902473  0.73274058  0.84134403  1  0.068918  0.011519  3.647884  0.008  0.037162  0.002443  3.895824  0.001  0.045607  0.004026  3.914386  0.003  0.043406  0.031522  0.001204  3.883841  0.0
C  C46  1  0.56643413  0.36470526  0.30651966  1  0.051526  -0.009835  3.728057  -0.011  0.075456  -0.003611  3.967014  -0.005  0.070368  -0.003242  3.991599  -0.004  -0.00264  0.078721  -0.003883  3.95099  -0.005
C  C47  1  0.06643156  0.13529435  0.19347719  1  0.051665  -0.009839  3.727898  -0.011  0.075483  -0.003614  3.967013  -0.005  0.070395  -0.003241  3.991603  -0.004  -0.002614  0.078748  -0.003883  3.950986  -0.005
C  C48  1  0.43356792  0.63529298  0.69347968  1  0.051532  -0.009848  3.72797  -0.011  0.075431  -0.003612  3.966986  -0.005  0.070345  -0.003244  3.991572  -0.004  -0.002642  0.078695  -0.003883  3.950962  -0.005
C  C49  1  0.93356817  0.86470606  0.80652350  1  0.051622  -0.009833  3.727904  -0.011  0.075449  -0.003614  3.967019  -0.005  0.070359  -0.003244  3.991606  -0.004  -0.00262  0.078714  -0.003883  3.950991  -0.005
C  C50  1  0.67148230  0.45100685  0.39201769  1  -0.056053  0.013618  3.676934  0.009  -0.081872  0.004569  3.922559  0.003  -0.078591  0.005137  3.940589  0.003  -0.0688  -0.085438  0.004289  3.912094  0.002
C  C51  1  0.17148664  0.04899271  0.10798027  1  -0.056096  0.013647  3.676874  0.009  -0.081886  0.004573  3.922521  0.003  -0.078607  0.005138  3.940552  0.003  -0.068773  -0.08545  0.004289  3.912052  0.002
C  C52  1  0.32851627  0.54899248  0.60798282  1  -0.056047  0.013616  3.676862  0.009  -0.081841  0.00457  3.922483  0.003  -0.078562  0.00514  3.940517  0.003  -0.068763  -0.085409  0.004289  3.91202  0.002
C  C53  1  0.82851542  0.95100880  0.89202259  1  -0.056118  0.013637  3.676857  0.009  -0.081875  0.004573  3.922492  0.003  -0.078596  0.005139  3.940526  0.003  -0.068796  -0.085441  0.004289  3.912026  0.002
C  C54  1  0.72418315  0.40471933  0.50817493  1  -0.114148  -0.01001  3.744908  -0.011  -0.124104  -0.003653  3.994797  -0.004  -0.131762  -0.003279  4.016713  -0.004  -0.084937  -0.11883  -0.00406  3.980392  -0.005
C  C55  1  0.22418575  0.09527946  0.99182376  1  -0.114216  -0.010013  3.745018  -0.011  -0.124142  -0.003653  3.994919  -0.004  -0.131798  -0.00328  4.016835  -0.004  -0.084982  -0.118867  -0.00406  3.980509  -0.005
C  C56  1  0.27581426  0.59527999  0.49182459  1  -0.114197  -0.010001  3.744968  -0.011  -0.124127  -0.003653  3.994867  -0.004  -0.131785  -0.00328  4.016784  -0.004  -0.084981  -0.118855  -0.00406  3.980462  -0.005
C  C57  1  0.77581630  0.90472205  0.00817810  1  -0.11418  -0.010032  3.744999  -0.011  -0.124119  -0.003654  3.994909  -0.004  -0.131775  -0.00328  4.016826  -0.004  -0.084991  -0.118848  -0.00406  3.980503  -0.005
C  C58  1  0.67144763  0.27279278  0.53622271  1  0.11266  0.01152  3.696922  0.008  0.082606  0.002598  3.953886  0.001  0.091102  0.004229  3.97319  0.003  0.04177  0.077415  0.001251  3.941305  0.0
C  C59  1  0.17145240  0.22720277  0.96377240  1  0.112791  0.011502  3.696993  0.008  0.082656  0.002595  3.953984  0.001  0.09115  0.00423  3.973282  0.003  0.041793  0.077464  0.001251  3.941407  0.0
C  C60  1  0.32854861  0.72720545  0.46377563  1  0.11273  0.01153  3.697103  0.008  0.082616  0.0026  3.954065  0.001  0.091112  0.004229  3.973371  0.003  0.041741  0.077426  0.001251  3.941483  0.0
C  C61  1  0.82855082  0.77279766  0.03623028  1  0.112799  0.011495  3.696985  0.008  0.08264  0.002599  3.954004  0.001  0.091135  0.004229  3.973299  0.003  0.041808  0.077449  0.001251  3.941425  0.0
C  C62  1  0.49801046  0.41339371  0.18435192  1  -0.121982  -0.000296  3.70573  0.0  -0.167494  -0.000744  3.956414  0.0  -0.166448  -0.000463  3.969508  0.0  -0.161453  -0.168077  -0.000896  3.94772  -0.001
C  C63  1  0.99801097  0.08660677  0.31564658  1  -0.12201  -0.000297  3.70578  0.0  -0.167512  -0.000742  3.956484  0.0  -0.166465  -0.000462  3.96958  0.0  -0.161459  -0.168095  -0.000896  3.947783  -0.001
C  C64  1  0.50199043  0.58660453  0.81564742  1  -0.121987  -0.000297  3.705738  0.0  -0.167482  -0.000745  3.95641  -0.001  -0.166441  -0.000462  3.96951  0.0  -0.161448  -0.168066  -0.000896  3.947717  -0.001
C  C65  1  0.00198993  0.91339473  0.68435429  1  -0.121969  -0.000316  3.705593  0.0  -0.167487  -0.000744  3.956349  0.0  -0.16643  -0.000462  3.96943  0.0  -0.161431  -0.168072  -0.000896  3.947649  -0.001
C  C66  1  0.54180602  0.32074351  0.04803828  1  -0.267637  -0.010631  3.671896  -0.012  -0.306995  -0.006203  3.919395  -0.007  -0.313896  -0.004228  3.929129  -0.005  -0.165345  -0.302009  -0.007711  3.912177  -0.009
C  C67  1  0.04180849  0.17925830  0.45196089  1  -0.267598  -0.010626  3.671719  -0.012  -0.30698  -0.0062  3.919301  -0.007  -0.313873  -0.004231  3.929019  -0.005  -0.165345  -0.301996  -0.007711  3.912081  -0.009
C  C68  1  0.45819371  0.67925690  0.95196142  1  -0.267546  -0.010615  3.671833  -0.012  -0.306918  -0.006203  3.919355  -0.007  -0.313817  -0.004229  3.929087  -0.005  -0.165312  -0.30193  -0.00771  3.912134  -0.009
C  C69  1  0.95819357  0.82074321  0.54804098  1  -0.267604  -0.010618  3.671679  -0.012  -0.306955  -0.006199  3.919244  -0.007  -0.313849  -0.00423  3.928958  -0.005  -0.165347  -0.301969  -0.007711  3.912022  -0.009
C  C70  1  0.69542619  0.35404540  0.98486076  1  0.696746  0.007497  3.820119  0.007  0.650863  0.001638  4.131078  0.002  0.687516  0.002166  4.124773  0.002  0.21441  0.626553  0.001099  4.132759  0.002
C  C71  1  0.19542797  0.14595557  0.51513627  1  0.696869  0.007503  3.819898  0.007  0.650907  0.001634  4.13095  0.002  0.687563  0.002168  4.124651  0.002  0.214467  0.626596  0.0011  4.132619  0.002
C  C72  1  0.30457470  0.64595610  0.01513911  1  0.696666  0.007491  3.820115  0.007  0.650833  0.001636  4.13102  0.002  0.68749  0.002167  4.124717  0.002  0.214426  0.62652  0.001099  4.132696  0.002
C  C73  1  0.80457409  0.85404483  0.48486243  1  0.69674  0.0075  3.820075  0.007  0.650798  0.00163  4.131114  0.002  0.687453  0.002166  4.124818  0.002  0.21442  0.626485  0.0011  4.132788  0.002
N  N74  1  0.57226065  0.18816207  0.45353674  1  -0.294452  -0.075988  3.371885  -0.098  -0.244838  -0.050059  3.664481  -0.069  -0.275689  -0.040732  3.688633  -0.06  -0.352641  -0.226531  -0.055419  3.650026  -0.073
N  N75  1  0.07226234  0.31183319  0.04645741  1  -0.294526  -0.075988  3.372029  -0.098  -0.244879  -0.05006  3.664587  -0.069  -0.275711  -0.040729  3.688734  -0.06  -0.352668  -0.226575  -0.055418  3.650141  -0.073
N  N76  1  0.42773559  0.81183507  0.54646043  1  -0.29454  -0.075996  3.372082  -0.098  -0.244867  -0.05006  3.664652  -0.069  -0.275715  -0.04073  3.688804  -0.06  -0.352633  -0.226561  -0.055419  3.650194  -0.073
N  N77  1  0.92773972  0.68816614  0.95354310  1  -0.294601  -0.075979  3.372087  -0.098  -0.244924  -0.05006  3.664617  -0.069  -0.275753  -0.04073  3.68876  -0.06  -0.352683  -0.22662  -0.055418  3.650168  -0.073
O  O78  1  0.78031674  0.45396639  0.05168640  1  -0.58943  -0.08437  2.065053  -0.116  -0.560264  -0.053842  2.348525  -0.082  -0.602693  -0.040176  2.343677  -0.066  -0.313904  -0.53077  -0.063391  2.350776  -0.091
O  O79  1  0.28031816  0.04603418  0.44830887  1  -0.589483  -0.084372  2.06507  -0.116  -0.560216  -0.053842  2.348527  -0.082  -0.602657  -0.040178  2.343666  -0.066  -0.313905  -0.530719  -0.063396  2.350766  -0.091
O  O80  1  0.21968416  0.54603294  0.94831411  1  -0.589349  -0.084378  2.06504  -0.116  -0.560247  -0.053842  2.348535  -0.082  -0.602675  -0.040178  2.343681  -0.066  -0.313911  -0.530754  -0.063394  2.350783  -0.091
O  O81  1  0.71968041  0.95396514  0.55168965  1  -0.58943  -0.08438  2.065112  -0.116  -0.560226  -0.053844  2.348597  -0.082  -0.602666  -0.040178  2.343734  -0.066  -0.313912  -0.530729  -0.063397  2.350835  -0.091
O  O82  1  0.72710421  0.28105261  0.86883450  1  -0.653952  -0.000232  1.998591  -0.002  -0.591296  0.000255  2.22091  -0.001  -0.619589  0.000998  2.211517  0.0  -0.313573  -0.570904  -0.000504  2.226046  -0.002
O  O83  1  0.22710496  0.21894726  0.63116338  1  -0.654045  -0.000236  1.998528  -0.002  -0.591377  0.000252  2.220889  -0.001  -0.619669  0.001  2.211484  0.0  -0.313608  -0.570988  -0.000504  2.226025  -0.002
O  O84  1  0.27289668  0.71894997  0.13116456  1  -0.653921  -0.000226  1.998579  -0.002  -0.591288  0.000257  2.220898  -0.001  -0.619586  0.000998  2.211501  0.0  -0.313572  -0.570896  -0.000504  2.226033  -0.002
O  O85  1  0.77289710  0.78105315  0.36883731  1  -0.653947  -0.000236  1.99859  -0.002  -0.59125  0.000254  2.2209  -0.001  -0.619557  0.001001  2.211525  0.0  -0.313545  -0.570861  -0.000504  2.226035  -0.002
O  O86  1  0.97412827  0.39397597  0.75162057  1  -0.8434  0.001252  1.840827  0.0  -0.806901  0.001266  2.026976  0.0  -0.825371  0.001595  1.992038  0.0  -0.605327  -0.79418  0.000671  2.051823  -0.001
O  O87  1  0.47412931  0.10602487  0.74837975  1  -0.843381  0.00125  1.840854  0.0  -0.806866  0.001265  2.027002  0.0  -0.82535  0.001594  1.99206  0.0  -0.605329  -0.79415  0.000671  2.051858  -0.001
O  O88  1  0.02587262  0.60602444  0.24837912  1  -0.843381  0.001263  1.840853  0.0  -0.806879  0.001266  2.027006  0.0  -0.825349  0.001597  1.992064  0.0  -0.605325  -0.79416  0.000671  2.051857  -0.001
O  O89  1  0.52587159  0.89397556  0.25162392  1  -0.843316  0.00126  1.840866  0.0  -0.80681  0.001266  2.027023  0.0  -0.82529  0.001595  1.992081  0.0  -0.605281  -0.794094  0.000671  2.051881  -0.001
