# generated using pymatgen
data_LiH5C5NCl
_symmetry_space_group_name_H-M   'P 1'
_cell_length_a   3.88827635
_cell_length_b   8.55887027
_cell_length_c   17.55828122
_cell_angle_alpha   89.99999840
_cell_angle_beta   89.99985228
_cell_angle_gamma   89.99988667
_symmetry_Int_Tables_number   1
_chemical_formula_structural   LiH5C5NCl
_chemical_formula_sum   'Li4 H20 C20 N4 Cl4'
_cell_volume   584.32648063
_cell_formula_units_Z   4
loop_
 _symmetry_equiv_pos_site_id
 _symmetry_equiv_pos_as_xyz
  1  'x, y, z'
loop_
 _atom_site_type_symbol
 _atom_site_label
 _atom_site_symmetry_multiplicity
 _atom_site_fract_x
 _atom_site_fract_y
 _atom_site_fract_z
 _atom_site_occupancy
 _atom_site_hle17_bader_spin_density
 _atom_site_hle17_ddec_charge
 _atom_site_hle17_ddec_spin_density
 _atom_site_hle17_ddec_sum_bond_order
 _atom_site_hle17_magmom
 _atom_site_hse06_10hf_bader_spin_density
 _atom_site_hse06_10hf_ddec_charge
 _atom_site_hse06_10hf_ddec_spin_density
 _atom_site_hse06_10hf_ddec_sum_bond_order
 _atom_site_hse06_10hf_magmom
 _atom_site_hse06_bader_spin_density
 _atom_site_hse06_ddec_charge
 _atom_site_hse06_ddec_spin_density
 _atom_site_hse06_ddec_sum_bond_order
 _atom_site_hse06_magmom
 _atom_site_pbe_bader_spin_density
 _atom_site_pbe_cm5_charge
 _atom_site_pbe_ddec_charge
 _atom_site_pbe_ddec_spin_density
 _atom_site_pbe_ddec_sum_bond_order
 _atom_site_pbe_magmom
Li  Li0  1  0.53599718  0.69818417  0.44248676  1  0  0.783034  0  0.499877  0  0  0.724718  0  0.62979  0  0  0.733426  0  0.616634  0  0  0.351254  0.718603  0  0.638965  0
Li  Li1  1  0.96400239  0.30181623  0.94248717  1  0  0.783017  0  0.4999  0  0  0.724688  0  0.629835  0  0  0.733398  0  0.616675  0  0  0.351251  0.718572  0  0.63901  0
Li  Li2  1  0.46400180  0.19818364  0.05751232  1  0  0.783022  0  0.499894  0  0  0.724706  0  0.629809  0  0  0.733414  0  0.616651  0  0  0.351257  0.718591  0  0.638983  0
Li  Li3  1  0.03599844  0.80181374  0.55751355  1  0  0.78301  0  0.499907  0  0  0.724693  0  0.629821  0  0  0.733401  0  0.616664  0  0  0.351257  0.718578  0  0.638996  0
H  H4  1  0.82151290  0.58226804  0.29572915  1  0  0.064545  0  0.950819  0  0  0.073569  0  1.018437  0  0  0.075744  0  1.016736  0  0  0.115666  0.072001  0  1.01964  0
H  H5  1  0.67849084  0.41772769  0.79573143  1  0  0.064552  0  0.950815  0  0  0.073594  0  1.018414  0  0  0.075769  0  1.016711  0  0  0.115661  0.072024  0  1.019617  0
H  H6  1  0.17848655  0.08227245  0.20426994  1  0  0.064542  0  0.950798  0  0  0.073566  0  1.018422  0  0  0.075741  0  1.016719  0  0  0.115649  0.071998  0  1.019625  0
H  H7  1  0.32151981  0.91773428  0.70427042  1  0  0.064578  0  0.950818  0  0  0.073604  0  1.018429  0  0  0.075779  0  1.016729  0  0  0.115673  0.072037  0  1.01963  0
H  H8  1  0.89203860  0.32604610  0.22899480  1  0  0.105843  0  0.977075  0  0  0.114335  0  1.040868  0  0  0.117504  0  1.039797  0  0  0.098964  0.112044  0  1.041789  0
H  H9  1  0.60796072  0.67394729  0.72899599  1  0  0.105867  0  0.977042  0  0  0.114348  0  1.040851  0  0  0.117518  0  1.039779  0  0  0.098972  0.112056  0  1.041774  0
H  H10  1  0.10795729  0.82605289  0.27100598  1  0  0.105824  0  0.977081  0  0  0.114302  0  1.040888  0  0  0.117472  0  1.039815  0  0  0.098948  0.11201  0  1.04181  0
H  H11  1  0.39204064  0.17395734  0.77100359  1  0  0.105869  0  0.97702  0  0  0.114325  0  1.040869  0  0  0.117495  0  1.039798  0  0  0.098975  0.112037  0  1.041786  0
H  H12  1  0.69365519  0.08065634  0.29696678  1  0  0.089385  0  0.94838  0  0  0.102077  0  1.006806  0  0  0.103979  0  1.006338  0  0  0.105993  0.10064  0  1.007217  0
H  H13  1  0.80633824  0.91933823  0.79696613  1  0  0.089424  0  0.948398  0  0  0.1021  0  1.006834  0  0  0.104005  0  1.006367  0  0  0.105996  0.100664  0  1.007247  0
H  H14  1  0.30634169  0.58065943  0.20303515  1  0  0.089386  0  0.948421  0  0  0.102071  0  1.006845  0  0  0.103978  0  1.006379  0  0  0.10599  0.100636  0  1.007255  0
H  H15  1  0.19365698  0.41934379  0.70303002  1  0  0.089404  0  0.948408  0  0  0.102084  0  1.006826  0  0  0.10399  0  1.006359  0  0  0.106015  0.100648  0  1.00724  0
H  H16  1  0.40607202  0.10670664  0.42290346  1  0  0.111261  0  0.968056  0  0  0.119245  0  1.031541  0  0  0.122286  0  1.030702  0  0  0.102558  0.117026  0  1.032363  0
H  H17  1  0.09391911  0.89329424  0.92290237  1  0  0.111318  0  0.967983  0  0  0.119331  0  1.031429  0  0  0.122373  0  1.030589  0  0  0.102583  0.117112  0  1.032254  0
H  H18  1  0.59392733  0.60670595  0.07709904  1  0  0.111303  0  0.968028  0  0  0.119317  0  1.03147  0  0  0.122359  0  1.03063  0  0  0.102581  0.117088  0  1.032305  0
H  H19  1  0.90607364  0.39329212  0.57709436  1  0  0.111346  0  0.968205  0  0  0.119389  0  1.031589  0  0  0.12243  0  1.03075  0  0  0.102622  0.117147  0  1.032438  0
H  H20  1  0.35095419  0.37498039  0.48093592  1  0  0.066436  0  0.963519  0  0  0.073738  0  1.032597  0  0  0.075723  0  1.031732  0  0  0.114045  0.072288  0  1.033243  0
H  H21  1  0.14903631  0.62502400  0.98093651  1  0  0.066469  0  0.963449  0  0  0.073784  0  1.032511  0  0  0.075767  0  1.031647  0  0  0.114056  0.07233  0  1.033161  0
H  H22  1  0.64904664  0.87497731  0.01906430  1  0  0.06648  0  0.963455  0  0  0.073775  0  1.032546  0  0  0.075759  0  1.031682  0  0  0.114063  0.072323  0  1.033195  0
H  H23  1  0.85095496  0.12501609  0.51906307  1  0  0.066465  0  0.963477  0  0  0.07377  0  1.032557  0  0  0.075754  0  1.031692  0  0  0.114048  0.072317  0  1.033208  0
C  C24  1  0.73221891  0.47387994  0.32189802  1  0  0.131943  0  3.745363  0  0  0.104267  0  4.002237  0  0  0.109958  0  4.020422  0  0  0.049218  0.100688  0  3.989822  0
C  C25  1  0.76778197  0.52611696  0.82189968  1  0  0.131944  0  3.745402  0  0  0.104251  0  4.002271  0  0  0.109943  0  4.020455  0  0  0.049226  0.100673  0  3.989855  0
C  C26  1  0.26777895  0.97388190  0.17810219  1  0  0.131944  0  3.745377  0  0  0.104263  0  4.002247  0  0  0.109955  0  4.02043  0  0  0.049214  0.100685  0  3.989832  0
C  C27  1  0.23221741  0.02612366  0.67810275  1  0  0.131824  0  3.745575  0  0  0.104144  0  4.002451  0  0  0.109834  0  4.020637  0  0  0.049187  0.100566  0  3.990037  0
C  C28  1  0.77406056  0.33056662  0.28530844  1  0  -0.135337  0  3.737  0  0  -0.146333  0  3.984193  0  0  -0.15378  0  4.007139  0  0  -0.085756  -0.141516  0  3.968711  0
C  C29  1  0.72594329  0.66943145  0.78531012  1  0  -0.13537  0  3.73698  0  0  -0.146365  0  3.984184  0  0  -0.153814  0  4.00713  0  0  -0.08577  -0.141546  0  3.968704  0
C  C30  1  0.22594045  0.83057095  0.21469178  1  0  -0.135354  0  3.737132  0  0  -0.146338  0  3.984333  0  0  -0.153787  0  4.007279  0  0  -0.085763  -0.141521  0  3.968853  0
C  C31  1  0.27406065  0.16943461  0.71468946  1  0  -0.135305  0  3.73717  0  0  -0.146293  0  3.984367  0  0  -0.15374  0  4.007311  0  0  -0.085729  -0.141477  0  3.968888  0
C  C32  1  0.66113399  0.19587483  0.32241290  1  0  -0.002695  0  3.722936  0  0  -0.020367  0  3.967658  0  0  -0.017744  0  3.987999  0  0  -0.065778  -0.021702  0  3.953625  0
C  C33  1  0.83885917  0.80412441  0.82241338  1  0  -0.00262  0  3.722868  0  0  -0.020271  0  3.967571  0  0  -0.017651  0  3.987914  0  0  -0.065689  -0.021608  0  3.953541  0
C  C34  1  0.33886500  0.69587672  0.17758846  1  0  -0.002623  0  3.722911  0  0  -0.020288  0  3.967625  0  0  -0.017671  0  3.987969  0  0  -0.065735  -0.021625  0  3.953589  0
C  C35  1  0.16113394  0.30413001  0.67758449  1  0  -0.002679  0  3.723052  0  0  -0.020319  0  3.967737  0  0  -0.017701  0  3.988081  0  0  -0.065795  -0.021656  0  3.953704  0
C  C36  1  0.50402540  0.20969565  0.39350248  1  0  -0.122406  0  3.725253  0  0  -0.132979  0  3.970065  0  0  -0.140085  0  3.992688  0  0  -0.0827  -0.128419  0  3.954843  0
C  C37  1  0.99596956  0.79030241  0.89350286  1  0  -0.122586  0  3.725143  0  0  -0.133181  0  3.969966  0  0  -0.140289  0  3.992589  0  0  -0.082802  -0.12862  0  3.954744  0
C  C38  1  0.49597868  0.70969623  0.10649888  1  0  -0.122515  0  3.725101  0  0  -0.133103  0  3.969907  0  0  -0.140212  0  3.992532  0  0  -0.082746  -0.128534  0  3.954687  0
C  C39  1  0.00403647  0.29030817  0.60649558  1  0  -0.122525  0  3.725529  0  0  -0.133142  0  3.970311  0  0  -0.140249  0  3.992934  0  0  -0.082777  -0.128562  0  3.955098  0
C  C40  1  0.47033390  0.35796641  0.42530572  1  0  0.131544  0  3.732978  0  0  0.106303  0  3.984307  0  0  0.111735  0  4.002795  0  0  0.049605  0.10293  0  3.971652  0
C  C41  1  0.02966492  0.64203681  0.92530638  1  0  0.131509  0  3.732861  0  0  0.10625  0  3.984185  0  0  0.111683  0  4.002675  0  0  0.049565  0.10288  0  3.971527  0
C  C42  1  0.52966443  0.85796461  0.07469450  1  0  0.131506  0  3.73295  0  0  0.106254  0  3.984298  0  0  0.111687  0  4.002787  0  0  0.04957  0.102882  0  3.971638  0
C  C43  1  0.97034429  0.14203463  0.57469434  1  0  0.131491  0  3.732939  0  0  0.106233  0  3.984292  0  0  0.111667  0  4.002781  0  0  0.04957  0.102862  0  3.97163  0
N  N44  1  0.58329390  0.48866818  0.39068384  1  0  -0.431165  0  3.222127  0  0  -0.378573  0  3.488092  0  0  -0.391155  0  3.504047  0  0  -0.408438  -0.370169  0  3.477263  0
N  N45  1  0.91670109  0.51132988  0.89068542  1  0  -0.431135  0  3.222137  0  0  -0.378525  0  3.488091  0  0  -0.391108  0  3.504048  0  0  -0.408423  -0.370121  0  3.477257  0
N  N46  1  0.41670647  0.98866883  0.10931580  1  0  -0.431129  0  3.222089  0  0  -0.378523  0  3.488042  0  0  -0.391104  0  3.503997  0  0  -0.408399  -0.370119  0  3.477212  0
N  N47  1  0.08329836  0.01132855  0.60931588  1  0  -0.431099  0  3.222068  0  0  -0.378487  0  3.488027  0  0  -0.391068  0  3.503984  0  0  -0.408407  -0.370082  0  3.477197  0
Cl  Cl48  1  0.53398535  0.65714020  0.57746524  1  0  -0.792384  0  0.719657  0  0  -0.740011  0  0.942204  0  0  -0.747597  0  0.922419  0  0  -0.344634  -0.734424  0  0.956107  0
Cl  Cl49  1  0.96601561  0.34285787  0.07746571  1  0  -0.792385  0  0.719665  0  0  -0.740004  0  0.942204  0  0  -0.747594  0  0.922428  0  0  -0.344627  -0.734416  0  0.956101  0
Cl  Cl50  1  0.46601864  0.15714200  0.92253378  1  0  -0.792385  0  0.719655  0  0  -0.739994  0  0.942199  0  0  -0.747583  0  0.922417  0  0  -0.344633  -0.734408  0  0.956097  0
Cl  Cl51  1  0.03398278  0.84285654  0.42253450  1  0  -0.792384  0  0.719652  0  0  -0.739999  0  0.942182  0  0  -0.747591  0  0.92241  0  0  -0.344632  -0.734412  0  0.95608  0
