# generated using pymatgen
data_Zn2H17C15N7O9
_symmetry_space_group_name_H-M   'P 1'
_cell_length_a   6.70474900
_cell_length_b   8.99886788
_cell_length_c   16.09120880
_cell_angle_alpha   90.00001317
_cell_angle_beta   89.99994455
_cell_angle_gamma   108.56538749
_symmetry_Int_Tables_number   1
_chemical_formula_structural   Zn2H17C15N7O9
_chemical_formula_sum   'Zn4 H34 C30 N14 O18'
_cell_volume   920.34255669
_cell_formula_units_Z   2
loop_
 _symmetry_equiv_pos_site_id
 _symmetry_equiv_pos_as_xyz
  1  'x, y, z'
loop_
 _atom_site_type_symbol
 _atom_site_label
 _atom_site_symmetry_multiplicity
 _atom_site_fract_x
 _atom_site_fract_y
 _atom_site_fract_z
 _atom_site_occupancy
 _atom_site_hle17_bader_spin_density
 _atom_site_hle17_ddec_charge
 _atom_site_hle17_ddec_spin_density
 _atom_site_hle17_ddec_sum_bond_order
 _atom_site_hle17_magmom
 _atom_site_hse06_10hf_bader_spin_density
 _atom_site_hse06_10hf_ddec_charge
 _atom_site_hse06_10hf_ddec_spin_density
 _atom_site_hse06_10hf_ddec_sum_bond_order
 _atom_site_hse06_10hf_magmom
 _atom_site_hse06_bader_spin_density
 _atom_site_hse06_ddec_charge
 _atom_site_hse06_ddec_spin_density
 _atom_site_hse06_ddec_sum_bond_order
 _atom_site_hse06_magmom
 _atom_site_pbe_bader_spin_density
 _atom_site_pbe_cm5_charge
 _atom_site_pbe_ddec_charge
 _atom_site_pbe_ddec_spin_density
 _atom_site_pbe_ddec_sum_bond_order
 _atom_site_pbe_magmom
Zn  Zn0  1  0.22957835  0.71730534  0.59977968  1  0  1.106715  0  1.767723  0  0  0.929873  0  2.234491  0  0  0.978926  0  2.174644  0  0  0.69789  0.895605  0  2.275887  0
Zn  Zn1  1  0.77042261  0.28269518  0.09978043  1  0  1.106757  0  1.767698  0  0  0.929901  0  2.234495  0  0  0.978951  0  2.174642  0  0  0.697889  0.895626  0  2.275892  0
Zn  Zn2  1  0.90426073  0.86780134  0.82259500  1  0  1.060475  0  1.752209  0  0  0.880894  0  2.198379  0  0  0.927208  0  2.145732  0  0  0.702394  0.848102  0  2.234856  0
Zn  Zn3  1  0.09573770  0.13219797  0.32259477  1  0  1.06053  0  1.752143  0  0  0.880942  0  2.198294  0  0  0.927266  0  2.14565  0  0  0.702416  0.848162  0  2.23476  0
H  H4  1  0.61797817  0.33630964  0.73519575  1  0  0.06881  0  0.994391  0  0  0.08185  0  1.061486  0  0  0.080347  0  1.065913  0  0  0.107027  0.082751  0  1.058585  0
H  H5  1  0.38202595  0.66369203  0.23519547  1  0  0.068846  0  0.994369  0  0  0.081885  0  1.061442  0  0  0.080382  0  1.065869  0  0  0.107089  0.082789  0  1.058542  0
H  H6  1  0.71785315  0.26745907  0.82447926  1  0  0.097275  0  0.903806  0  0  0.113231  0  0.959387  0  0  0.113671  0  0.960196  0  0  0.119816  0.112511  0  0.959442  0
H  H7  1  0.28214727  0.73254142  0.32447841  1  0  0.097294  0  0.903802  0  0  0.113246  0  0.95938  0  0  0.113686  0  0.960189  0  0  0.11984  0.11253  0  0.959441  0
H  H8  1  0.83798974  0.53258243  0.88386323  1  0  0.092372  0  0.963966  0  0  0.10696  0  1.024759  0  0  0.108192  0  1.024482  0  0  0.112624  0.105897  0  1.025116  0
H  H9  1  0.16201054  0.46741805  0.38386115  1  0  0.092344  0  0.96395  0  0  0.106922  0  1.02478  0  0  0.108155  0  1.024503  0  0  0.112609  0.105857  0  1.025144  0
H  H10  1  0.94410263  0.53875398  0.78226799  1  0  0.092389  0  0.907606  0  0  0.112216  0  0.960775  0  0  0.112658  0  0.961096  0  0  0.118197  0.111738  0  0.960738  0
H  H11  1  0.05589840  0.46124769  0.28226533  1  0  0.09242  0  0.907558  0  0  0.112234  0  0.960732  0  0  0.11269  0  0.96104  0  0  0.118233  0.111757  0  0.960698  0
H  H12  1  0.20591638  0.43542624  0.85687098  1  0  0.098815  0  0.923076  0  0  0.114398  0  0.979696  0  0  0.115477  0  0.979908  0  0  0.118618  0.113493  0  0.979697  0
H  H13  1  0.79408346  0.56457307  0.35687114  1  0  0.098774  0  0.923101  0  0  0.114354  0  0.979733  0  0  0.115432  0  0.979945  0  0  0.118603  0.113455  0  0.979735  0
H  H14  1  0.30464215  0.43464572  0.75282470  1  0  0.09028  0  0.95312  0  0  0.102713  0  1.016008  0  0  0.104249  0  1.015319  0  0  0.111154  0.10144  0  1.016765  0
H  H15  1  0.69535895  0.56535595  0.25282490  1  0  0.090303  0  0.953132  0  0  0.102764  0  1.015988  0  0  0.104298  0  1.015297  0  0  0.111177  0.101494  0  1.016755  0
H  H16  1  0.34383962  0.22009146  0.82932794  1  0  0.303689  0  0.885445  0  0  0.281559  0  0.951365  0  0  0.289521  0  0.945714  0  0  0.311884  0.275934  0  0.955311  0
H  H17  1  0.65616029  0.77990785  0.32932881  1  0  0.303701  0  0.885441  0  0  0.281569  0  0.951359  0  0  0.289529  0  0.94571  0  0  0.311891  0.275944  0  0.955311  0
H  H18  1  0.46841524  0.33979869  0.90875390  1  0  0.320018  0  0.876003  0  0  0.298838  0  0.942074  0  0  0.306686  0  0.935624  0  0  0.319286  0.293233  0  0.946797  0
H  H19  1  0.53158347  0.66019826  0.40875419  1  0  0.319996  0  0.876036  0  0  0.298809  0  0.94212  0  0  0.306658  0  0.93567  0  0  0.319266  0.293208  0  0.946841  0
H  H20  1  0.43010572  0.70272553  0.80803434  1  0  0.087746  0  0.928071  0  0  0.102094  0  0.991521  0  0  0.102845  0  0.991227  0  0  0.114243  0.101305  0  0.992149  0
H  H21  1  0.56989474  0.29727496  0.30803270  1  0  0.087738  0  0.928088  0  0  0.102102  0  0.991516  0  0  0.102849  0  0.991229  0  0  0.114239  0.101319  0  0.992136  0
H  H22  1  0.52327105  0.63805466  0.90044379  1  0  0.077877  0  0.940728  0  0  0.088872  0  1.009734  0  0  0.089143  0  1.010602  0  0  0.106967  0.08856  0  1.009249  0
H  H23  1  0.47672720  0.36194465  0.40044281  1  0  0.077855  0  0.940771  0  0  0.088894  0  1.009733  0  0  0.089164  0  1.0106  0  0  0.106975  0.08858  0  1.009241  0
H  H24  1  0.88071375  0.20131642  0.58784194  1  0  0.106475  0  0.947786  0  0  0.117367  0  1.008536  0  0  0.12064  0  1.006749  0  0  0.107123  0.114699  0  1.010514  0
H  H25  1  0.11928522  0.79867941  0.08784240  1  0  0.106534  0  0.947709  0  0  0.117423  0  1.008463  0  0  0.120697  0  1.006675  0  0  0.107153  0.114761  0  1.010442  0
H  H26  1  0.16939914  0.22580669  0.65191682  1  0  0.111484  0  0.95231  0  0  0.119129  0  1.018535  0  0  0.123196  0  1.015202  0  0  0.108874  0.115974  0  1.02156  0
H  H27  1  0.83060268  0.77419265  0.15191762  1  0  0.111511  0  0.952272  0  0  0.119147  0  1.01851  0  0  0.123215  0  1.015177  0  0  0.108887  0.115992  0  1.021541  0
H  H28  1  0.85719835  0.78936677  0.52946787  1  0  0.358539  0  0.882408  0  0  0.338558  0  0.947073  0  0  0.345702  0  0.941561  0  0  0.308781  0.333488  0  0.950918  0
H  H29  1  0.14279980  0.21063377  0.02946825  1  0  0.358526  0  0.882431  0  0  0.338543  0  0.947105  0  0  0.345687  0  0.94159  0  0  0.308771  0.33347  0  0.950952  0
H  H30  1  0.83010002  0.94752811  0.47240381  1  0  0.339218  0  0.90356  0  0  0.315364  0  0.982269  0  0  0.32221  0  0.976162  0  0  0.304109  0.310206  0  0.987114  0
H  H31  1  0.16990005  0.05247235  0.97240485  1  0  0.339232  0  0.903571  0  0  0.315383  0  0.982268  0  0  0.322228  0  0.976162  0  0  0.304112  0.310223  0  0.987117  0
H  H32  1  0.10725369  0.70626399  0.93503419  1  0  0.420159  0  0.891515  0  0  0.387601  0  0.958035  0  0  0.39876  0  0.942251  0  0  0.28341  0.379714  0  0.96916  0
H  H33  1  0.89274299  0.29373532  0.43503304  1  0  0.420226  0  0.891427  0  0  0.387648  0  0.957983  0  0  0.39881  0  0.942195  0  0  0.283428  0.379762  0  0.969107  0
H  H34  1  0.27263999  0.85741667  0.89358980  1  0  0.398606  0  0.904191  0  0  0.35842  0  0.994983  0  0  0.368444  0  0.980321  0  0  0.292069  0.351288  0  1.005411  0
H  H35  1  0.72735580  0.14258382  0.39358931  1  0  0.398612  0  0.904189  0  0  0.35842  0  0.994993  0  0  0.368444  0  0.980331  0  0  0.292069  0.351284  0  1.005425  0
H  H36  1  0.69103112  0.64799457  0.73038630  1  0  0.281797  0  0.88451  0  0  0.26819  0  0.943992  0  0  0.274971  0  0.939006  0  0  0.301854  0.263609  0  0.947192  0
H  H37  1  0.30896902  0.35200476  0.23038539  1  0  0.281818  0  0.8845  0  0  0.268205  0  0.943988  0  0  0.27499  0  0.938991  0  0  0.301855  0.263615  0  0.947201  0
C  C38  1  0.65109609  0.35618495  0.80148287  1  0  0.015817  0  3.525125  0  0  -0.044661  0  3.781775  0  0  -0.041191  0  3.793835  0  0  -0.06135  -0.046852  0  3.773887  0
C  C39  1  0.34890588  0.64381554  0.30148260  1  0  0.015759  0  3.525176  0  0  -0.044688  0  3.781792  0  0  -0.041219  0  3.793858  0  0  -0.06143  -0.04688  0  3.773909  0
C  C40  1  0.79853477  0.52034335  0.81766871  1  0  -0.00638  0  3.620265  0  0  -0.063978  0  3.877423  0  0  -0.060385  0  3.888074  0  0  -0.074521  -0.066355  0  3.870324  0
C  C41  1  0.20146618  0.47965831  0.31766724  1  0  -0.006348  0  3.620247  0  0  -0.063954  0  3.877406  0  0  -0.060375  0  3.888065  0  0  -0.074528  -0.066331  0  3.870308  0
C  C42  1  0.34725875  0.45293499  0.81878866  1  0  0.002829  0  3.509215  0  0  -0.053526  0  3.759647  0  0  -0.050424  0  3.769353  0  0  -0.063071  -0.055576  0  3.753253  0
C  C43  1  0.65274219  0.54706667  0.31878826  1  0  0.002894  0  3.509236  0  0  -0.053489  0  3.75969  0  0  -0.050381  0  3.76939  0  0  -0.063061  -0.055546  0  3.753305  0
C  C44  1  0.49887969  0.61704863  0.83346374  1  0  0.000925  0  3.610934  0  0  -0.058677  0  3.874818  0  0  -0.054683  0  3.886079  0  0  -0.074328  -0.061244  0  3.867323  0
C  C45  1  0.50112221  0.38295185  0.33346213  1  0  0.000929  0  3.610991  0  0  -0.058694  0  3.874855  0  0  -0.054703  0  3.886122  0  0  -0.074352  -0.061256  0  3.867348  0
C  C46  1  0.64597716  0.94627526  0.67514436  1  0  0.664065  0  3.902514  0  0  0.612407  0  4.200651  0  0  0.646121  0  4.192612  0  0  0.210834  0.589753  0  4.205236  0
C  C47  1  0.35401964  0.05372291  0.17514464  1  0  0.664116  0  3.902466  0  0  0.612471  0  4.200587  0  0  0.646184  0  4.192546  0  0  0.210814  0.589808  0  4.205186  0
C  C48  1  0.72207949  0.20433314  0.59959870  1  0  -0.089468  0  3.698181  0  0  -0.123211  0  3.951928  0  0  -0.123634  0  3.968035  0  0  -0.081195  -0.122939  0  3.941393  0
C  C49  1  0.27792046  0.79566504  0.09959972  1  0  -0.089581  0  3.698098  0  0  -0.123302  0  3.951844  0  0  -0.123727  0  3.967951  0  0  -0.081224  -0.123037  0  3.941323  0
C  C50  1  0.57884074  0.07908111  0.64132399  1  0  -0.049112  0  3.734962  0  0  -0.038171  0  3.975115  0  0  -0.039645  0  3.991958  0  0  -0.007308  -0.037099  0  3.963534  0
C  C51  1  0.42115813  0.92091824  0.14132497  1  0  -0.049141  0  3.735002  0  0  -0.038196  0  3.975147  0  0  -0.039669  0  3.99199  0  0  -0.007313  -0.037127  0  3.963581  0
C  C52  1  0.37897224  0.08837955  0.66032260  1  0  -0.10017  0  3.780778  0  0  -0.086599  0  4.022644  0  0  -0.091931  0  4.041579  0  0  -0.021104  -0.083596  0  4.010194  0
C  C53  1  0.62102957  0.91161979  0.16032350  1  0  -0.10013  0  3.780728  0  0  -0.08655  0  4.022606  0  0  -0.091882  0  4.041541  0  0  -0.021107  -0.083544  0  4.010159  0
C  C54  1  0.46495874  0.34189402  0.59196478  1  0  -0.08034  0  3.741459  0  0  -0.068788  0  3.98293  0  0  -0.073459  0  4.00017  0  0  -0.017988  -0.065808  0  3.971374  0
C  C55  1  0.53504373  0.65810650  0.09196506  1  0  -0.08034  0  3.741515  0  0  -0.068763  0  3.983013  0  0  -0.073431  0  4.000251  0  0  -0.017994  -0.065781  0  3.971459  0
C  C56  1  0.23095234  0.97526776  0.71736439  1  0  0.674539  0  3.85128  0  0  0.617923  0  4.142711  0  0  0.652676  0  4.134516  0  0  0.220096  0.594468  0  4.147307  0
C  C57  1  0.76904783  0.02473157  0.21736636  1  0  0.674528  0  3.851244  0  0  0.617872  0  4.142725  0  0  0.652624  0  4.134532  0  0  0.220076  0.594426  0  4.14731  0
C  C58  1  0.84240281  0.47626029  0.54408826  1  0  0.675787  0  3.905333  0  0  0.617813  0  4.212686  0  0  0.652102  0  4.203098  0  0  0.213268  0.594385  0  4.21858  0
C  C59  1  0.15759829  0.52374024  0.04408805  1  0  0.675841  0  3.905204  0  0  0.617868  0  4.212583  0  0  0.652162  0  4.202986  0  0  0.213283  0.594443  0  4.218468  0
C  C60  1  0.32310603  0.21821040  0.63485406  1  0  -0.079165  0  3.715919  0  0  -0.115258  0  3.973919  0  0  -0.112998  0  3.989104  0  0  -0.083566  -0.117208  0  3.964881  0
C  C61  1  0.67689434  0.78178894  0.13485429  1  0  -0.079234  0  3.715926  0  0  -0.115326  0  3.973937  0  0  -0.113067  0  3.989119  0  0  -0.083595  -0.117287  0  3.964908  0
C  C62  1  0.66887329  0.33638834  0.57606164  1  0  -0.047927  0  3.70977  0  0  -0.03484  0  3.947593  0  0  -0.035952  0  3.963511  0  0  -0.005301  -0.033958  0  3.936592  0
C  C63  1  0.33112871  0.66361102  0.07606138  1  0  -0.04783  0  3.709703  0  0  -0.034777  0  3.947568  0  0  -0.03589  0  3.963485  0  0  -0.005261  -0.033894  0  3.936568  0
C  C64  1  0.12051216  0.91698308  0.46663185  1  0  0.579367  0  3.851509  0  0  0.530182  0  4.126821  0  0  0.553108  0  4.137762  0  0  0.330421  0.514558  0  4.11935  0
C  C65  1  0.87948444  0.08301622  0.96663199  1  0  0.579408  0  3.851463  0  0  0.530247  0  4.126736  0  0  0.553173  0  4.137676  0  0  0.330454  0.514629  0  4.119252  0
C  C66  1  0.40272911  0.48265646  0.56930584  1  0  0.662653  0  3.90018  0  0  0.60948  0  4.197944  0  0  0.643995  0  4.188721  0  0  0.209181  0.586295  0  4.202915  0
C  C67  1  0.59727243  0.51734524  0.06930608  1  0  0.662678  0  3.900193  0  0  0.609418  0  4.198082  0  0  0.643936  0  4.188859  0  0  0.209165  0.58624  0  4.203037  0
N  N68  1  0.70785875  0.64440743  0.79397940  1  0  -0.419822  0  3.218905  0  0  -0.339091  0  3.484723  0  0  -0.358165  0  3.491084  0  0  -0.47879  -0.325562  0  3.479977  0
N  N69  1  0.29214175  0.35559307  0.29397788  1  0  -0.4199  0  3.21892  0  0  -0.339175  0  3.484767  0  0  -0.358248  0  3.491134  0  0  -0.478817  -0.325646  0  3.480018  0
N  N70  1  0.44510084  0.33182068  0.84448403  1  0  -0.294618  0  3.303139  0  0  -0.229733  0  3.523003  0  0  -0.24388  0  3.530975  0  0  -0.478583  -0.220066  0  3.517679  0
N  N71  1  0.55489903  0.66817864  0.34448431  1  0  -0.294651  0  3.303208  0  0  -0.229778  0  3.523087  0  0  -0.243925  0  3.531057  0  0  -0.478582  -0.220103  0  3.517765  0
N  N72  1  0.44747884  0.92308057  0.46094607  1  0  -0.070246  0  3.023761  0  0  -0.065244  0  3.327423  0  0  -0.062186  0  3.338374  0  0  -0.096284  -0.066958  0  3.319833  0
N  N73  1  0.55251926  0.07691873  0.96094697  1  0  -0.070243  0  3.023788  0  0  -0.065247  0  3.327458  0  0  -0.062189  0  3.338409  0  0  -0.096285  -0.066961  0  3.319867  0
N  N74  1  0.26061242  0.85300424  0.49931364  1  0  -0.449426  0  3.204513  0  0  -0.381493  0  3.525154  0  0  -0.404042  0  3.532181  0  0  -0.263915  -0.366417  0  3.520457  0
N  N75  1  0.73938708  0.14699505  0.99931447  1  0  -0.449456  0  3.2045  0  0  -0.381528  0  3.52514  0  0  -0.404073  0  3.532159  0  0  -0.263926  -0.366456  0  3.520443  0
N  N76  1  0.91428231  0.87444505  0.48576325  1  0  -0.698101  0  3.064994  0  0  -0.66268  0  3.306347  0  0  -0.682077  0  3.301412  0  0  -0.579882  -0.648979  0  3.310076  0
N  N77  1  0.08571772  0.12555541  0.98576310  1  0  -0.698107  0  3.064956  0  0  -0.662699  0  3.306301  0  0  -0.682096  0  3.301366  0  0  -0.579883  -0.648999  0  3.310032  0
N  N78  1  0.22087273  0.02537441  0.40953724  1  0  -0.430956  0  3.13843  0  0  -0.359966  0  3.439785  0  0  -0.382187  0  3.449207  0  0  -0.264379  -0.344718  0  3.432967  0
N  N79  1  0.77912600  0.97462607  0.90953754  1  0  -0.430981  0  3.138426  0  0  -0.360001  0  3.439781  0  0  -0.382219  0  3.4492  0  0  -0.264386  -0.34475  0  3.432958  0
N  N80  1  0.42444490  0.02480816  0.40793260  1  0  -0.099615  0  3.048332  0  0  -0.08414  0  3.347273  0  0  -0.083289  0  3.358565  0  0  -0.097996  -0.084371  0  3.339236  0
N  N81  1  0.57555434  0.97519349  0.90793298  1  0  -0.099598  0  3.048317  0  0  -0.084126  0  3.347255  0  0  -0.083276  0  3.358547  0  0  -0.098006  -0.084362  0  3.33922  0
O  O82  1  0.80135179  0.98819356  0.72458499  1  0  -0.63417  0  2.036848  0  0  -0.576638  0  2.300311  0  0  -0.604328  0  2.289624  0  0  -0.320786  -0.557286  0  2.30755  0
O  O83  1  0.19865034  0.01180342  0.22458533  1  0  -0.634193  0  2.036883  0  0  -0.576665  0  2.300334  0  0  -0.604356  0  2.289648  0  0  -0.320781  -0.557309  0  2.307575  0
O  O84  1  0.54523823  0.80612627  0.65491034  1  0  -0.629711  0  2.02376  0  0  -0.567702  0  2.278696  0  0  -0.594541  0  2.267252  0  0  -0.310086  -0.549974  0  2.285872  0
O  O85  1  0.45475959  0.19387073  0.15490997  1  0  -0.629706  0  2.023665  0  0  -0.567732  0  2.27862  0  0  -0.594569  0  2.267177  0  0  -0.310068  -0.550001  0  2.285812  0
O  O86  1  0.14796025  0.83091181  0.70005371  1  0  -0.61788  0  2.055326  0  0  -0.546985  0  2.322081  0  0  -0.574106  0  2.306673  0  0  -0.297883  -0.528237  0  2.332452  0
O  O87  1  0.85203749  0.16908870  0.20005442  1  0  -0.6179  0  2.05523  0  0  -0.547005  0  2.322024  0  0  -0.574126  0  2.306617  0  0  -0.297896  -0.528256  0  2.332392  0
O  O88  1  0.93100421  0.46367923  0.47636741  1  0  -0.624911  0  1.994344  0  0  -0.57085  0  2.222934  0  0  -0.595632  0  2.213429  0  0  -0.311799  -0.552796  0  2.228874  0
O  O89  1  0.06899785  0.53632241  0.97636607  1  0  -0.624929  0  1.994267  0  0  -0.570883  0  2.222859  0  0  -0.595665  0  2.213351  0  0  -0.311817  -0.552824  0  2.228789  0
O  O90  1  0.89585176  0.59593786  0.59201629  1  0  -0.646437  0  1.99479  0  0  -0.580291  0  2.249752  0  0  -0.607441  0  2.236568  0  0  -0.320635  -0.561139  0  2.257929  0
O  O91  1  0.10414823  0.40406384  0.09201733  1  0  -0.646465  0  1.994775  0  0  -0.580311  0  2.249733  0  0  -0.607467  0  2.236556  0  0  -0.320626  -0.561159  0  2.257909  0
O  O92  1  0.18637254  0.03399775  0.78466507  1  0  -0.612503  0  2.048831  0  0  -0.533212  0  2.289131  0  0  -0.561903  0  2.278472  0  0  -0.301114  -0.513019  0  2.295596  0
O  O93  1  0.81362399  0.96600040  0.28466590  1  0  -0.612494  0  2.048895  0  0  -0.533156  0  2.289167  0  0  -0.561848  0  2.278512  0  0  -0.301081  -0.512972  0  2.295635  0
O  O94  1  0.48180552  0.56242005  0.50659581  1  0  -0.61994  0  1.981817  0  0  -0.572729  0  2.223474  0  0  -0.595075  0  2.213032  0  0  -0.313158  -0.557669  0  2.229934  0
O  O95  1  0.51819963  0.43757931  0.00659545  1  0  -0.619932  0  1.98184  0  0  -0.572674  0  2.223486  0  0  -0.59503  0  2.213072  0  0  -0.313114  -0.557608  0  2.229931  0
O  O96  1  0.26798205  0.51077427  0.61902060  1  0  -0.640847  0  2.058445  0  0  -0.564836  0  2.320496  0  0  -0.594225  0  2.306709  0  0  -0.323033  -0.543268  0  2.329043  0
O  O97  1  0.73201985  0.48922508  0.11902450  1  0  -0.640968  0  2.058463  0  0  -0.564885  0  2.320497  0  0  -0.594274  0  2.306708  0  0  -0.32307  -0.543323  0  2.329047  0
O  O98  1  0.12194785  0.81003878  0.90682003  1  0  -0.84697  0  1.928094  0  0  -0.782608  0  2.150663  0  0  -0.803448  0  2.116374  0  0  -0.582066  -0.767905  0  2.174806  0
O  O99  1  0.87804692  0.18996288  0.40681825  1  0  -0.847048  0  1.928035  0  0  -0.782684  0  2.150592  0  0  -0.803526  0  2.116305  0  0  -0.582091  -0.76797  0  2.174721  0
