# generated using pymatgen
data_Zr3H13C13NO16
_symmetry_space_group_name_H-M   'P 1'
_cell_length_a   14.67635095
_cell_length_b   20.04676138
_cell_length_c   20.44262625
_cell_angle_alpha   88.27321272
_cell_angle_beta   67.98277167
_cell_angle_gamma   84.61719572
_symmetry_Int_Tables_number   1
_chemical_formula_structural   Zr3H13C13NO16
_chemical_formula_sum   'Zr12 H52 C52 N4 O64'
_cell_volume   5551.19152096
_cell_formula_units_Z   4
loop_
 _symmetry_equiv_pos_site_id
 _symmetry_equiv_pos_as_xyz
  1  'x, y, z'
loop_
 _atom_site_type_symbol
 _atom_site_label
 _atom_site_symmetry_multiplicity
 _atom_site_fract_x
 _atom_site_fract_y
 _atom_site_fract_z
 _atom_site_occupancy
 _atom_site_pbe_bader_charge
 _atom_site_pbe_bader_spin_density
 _atom_site_pbe_cm5_charge
 _atom_site_pbe_ddec_charge
 _atom_site_pbe_ddec_spin_density
 _atom_site_pbe_ddec_sum_bond_order
 _atom_site_pbe_magmom
Zr  Zr0  1  0.84458602  0.42879614  0.54080519  1  2.628536  0  1.572812  2.381508  0  2.726869  0
Zr  Zr1  1  0.06881097  0.54849259  0.62549149  1  2.630022  0  1.594723  2.342764  0  2.791476  0
Zr  Zr2  1  0.81954397  0.51365089  0.69600306  1  2.602235  0  1.565726  2.373549  0  2.893188  0
Zr  Zr3  1  0.09600286  0.46057460  0.47112831  1  2.61732  0  1.592891  2.371279  0  2.761102  0
Zr  Zr4  1  0.91178032  0.59547948  0.53131245  1  2.612237  0  1.549738  2.367592  0  2.761152  0
Zr  Zr5  1  0.00479607  0.37866151  0.63658717  1  2.619031  0  1.560495  2.384803  0  2.753992  0
Zr  Zr6  1  0.71081564  0.92873648  0.11478260  1  2.630326  0  1.585333  2.372818  0  2.767851  0
Zr  Zr7  1  0.45772290  0.01238326  0.01808702  1  2.602573  0  1.572492  2.341134  0  2.793198  0
Zr  Zr8  1  0.50773058  0.86275797  0.09528530  1  2.603438  0  1.547152  2.357028  0  2.806717  0
Zr  Zr9  1  0.66457180  0.08006112  0.03297750  1  2.625487  0  1.566463  2.380433  0  2.769182  0
Zr  Zr10  1  0.69528308  0.92276046  0.94312623  1  2.615353  0  1.553734  2.378947  0  2.778253  0
Zr  Zr11  1  0.47016389  0.02116452  0.18534952  1  2.615671  0  1.54445  2.382474  0  2.758858  0
H  H12  1  0.83617961  0.31280772  0.28065295  1  0.12399  0  0.125717  0.150354  0  0.968397  0
H  H13  1  0.79866888  0.22979515  0.19170198  1  0.124207  0  0.123585  0.148377  0  0.973491  0
H  H14  1  0.28628875  0.62642368  0.81993398  1  0.09831  0  0.124563  0.150259  0  0.972871  0
H  H15  1  0.36021529  0.68584767  0.90514608  1  0.068594  0  0.11731  0.139759  0  0.985156  0
H  H16  1  0.94489298  0.50366884  0.41953684  1  0.600983  0  0.324362  0.412399  0  0.882452  0
H  H17  1  0.90080598  0.63843481  0.67695298  1  0.658793  0  0.304941  0.422311  0  0.893524  0
H  H18  1  0.19086774  0.42571029  0.56339363  1  0.638099  0  0.331118  0.421832  0  0.860618  0
H  H19  1  0.80382382  0.37146929  0.68083805  1  0.63388  0  0.331724  0.428891  0  0.852458  0
H  H20  1  0.81772599  0.70895832  0.58489399  1  0.65344  0  0.318172  0.41208  0  0.891905  0
H  H21  1  0.74232123  0.43652099  0.82195933  1  0.642846  0  0.332519  0.415918  0  0.864762  0
H  H22  1  0.97212163  0.34123806  0.76734070  1  0.582394  0  0.302622  0.395535  0  0.903653  0
H  H23  1  0.95380107  0.63354177  0.39374083  1  0.57587  0  0.293005  0.380906  0  0.92457  0
H  H24  1  0.07421100  0.57513009  0.39123987  1  0.631923  0  0.275957  0.408155  0  0.932705  0
H  H25  1  0.19072504  0.33301841  0.42306109  1  0.610146  0  0.324569  0.41322  0  0.873753  0
H  H26  1  0.17374229  0.29536150  0.60080539  1  0.586269  0  0.301051  0.395524  0  0.903066  0
H  H27  1  0.99030271  0.70692331  0.49201476  1  0.60669  0  0.287929  0.379262  0  0.935598  0
H  H28  1  0.15728417  0.65858759  0.55223487  1  0.60473  0  0.327204  0.411392  0  0.872716  0
H  H29  1  0.75538197  0.31541546  0.57667757  1  0.595168  0  0.300821  0.396352  0  0.902982  0
H  H30  1  0.99916574  0.25573286  0.58518387  1  0.626016  0  0.319962  0.412947  0  0.879782  0
H  H31  1  0.13096938  0.51346569  0.33354791  1  0.608539  0  0.323272  0.403325  0  0.883386  0
H  H32  1  0.04011093  0.67746256  0.56978423  1  0.652051  0  0.285189  0.410736  0  0.926162  0
H  H33  1  0.68542925  0.59211210  0.80381527  1  0.603002  0  0.309254  0.419346  0  0.865244  0
H  H34  1  0.73350010  0.68144519  0.56453571  1  0.616972  0  0.337212  0.420087  0  0.860112  0
H  H35  1  0.16957627  0.33274430  0.50764856  1  0.648004  0  0.279725  0.403164  0  0.940098  0
H  H36  1  0.85598894  0.40461435  0.77605567  1  0.648123  0  0.281337  0.406573  0  0.936168  0
H  H37  1  0.89618947  0.29428564  0.58440938  1  0.646205  0  0.285326  0.406425  0  0.928528  0
H  H38  1  0.55935646  0.59207951  0.18957278  1  0.137437  0  0.123472  0.148609  0  0.972405  0
H  H39  1  0.44750306  0.50671296  0.28698848  1  0.134628  0  0.127266  0.151949  0  0.965672  0
H  H40  1  0.30855662  0.20434829  0.89745708  1  0.106653  0  0.11983  0.144704  0  0.978646  0
H  H41  1  0.19839651  0.27508771  0.83159816  1  0.095239  0  0.122956  0.147136  0  0.974319  0
H  H42  1  0.82956994  0.98658643  0.98396722  1  0.597605  0  0.329246  0.421947  0  0.863505  0
H  H43  1  0.51034933  0.88315765  0.95050052  1  0.614056  0  0.328036  0.424902  0  0.866323  0
H  H44  1  0.46328819  0.12846730  0.08948057  1  0.606634  0  0.331021  0.424292  0  0.860037  0
H  H45  1  0.51967755  0.89178211  0.22806438  1  0.625605  0  0.323539  0.42311  0  0.870577  0
H  H46  1  0.74044944  0.78167699  0.91433011  1  0.600682  0  0.334198  0.426404  0  0.853672  0
H  H47  1  0.34689399  0.79465785  0.17487157  1  0.620341  0  0.338393  0.428997  0  0.85368  0
H  H48  1  0.30070366  0.99804505  0.28447732  1  0.592188  0  0.292114  0.402834  0  0.89489  0
H  H49  1  0.78995382  0.99299496  0.82803350  1  0.635017  0  0.323706  0.423551  0  0.864031  0
H  H50  1  0.84127986  0.11318914  0.94196428  1  0.581037  0  0.297853  0.389057  0  0.912437  0
H  H51  1  0.67176833  0.17444188  0.11780600  1  0.581054  0  0.297276  0.387859  0  0.917417  0
H  H52  1  0.41694378  0.15850730  0.21839901  1  0.592715  0  0.322907  0.403715  0  0.88324  0
H  H53  1  0.67216625  0.88091403  0.82896510  1  0.597476  0  0.292316  0.402178  0  0.89577  0
H  H54  1  0.36029888  0.98954391  0.93061715  1  0.647756  0  0.331418  0.42364  0  0.869735  0
H  H55  1  0.71202204  0.90403489  0.24444140  1  0.607648  0  0.300426  0.393703  0  0.90586  0
H  H56  1  0.48933242  0.00210777  0.31087100  1  0.644168  0  0.317732  0.407172  0  0.884063  0
H  H57  1  0.79899372  0.04017786  0.89084169  1  0.660327  0  0.283187  0.407145  0  0.931548  0
H  H58  1  0.42150114  0.05365635  0.89955974  1  0.649623  0  0.336606  0.428086  0  0.858762  0
H  H59  1  0.48069961  0.76389426  0.02205135  1  0.569467  0  0.289594  0.380753  0  0.929289  0
H  H60  1  0.62563101  0.78840395  0.96871350  1  0.654957  0  0.282134  0.40531  0  0.933681  0
H  H61  1  0.53741961  0.14847465  0.16861131  1  0.644361  0  0.277528  0.404872  0  0.939118  0
H  H62  1  0.43940599  0.76966704  0.19527680  1  0.637263  0  0.328397  0.418176  0  0.880345  0
H  H63  1  0.60493194  0.98709982  0.25579580  1  0.671051  0  0.282861  0.409678  0  0.930442  0
C  C64  1  0.97723667  0.25113494  0.24967266  1  0.444826  0  0.096348  0.151197  0  4.08933  0
C  C65  1  0.88365308  0.27127376  0.24941011  1  0.022017  0  -0.083504  -0.167345  0  3.975874  0
C  C66  1  0.86496950  0.22928629  0.20334153  1  -0.040445  0  -0.085756  -0.175214  0  3.980364  0
C  C67  1  0.94599914  0.18195291  0.17610727  1  0.413885  0  0.102116  0.164298  0  4.078205  0
C  C68  1  0.16558145  0.70611004  0.85837307  1  0.340908  0  0.10227  0.180526  0  4.056777  0
C  C69  1  0.25397564  0.67016966  0.85336706  1  0.072084  0  -0.088947  -0.179988  0  3.974981  0
C  C70  1  0.29168694  0.70063805  0.89786051  1  0.030739  0  -0.092921  -0.184272  0  3.996224  0
C  C71  1  0.22734505  0.75605846  0.93087137  1  0.406091  0  0.092704  0.154189  0  4.080447  0
C  C72  1  0.75346795  0.55026301  0.46425028  1  1.65825  0  0.239381  0.722526  0  4.170348  0
C  C73  1  0.00964075  0.37135797  0.38528485  1  1.648543  0  0.228895  0.687844  0  4.225225  0
C  C74  1  0.64110774  0.43701724  0.68413955  1  1.683536  0  0.23704  0.72318  0  4.18254  0
C  C75  1  0.00038961  0.65782118  0.74915137  1  1.695158  0  0.228584  0.673858  0  4.240523  0
C  C76  1  0.16665699  0.43071227  0.69511925  1  1.663325  0  0.232739  0.690914  0  4.220515  0
C  C77  1  0.27768050  0.52196886  0.49345496  1  1.579284  0  0.233392  0.692129  0  4.216669  0
C  C78  1  0.62123493  0.60883690  0.26933448  1  0.331235  0  0.103369  0.169772  0  4.058155  0
C  C79  1  0.56293509  0.57832504  0.24033127  1  0.006385  0  -0.087158  -0.177896  0  3.971655  0
C  C80  1  0.50647806  0.53392575  0.28978161  1  0.012748  0  -0.078248  -0.156246  0  3.962409  0
C  C81  1  0.52882479  0.53705723  0.35014814  1  0.381514  0  0.094716  0.14704  0  4.066192  0
C  C82  1  0.41999084  0.27271514  0.84089043  1  0.436676  0  0.098031  0.168047  0  4.08953  0
C  C83  1  0.32891386  0.24569028  0.86091111  1  0.005269  0  -0.091305  -0.178766  0  3.993046  0
C  C84  1  0.27283776  0.28164952  0.82747780  1  0.001787  0  -0.089723  -0.177423  0  3.993072  0
C  C85  1  0.32903011  0.33114116  0.78654435  1  0.401385  0  0.097557  0.167322  0  4.095657  0
C  C86  1  0.88060594  0.85481587  0.97795211  1  1.63814  0  0.241391  0.719171  0  4.1918  0
C  C87  1  0.84551222  0.05143254  0.09181674  1  1.650209  0  0.235673  0.690707  0  4.219444  0
C  C88  1  0.65838115  0.77769985  0.16874597  1  1.685554  0  0.232933  0.686971  0  4.224057  0
C  C89  1  0.31922352  0.88098734  0.03963635  1  1.655791  0  0.229684  0.700565  0  4.210923  0
C  C90  1  0.27817167  0.08787706  0.14551240  1  1.690442  0  0.235996  0.720253  0  4.186958  0
C  C91  1  0.53572583  0.15554628  0.94736447  1  1.661986  0  0.233613  0.688104  0  4.213115  0
C  C92  1  0.49260752  0.24770541  0.86586467  1  -0.009814  0  -0.044012  -0.10563  0  4.111647  0
C  C93  1  0.52275258  0.20777679  0.90122351  1  -0.212997  0  -0.023009  -0.129023  0  3.905173  0
C  C94  1  0.67607987  0.71742360  0.20467376  1  -0.215148  0  -0.024045  -0.131786  0  3.880775  0
C  C95  1  0.66733412  0.66669584  0.24071258  1  0.01967  0  -0.044558  -0.10518  0  4.102622  0
C  C96  1  0.69742317  0.56848094  0.41993241  1  0.325296  0  -0.040297  -0.235849  0  3.931303  0
C  C97  1  0.65699018  0.58093950  0.37802740  1  0.061177  0  0.090276  0.068698  0  4.124963  0
C  C98  1  0.46359799  0.52309625  0.41738513  1  -0.396743  0  -0.02118  -0.051404  0  4.105173  0
C  C99  1  0.38342994  0.51639660  0.46428613  1  0.260114  0  -0.037182  -0.168975  0  3.890888  0
C  C100  1  0.55765883  0.39933778  0.72438003  1  0.342186  0  -0.040549  -0.235183  0  3.933756  0
C  C101  1  0.49449478  0.36371800  0.75945930  1  -0.008012  0  0.088895  0.077025  0  4.148752  0
C  C102  1  0.24053423  0.40796361  0.72251132  1  0.233341  0  -0.027533  -0.143916  0  3.935395  0
C  C103  1  0.29624509  0.37869486  0.74775736  1  -0.445477  0  -0.034961  -0.084013  0  4.141873  0
C  C104  1  0.06318434  0.79691534  0.93193390  1  0.126535  0  0.095452  0.08281  0  4.163607  0
C  C105  1  0.98028619  0.82458878  0.95028492  1  0.295695  0  -0.032816  -0.225547  0  3.960419  0
C  C106  1  0.24147232  0.80374423  0.97417593  1  -0.373797  0  -0.028665  -0.058791  0  4.125593  0
C  C107  1  0.26759669  0.84100236  0.00900334  1  0.124358  0  -0.046702  -0.187853  0  3.922354  0
C  C108  1  0.10039193  0.69527959  0.82529369  1  -0.203632  0  -0.037284  -0.095602  0  4.134808  0
C  C109  1  0.05020969  0.68077383  0.79259344  1  -0.002828  0  -0.019073  -0.125667  0  3.894085  0
C  C110  1  0.91538214  0.08546209  0.10960852  1  0.030141  0  -0.026062  -0.136812  0  3.892767  0
C  C111  1  0.94706381  0.12545104  0.13784307  1  -0.211878  0  -0.032663  -0.083753  0  4.121095  0
C  C112  1  0.10502910  0.16121656  0.18750500  1  0.075207  0  0.091793  0.070681  0  4.15271  0
C  C113  1  0.18374002  0.12732390  0.16820737  1  0.274142  0  -0.040125  -0.234147  0  3.954172  0
C  C114  1  0.02525998  0.32358020  0.33064204  1  0.018364  0  -0.038163  -0.166402  0  3.940478  0
C  C115  1  0.02050664  0.28372698  0.28815053  1  -0.290904  0  -0.031901  -0.071962  0  4.128172  0
N  N116  1  0.01657004  0.19584321  0.20379771  1  -1.227423  0  -0.192545  0.042237  0  3.774675  0
N  N117  1  0.14906369  0.75922005  0.90659267  1  -1.238736  0  -0.195056  0.014925  0  3.798419  0
N  N118  1  0.60468268  0.58031225  0.33626545  1  -1.216971  0  -0.191781  0.036549  0  3.743305  0
N  N119  1  0.42016213  0.32593239  0.79470710  1  -1.227089  0  -0.192855  0.01766  0  3.803461  0
O  O120  1  0.82180892  0.32756871  0.55029198  1  -1.225216  0  -0.663717  -0.932433  0  1.87129  0
O  O121  1  0.75694299  0.48924753  0.48313153  1  -1.14699  0  -0.332521  -0.590739  0  2.165711  0
O  O122  1  0.68079168  0.42585438  0.61811120  1  -1.158785  0  -0.33211  -0.609936  0  2.20019  0
O  O123  1  0.08551123  0.39816220  0.38684759  1  -1.192807  0  -0.379622  -0.675893  0  2.256057  0
O  O124  1  0.66924147  0.47546981  0.72020038  1  -1.173234  0  -0.351068  -0.639719  0  2.219378  0
O  O125  1  0.92071542  0.38364835  0.42665071  1  -1.14858  0  -0.321329  -0.567989  0  2.216229  0
O  O126  1  0.79675091  0.59712822  0.47872370  1  -1.187098  0  -0.351914  -0.651731  0  2.227714  0
O  O127  1  0.82628723  0.52098010  0.59338970  1  -1.233749  0  -0.783634  -1.193698  0  2.046575  0
O  O128  1  0.94819167  0.50020404  0.46596924  1  -1.251252  0  -0.701529  -1.089199  0  2.370671  0
O  O129  1  0.84433484  0.40587794  0.65377053  1  -1.277757  0  -0.685746  -1.049574  0  2.23572  0
O  O130  1  0.98662964  0.40666177  0.53906468  1  -1.215648  0  -0.779141  -1.153426  0  2.035894  0
O  O131  1  0.19437489  0.36018289  0.46051158  1  -1.254005  0  -0.609458  -0.825926  0  2.02226  0
O  O132  1  0.77437915  0.67218948  0.59246374  1  -1.229935  0  -0.57532  -0.769006  0  2.013601  0
O  O133  1  0.04302510  0.54760143  0.53033843  1  -1.220828  0  -0.788085  -1.155135  0  2.061982  0
O  O134  1  0.91351992  0.59917604  0.64498244  1  -1.300413  0  -0.676163  -1.029804  0  2.102675  0
O  O135  1  0.96707697  0.48012965  0.67266792  1  -1.226492  0  -0.780527  -1.165696  0  2.030564  0
O  O136  1  0.12418059  0.44359093  0.57024715  1  -1.273993  0  -0.695732  -1.062872  0  2.326638  0
O  O137  1  0.74514880  0.58637944  0.76221936  1  -1.216984  0  -0.703335  -0.963521  0  1.771856  0
O  O138  1  0.92844002  0.69017687  0.74184115  1  -1.121813  0  -0.291464  -0.49864  0  2.022844  0
O  O139  1  0.04139436  0.59979931  0.71985043  1  -1.171156  0  -0.403476  -0.667063  0  2.276416  0
O  O140  1  0.94011644  0.28388614  0.61299845  1  -1.258352  0  -0.609002  -0.813609  0  2.026484  0
O  O141  1  0.16145042  0.49140429  0.67661307  1  -1.151371  0  -0.343708  -0.583153  0  2.277461  0
O  O142  1  0.80730131  0.44879778  0.79194800  1  -1.289756  0  -0.609551  -0.838886  0  2.025024  0
O  O143  1  0.92849776  0.34900203  0.74139614  1  -1.217002  0  -0.656292  -0.920022  0  1.879217  0
O  O144  1  0.12383033  0.30529768  0.58049883  1  -1.250974  0  -0.64915  -0.94855  0  1.886809  0
O  O145  1  0.11295944  0.38492325  0.69190746  1  -1.168135  0  -0.351356  -0.643372  0  2.257886  0
O  O146  1  0.09269469  0.65827823  0.58996540  1  -1.237784  0  -0.601857  -0.814253  0  2.043218  0
O  O147  1  0.12950052  0.53309595  0.37685919  1  -1.242149  0  -0.607564  -0.823728  0  2.010516  0
O  O148  1  0.22903009  0.55326169  0.55110996  1  -1.182792  0  -0.346102  -0.617962  0  2.240573  0
O  O149  1  0.24161996  0.49412208  0.45403030  1  -1.153547  0  -0.360971  -0.611543  0  2.257273  0
O  O150  1  0.99372971  0.62565812  0.42234667  1  -1.240842  0  -0.643711  -0.931194  0  1.907636  0
O  O151  1  0.95904016  0.69242451  0.54074026  1  -1.258974  0  -0.645168  -0.92885  0  1.893959  0
O  O152  1  0.69742300  0.94280233  0.21934954  1  -1.24486  0  -0.66019  -0.931262  0  1.903901  0
O  O153  1  0.84724871  0.87087118  0.04285223  1  -1.14107  0  -0.340673  -0.588051  0  2.258545  0
O  O154  1  0.71547492  0.82387534  0.15857068  1  -1.180415  0  -0.342299  -0.610974  0  2.278612  0
O  O155  1  0.79292602  0.09134220  0.06714960  1  -1.17  0  -0.35063  -0.645149  0  2.285181  0
O  O156  1  0.58280496  0.77823783  0.15190103  1  -1.154042  0  -0.325586  -0.602613  0  2.223912  0
O  O157  1  0.83845783  0.98955213  0.10433982  1  -1.155738  0  -0.336537  -0.583838  0  2.248099  0
O  O158  1  0.83542110  0.86270114  0.93515896  1  -1.166347  0  -0.352597  -0.628094  0  2.221632  0
O  O159  1  0.64681093  0.88537300  0.04999788  1  -1.221246  0  -0.785906  -1.175876  0  2.083034  0
O  O160  1  0.75982200  0.98072842  0.00663224  1  -1.237647  0  -0.695838  -1.072556  0  2.320628  0
O  O161  1  0.53774128  0.91168751  0.18155306  1  -1.28061  0  -0.67622  -1.062835  0  2.194626  0
O  O162  1  0.62363901  0.01654204  0.12348057  1  -1.224629  0  -0.775959  -1.146409  0  1.984561  0
O  O163  1  0.61717507  0.16258215  0.10579248  1  -1.224335  0  -0.650872  -0.919416  0  1.903605  0
O  O164  1  0.67782865  0.80869891  0.92547276  1  -1.248756  0  -0.601726  -0.832522  0  2.034971  0
O  O165  1  0.60747627  0.01377898  0.97979512  1  -1.210447  0  -0.774251  -1.150098  0  2.011604  0
O  O166  1  0.52814888  0.90786827  0.98340667  1  -1.269355  0  -0.676379  -1.053815  0  2.203941  0
O  O167  1  0.44486149  0.96274780  0.10885946  1  -1.225448  0  -0.781133  -1.172346  0  2.054022  0
O  O168  1  0.49432806  0.08305104  0.08473303  1  -1.247558  0  -0.695417  -1.06823  0  2.318511  0
O  O169  1  0.53445003  0.77457584  0.03560192  1  -1.218624  0  -0.667928  -0.938407  0  1.895744  0
O  O170  1  0.35821986  0.84951677  0.07946127  1  -1.182382  0  -0.346333  -0.648459  0  2.235104  0
O  O171  1  0.32813994  0.94204716  0.02129652  1  -1.173706  0  -0.325927  -0.608096  0  2.210374  0
O  O172  1  0.54027211  0.01871827  0.26912793  1  -1.296029  0  -0.610834  -0.802114  0  2.029907  0
O  O173  1  0.31375686  0.06821317  0.08107181  1  -1.166323  0  -0.358742  -0.622499  0  2.218344  0
O  O174  1  0.39625675  0.80895500  0.19161898  1  -1.208094  0  -0.579818  -0.778614  0  2.012004  0
O  O175  1  0.37020320  0.98749212  0.27574098  1  -1.22718  0  -0.702638  -0.979574  0  1.765712  0
O  O176  1  0.47672418  0.12967405  0.21198243  1  -1.235097  0  -0.609833  -0.822881  0  2.021488  0
O  O177  1  0.31776183  0.07712108  0.19099879  1  -1.175125  0  -0.333402  -0.628353  0  2.228169  0
O  O178  1  0.42530219  0.00709888  0.91483625  1  -1.244048  0  -0.581872  -0.783033  0  2.029629  0
O  O179  1  0.78101201  0.10087312  0.93824777  1  -1.224511  0  -0.659049  -0.926595  0  1.892991  0
O  O180  1  0.47292518  0.11109441  0.95870973  1  -1.179144  0  -0.362092  -0.653601  0  2.241601  0
O  O181  1  0.60057768  0.15737547  0.97344473  1  -1.153555  0  -0.32525  -0.564624  0  2.264562  0
O  O182  1  0.80542834  0.99224186  0.87052049  1  -1.278895  0  -0.612462  -0.818927  0  2.03363  0
O  O183  1  0.68871964  0.92091532  0.84603284  1  -1.230928  0  -0.702023  -0.976804  0  1.769631  0
