# generated using pymatgen
data_ZnH16C18(BrN3)2
_symmetry_space_group_name_H-M   'P 1'
_cell_length_a   6.10059440
_cell_length_b   12.29783397
_cell_length_c   13.33230334
_cell_angle_alpha   93.87656781
_cell_angle_beta   103.21707899
_cell_angle_gamma   89.98484326
_symmetry_Int_Tables_number   1
_chemical_formula_structural   ZnH16C18(BrN3)2
_chemical_formula_sum   'Zn2 H32 C36 Br4 N12'
_cell_volume   971.40155688
_cell_formula_units_Z   2
loop_
 _symmetry_equiv_pos_site_id
 _symmetry_equiv_pos_as_xyz
  1  'x, y, z'
loop_
 _atom_site_type_symbol
 _atom_site_label
 _atom_site_symmetry_multiplicity
 _atom_site_fract_x
 _atom_site_fract_y
 _atom_site_fract_z
 _atom_site_occupancy
 _atom_site_hle17_bader_spin_density
 _atom_site_hle17_ddec_charge
 _atom_site_hle17_ddec_spin_density
 _atom_site_hle17_ddec_sum_bond_order
 _atom_site_hle17_magmom
 _atom_site_hse06_10hf_bader_spin_density
 _atom_site_hse06_10hf_ddec_charge
 _atom_site_hse06_10hf_ddec_spin_density
 _atom_site_hse06_10hf_ddec_sum_bond_order
 _atom_site_hse06_10hf_magmom
 _atom_site_hse06_bader_spin_density
 _atom_site_hse06_ddec_charge
 _atom_site_hse06_ddec_spin_density
 _atom_site_hse06_ddec_sum_bond_order
 _atom_site_hse06_magmom
 _atom_site_pbe_bader_spin_density
 _atom_site_pbe_cm5_charge
 _atom_site_pbe_ddec_charge
 _atom_site_pbe_ddec_spin_density
 _atom_site_pbe_ddec_sum_bond_order
 _atom_site_pbe_magmom
Zn  Zn0  1  0.57041821  0.74999845  0.00004021  1  0  0.764607  0  2.122007  0  0  0.586641  0  2.603708  0  0  0.628819  0  2.560178  0  0  0.51513  0.557723  0  2.633222  0
Zn  Zn1  1  0.42956943  0.24999950  0.99996257  1  0  0.764619  0  2.121953  0  0  0.586621  0  2.603623  0  0  0.628814  0  2.560104  0  0  0.515125  0.557696  0  2.633158  0
H  H2  1  0.52989503  0.27743152  0.44545337  1  0  0.090487  0  0.984679  0  0  0.097085  0  1.04992  0  0  0.099102  0  1.050369  0  0  0.106619  0.095643  0  1.049693  0
H  H3  1  0.08394348  0.22262530  0.55427493  1  0  0.091028  0  0.983898  0  0  0.09728  0  1.049566  0  0  0.099265  0  1.050103  0  0  0.106853  0.095862  0  1.049275  0
H  H4  1  0.47009615  0.72257538  0.55455712  1  0  0.090543  0  0.984654  0  0  0.097141  0  1.049886  0  0  0.099159  0  1.050334  0  0  0.106628  0.095699  0  1.049659  0
H  H5  1  0.91605626  0.77737676  0.44572118  1  0  0.09105  0  0.983942  0  0  0.097319  0  1.049565  0  0  0.099309  0  1.050088  0  0  0.106827  0.095898  0  1.049275  0
H  H6  1  0.21437440  0.52784797  0.90851001  1  0  0.10893  0  0.966747  0  0  0.114509  0  1.036604  0  0  0.117879  0  1.035836  0  0  0.096815  0.111955  0  1.037626  0
H  H7  1  0.30588269  0.97205945  0.09135839  1  0  0.108133  0  0.96684  0  0  0.114037  0  1.036426  0  0  0.117364  0  1.035703  0  0  0.096598  0.111527  0  1.037402  0
H  H8  1  0.78562349  0.47215325  0.09149259  1  0  0.108918  0  0.966845  0  0  0.114484  0  1.036713  0  0  0.117849  0  1.035952  0  0  0.096819  0.11193  0  1.037733  0
H  H9  1  0.69411368  0.02794018  0.90863344  1  0  0.10812  0  0.966834  0  0  0.114009  0  1.036451  0  0  0.117336  0  1.035726  0  0  0.09657  0.111499  0  1.037428  0
H  H10  1  0.63167660  0.55329236  0.65581947  1  0  0.113926  0  0.97406  0  0  0.118145  0  1.043345  0  0  0.121532  0  1.042761  0  0  0.106559  0.11578  0  1.043781  0
H  H11  1  0.97597438  0.94664994  0.34411910  1  0  0.114216  0  0.973533  0  0  0.118533  0  1.042648  0  0  0.12189  0  1.042127  0  0  0.10659  0.116168  0  1.043074  0
H  H12  1  0.36833483  0.44670805  0.34418005  1  0  0.113954  0  0.974122  0  0  0.118202  0  1.043378  0  0  0.121593  0  1.042785  0  0  0.106578  0.115836  0  1.043816  0
H  H13  1  0.02403025  0.05334965  0.65588113  1  0  0.11418  0  0.973608  0  0  0.118503  0  1.042709  0  0  0.121874  0  1.042171  0  0  0.106569  0.116138  0  1.043136  0
H  H14  1  0.45701072  0.66813500  0.77523237  1  0  0.07667  0  0.964963  0  0  0.082325  0  1.035126  0  0  0.08556  0  1.031548  0  0  0.105263  0.079894  0  1.037862  0
H  H15  1  0.68187724  0.83179566  0.22475189  1  0  0.077044  0  0.96504  0  0  0.083154  0  1.034758  0  0  0.086301  0  1.031334  0  0  0.105525  0.080749  0  1.03746  0
H  H16  1  0.54298527  0.33185808  0.22476650  1  0  0.076646  0  0.965017  0  0  0.08235  0  1.035109  0  0  0.085589  0  1.031528  0  0  0.105268  0.07992  0  1.037843  0
H  H17  1  0.31812584  0.16820558  0.77524453  1  0  0.076981  0  0.965021  0  0  0.083068  0  1.034776  0  0  0.086215  0  1.031351  0  0  0.105506  0.080663  0  1.037478  0
H  H18  1  0.01339495  0.63914757  0.01842422  1  0  0.072374  0  0.982461  0  0  0.079569  0  1.051213  0  0  0.081929  0  1.049376  0  0  0.098885  0.077762  0  1.052646  0
H  H19  1  0.99509853  0.86066203  0.98153876  1  0  0.071948  0  0.983068  0  0  0.079142  0  1.052061  0  0  0.081518  0  1.050272  0  0  0.098903  0.07736  0  1.053436  0
H  H20  1  0.98659082  0.36084468  0.98157799  1  0  0.072404  0  0.982476  0  0  0.079611  0  1.05119  0  0  0.081972  0  1.049356  0  0  0.098892  0.077802  0  1.05264  0
H  H21  1  0.00490100  0.13933513  0.01845926  1  0  0.071932  0  0.983042  0  0  0.079124  0  1.05206  0  0  0.081509  0  1.050243  0  0  0.098865  0.077343  0  1.053433  0
H  H22  1  0.71763411  0.30539705  0.65630279  1  0  0.120072  0  0.950024  0  0  0.127948  0  1.014523  0  0  0.131318  0  1.012544  0  0  0.118386  0.125529  0  1.016001  0
H  H23  1  0.06111096  0.19437967  0.34341274  1  0  0.119692  0  0.94991  0  0  0.127603  0  1.01431  0  0  0.130982  0  1.012336  0  0  0.11827  0.125136  0  1.015859  0
H  H24  1  0.28238211  0.69460008  0.34370379  1  0  0.120025  0  0.950106  0  0  0.127948  0  1.01456  0  0  0.131316  0  1.012584  0  0  0.118381  0.125529  0  1.016036  0
H  H25  1  0.93888532  0.80561994  0.65658283  1  0  0.119686  0  0.949891  0  0  0.127595  0  1.014297  0  0  0.130976  0  1.012321  0  0  0.11826  0.125128  0  1.015847  0
H  H26  1  0.20439501  0.50681926  0.69177043  1  0  0.107357  0  0.96759  0  0  0.116723  0  1.036013  0  0  0.118966  0  1.034435  0  0  0.119348  0.115028  0  1.037271  0
H  H27  1  0.51244419  0.99291528  0.30818406  1  0  0.108287  0  0.96643  0  0  0.117141  0  1.035662  0  0  0.119391  0  1.034074  0  0  0.119472  0.115435  0  1.036943  0
H  H28  1  0.79561150  0.49318604  0.30823038  1  0  0.107437  0  0.96749  0  0  0.116764  0  1.035956  0  0  0.119003  0  1.034381  0  0  0.11936  0.11507  0  1.037216  0
H  H29  1  0.48755555  0.00708597  0.69181050  1  0  0.108317  0  0.966423  0  0  0.117179  0  1.035646  0  0  0.119425  0  1.034056  0  0  0.119514  0.115474  0  1.036926  0
H  H30  1  0.13034739  0.38911365  0.74703326  1  0  0.093433  0  0.932374  0  0  0.106394  0  0.996986  0  0  0.108041  0  0.995448  0  0  0.10564  0.105216  0  0.998071  0
H  H31  1  0.38365088  0.11068842  0.25289007  1  0  0.093026  0  0.932494  0  0  0.106308  0  0.996991  0  0  0.107934  0  0.995485  0  0  0.105433  0.105147  0  0.998112  0
H  H32  1  0.86967082  0.61089163  0.25297257  1  0  0.093421  0  0.932368  0  0  0.106389  0  0.996944  0  0  0.108034  0  0.99541  0  0  0.105649  0.105212  0  0.998029  0
H  H33  1  0.61634398  0.88931772  0.74710427  1  0  0.093113  0  0.932561  0  0  0.106409  0  0.997031  0  0  0.108032  0  0.995526  0  0  0.105474  0.105246  0  0.99815  0
C  C34  1  0.66485519  0.33222159  0.48667820  1  0  0.001435  0  3.799494  0  0  -0.026309  0  4.074034  0  0  -0.02538  0  4.092749  0  0  -0.008854  -0.026942  0  4.061212  0
C  C35  1  0.17780265  0.16778790  0.51311425  1  0  0.002878  0  3.797767  0  0  -0.024555  0  4.072292  0  0  -0.023615  0  4.09098  0  0  -0.008065  -0.025206  0  4.0595  0
C  C36  1  0.33514426  0.66777880  0.51332902  1  0  0.001247  0  3.79955  0  0  -0.026503  0  4.074109  0  0  -0.025574  0  4.092821  0  0  -0.008957  -0.027137  0  4.061285  0
C  C37  1  0.82220044  0.83221253  0.48688062  1  0  0.002688  0  3.797595  0  0  -0.02476  0  4.072125  0  0  -0.023821  0  4.090818  0  0  -0.00811  -0.025406  0  4.059332  0
C  C38  1  0.92489590  0.45783855  0.50911977  1  0  0.206185  0  3.769137  0  0  0.178744  0  4.039667  0  0  0.18967  0  4.053494  0  0  0.208677  0.171535  0  4.029968  0
C  C39  1  0.41568417  0.04214118  0.49081322  1  0  0.207022  0  3.764985  0  0  0.180345  0  4.034781  0  0  0.191306  0  4.048576  0  0  0.20996  0.173138  0  4.025071  0
C  C40  1  0.07510352  0.54216102  0.49088739  1  0  0.206305  0  3.769089  0  0  0.178775  0  4.039694  0  0  0.189707  0  4.053517  0  0  0.208674  0.171565  0  4.029996  0
C  C41  1  0.58431563  0.95786170  0.50918144  1  0  0.206827  0  3.765005  0  0  0.180205  0  4.034784  0  0  0.191167  0  4.04858  0  0  0.20986  0.172997  0  4.025074  0
C  C42  1  0.04609739  0.55685331  0.87534608  1  0  -0.169175  0  3.710839  0  0  -0.183975  0  3.955572  0  0  -0.19342  0  3.97781  0  0  -0.087669  -0.178085  0  3.941153  0
C  C43  1  0.17080329  0.94302484  0.12457044  1  0  -0.167913  0  3.708474  0  0  -0.18307  0  3.952835  0  0  -0.192415  0  3.97501  0  0  -0.087229  -0.177273  0  3.938488  0
C  C44  1  0.95389375  0.44314710  0.12465499  1  0  -0.169032  0  3.710777  0  0  -0.183831  0  3.955516  0  0  -0.193274  0  3.977761  0  0  -0.087634  -0.177939  0  3.941091  0
C  C45  1  0.82918639  0.05697804  0.87542388  1  0  -0.16795  0  3.708373  0  0  -0.183092  0  3.952778  0  0  -0.192434  0  3.974946  0  0  -0.087229  -0.177295  0  3.938429  0
C  C46  1  0.72529117  0.57149575  0.73507406  1  0  -0.164936  0  3.696042  0  0  -0.185531  0  3.948028  0  0  -0.193588  0  3.968191  0  0  -0.088574  -0.180431  0  3.934644  0
C  C47  1  0.99026680  0.92843551  0.26483652  1  0  -0.166306  0  3.698308  0  0  -0.18715  0  3.9503  0  0  -0.195202  0  3.970448  0  0  -0.089023  -0.182035  0  3.936891  0
C  C48  1  0.27470996  0.42850220  0.26492943  1  0  -0.165016  0  3.696204  0  0  -0.185647  0  3.948196  0  0  -0.193706  0  3.968365  0  0  -0.088588  -0.180543  0  3.934809  0
C  C49  1  0.00974126  0.07156248  0.73515798  1  0  -0.166459  0  3.698172  0  0  -0.187301  0  3.950192  0  0  -0.195366  0  3.970329  0  0  -0.089093  -0.182186  0  3.936788  0
C  C50  1  0.62421736  0.63457836  0.80171178  1  0  0.134535  0  3.697945  0  0  0.103864  0  3.945957  0  0  0.111933  0  3.962961  0  0  0.040451  0.098642  0  3.934659  0
C  C51  1  0.82266894  0.86527275  0.19829796  1  0  0.135523  0  3.699478  0  0  0.103889  0  3.947084  0  0  0.111982  0  3.96414  0  0  0.040847  0.098651  0  3.935774  0
C  C52  1  0.37578041  0.36541878  0.19828980  1  0  0.134524  0  3.697861  0  0  0.103813  0  3.945882  0  0  0.111884  0  3.962883  0  0  0.04041  0.09859  0  3.934578  0
C  C53  1  0.17733066  0.13472847  0.80170333  1  0  0.135749  0  3.699481  0  0  0.104093  0  3.947085  0  0  0.112193  0  3.964138  0  0  0.040915  0.098855  0  3.935775  0
C  C54  1  0.94051597  0.53075305  0.77188366  1  0  0.151081  0  3.694314  0  0  0.164997  0  3.931408  0  0  0.170976  0  3.951644  0  0  0.016326  0.161164  0  3.91777  0
C  C55  1  0.16861693  0.96917953  0.22801880  1  0  0.151343  0  3.69291  0  0  0.166266  0  3.928939  0  0  0.172212  0  3.949184  0  0  0.016736  0.162448  0  3.915288  0
C  C56  1  0.05948522  0.46924654  0.22811919  1  0  0.15112  0  3.694377  0  0  0.165035  0  3.931448  0  0  0.171013  0  3.951687  0  0  0.016303  0.161202  0  3.917808  0
C  C57  1  0.83138942  0.03081845  0.77197701  1  0  0.151542  0  3.692811  0  0  0.166448  0  3.928843  0  0  0.172397  0  3.949081  0  0  0.016822  0.162628  0  3.915198  0
C  C58  1  0.93341000  0.61921016  0.93746392  1  0  0.133235  0  3.719816  0  0  0.10018  0  3.970662  0  0  0.107946  0  3.989175  0  0  0.039626  0.095324  0  3.958061  0
C  C59  1  0.99609318  0.88059921  0.06250212  1  0  0.133846  0  3.718734  0  0  0.099938  0  3.969634  0  0  0.107651  0  3.988047  0  0  0.038863  0.095063  0  3.957102  0
C  C60  1  0.06657756  0.38078536  0.06253869  1  0  0.133027  0  3.719959  0  0  0.099953  0  3.970807  0  0  0.107718  0  3.989323  0  0  0.039583  0.095089  0  3.958195  0
C  C61  1  0.00390140  0.11939877  0.93749167  1  0  0.133892  0  3.718666  0  0  0.099909  0  3.969619  0  0  0.107631  0  3.988023  0  0  0.038904  0.095039  0  3.957082  0
C  C62  1  0.75509986  0.34444618  0.59142108  1  0  -0.070809  0  3.686283  0  0  -0.11366  0  3.949417  0  0  -0.111875  0  3.967019  0  0  -0.001643  -0.114774  0  3.937531  0
C  C63  1  0.16341820  0.15547963  0.40838571  1  0  -0.072832  0  3.6834  0  0  -0.115281  0  3.94684  0  0  -0.113488  0  3.964452  0  0  -0.002615  -0.116376  0  3.934955  0
C  C64  1  0.24490459  0.65555176  0.40858503  1  0  -0.070669  0  3.68633  0  0  -0.113554  0  3.949442  0  0  -0.11177  0  3.967053  0  0  -0.00156  -0.114666  0  3.937549  0
C  C65  1  0.83658322  0.84452323  0.59161213  1  0  -0.07274  0  3.68325  0  0  -0.115162  0  3.946674  0  0  -0.113372  0  3.964291  0  0  -0.002562  -0.116259  0  3.934789  0
C  C66  1  0.06150354  0.46053573  0.70576073  1  0  -0.064197  0  3.655756  0  0  -0.126382  0  3.895518  0  0  -0.123295  0  3.904086  0  0  -0.050421  -0.128228  0  3.889398  0
C  C67  1  0.35569344  0.03931554  0.29415115  1  0  -0.065861  0  3.654282  0  0  -0.128451  0  3.895562  0  0  -0.125345  0  3.904105  0  0  -0.051342  -0.130401  0  3.889706  0
C  C68  1  0.93850449  0.53946468  0.29423992  1  0  -0.064249  0  3.655798  0  0  -0.126399  0  3.895525  0  0  -0.123313  0  3.904099  0  0  -0.050399  -0.128256  0  3.889423  0
C  C69  1  0.64431136  0.96068733  0.70584631  1  0  -0.066052  0  3.654498  0  0  -0.128646  0  3.895819  0  0  -0.125544  0  3.904377  0  0  -0.051416  -0.130592  0  3.889959  0
Br  Br70  1  0.44058045  0.64706772  0.12178640  1  0  -0.52298  0  1.003691  0  0  -0.462298  0  1.303405  0  0  -0.479938  0  1.282396  0  0  -0.262227  -0.449404  0  1.317805  0
Br  Br71  1  0.31880552  0.85309266  0.87846033  1  0  -0.52266  0  1.003992  0  0  -0.461771  0  1.303504  0  0  -0.479472  0  1.282603  0  0  -0.261693  -0.448837  0  1.318002  0
Br  Br72  1  0.55938571  0.35294004  0.87821093  1  0  -0.52298  0  1.003612  0  0  -0.462279  0  1.303277  0  0  -0.479956  0  1.282335  0  0  -0.262206  -0.449382  0  1.31768  0
Br  Br73  1  0.68121784  0.14691264  0.12154156  1  0  -0.52263  0  1.003938  0  0  -0.46177  0  1.303483  0  0  -0.479481  0  1.282586  0  0  -0.261675  -0.448834  0  1.317983  0
N  N74  1  0.77056975  0.40203091  0.43611473  1  0  -0.390943  0  3.04242  0  0  -0.357625  0  3.313607  0  0  -0.369307  0  3.327204  0  0  -0.3429  -0.349335  0  3.303936  0
N  N75  1  0.33416813  0.09804207  0.56373270  1  0  -0.392174  0  3.043184  0  0  -0.358961  0  3.314033  0  0  -0.370627  0  3.327617  0  0  -0.343163  -0.350652  0  3.304399  0
N  N76  1  0.22942811  0.59797274  0.56389328  1  0  -0.390853  0  3.042447  0  0  -0.357535  0  3.313668  0  0  -0.369212  0  3.327255  0  0  -0.3428  -0.349245  0  3.303997  0
N  N77  1  0.66583506  0.90196162  0.43626239  1  0  -0.39205  0  3.043055  0  0  -0.358838  0  3.313896  0  0  -0.370507  0  3.327483  0  0  -0.343099  -0.35053  0  3.30426  0
N  N78  1  0.92149971  0.42383937  0.60547026  1  0  -0.084411  0  3.533331  0  0  0.008474  0  3.742856  0  0  -0.005762  0  3.768427  0  0  -0.23823  0.017929  0  3.725451  0
N  N79  1  0.31591343  0.07605859  0.39441400  1  0  -0.082608  0  3.528133  0  0  0.009076  0  3.739221  0  0  -0.005219  0  3.764826  0  0  -0.238682  0.018617  0  3.721751  0
N  N80  1  0.07850811  0.57615777  0.39453466  1  0  -0.084421  0  3.533309  0  0  0.00847  0  3.742882  0  0  -0.00577  0  3.768456  0  0  -0.238216  0.017927  0  3.725476  0
N  N81  1  0.68408967  0.92394427  0.60558402  1  0  -0.082491  0  3.528088  0  0  0.009113  0  3.739235  0  0  -0.005184  0  3.764839  0  0  -0.238645  0.018656  0  3.721764  0
N  N82  1  0.72560024  0.65796466  0.90189766  1  0  -0.324516  0  3.336905  0  0  -0.236626  0  3.606116  0  0  -0.25678  0  3.622589  0  0  -0.339602  -0.223149  0  3.594734  0
N  N83  1  0.82387012  0.84186167  0.09809276  1  0  -0.326082  0  3.335915  0  0  -0.236704  0  3.604065  0  0  -0.25677  0  3.620363  0  0  -0.339924  -0.223336  0  3.592945  0
N  N84  1  0.27439073  0.34203005  0.09810226  1  0  -0.324376  0  3.336753  0  0  -0.236465  0  3.605952  0  0  -0.256624  0  3.622436  0  0  -0.339556  -0.222993  0  3.594586  0
N  N85  1  0.17612612  0.15813794  0.90190506  1  0  -0.326208  0  3.336203  0  0  -0.236704  0  3.60426  0  0  -0.256776  0  3.620566  0  0  -0.339932  -0.223333  0  3.593126  0
