# generated using pymatgen
data_CuH18C21N2O7
_symmetry_space_group_name_H-M   'P 1'
_cell_length_a   7.85502865
_cell_length_b   10.04914829
_cell_length_c   13.18654906
_cell_angle_alpha   86.71479593
_cell_angle_beta   86.97045802
_cell_angle_gamma   70.51703220
_symmetry_Int_Tables_number   1
_chemical_formula_structural   CuH18C21N2O7
_chemical_formula_sum   'Cu2 H36 C42 N4 O14'
_cell_volume   979.05468482
_cell_formula_units_Z   2
loop_
 _symmetry_equiv_pos_site_id
 _symmetry_equiv_pos_as_xyz
  1  'x, y, z'
loop_
 _atom_site_type_symbol
 _atom_site_label
 _atom_site_symmetry_multiplicity
 _atom_site_fract_x
 _atom_site_fract_y
 _atom_site_fract_z
 _atom_site_occupancy
 _atom_site_pbe_cm5_charge
 _atom_site_pbe_ddec_charge
 _atom_site_pbe_ddec_spin_density
 _atom_site_pbe_ddec_sum_bond_order
 _atom_site_pbe_magmom
Cu  Cu0  1  0.73604394  0.31959263  0.76017575  1  0.747393  0.793599  -0.723597  2.196966  -0.561
Cu  Cu1  1  0.26395211  0.68040605  0.23982534  1  0.747457  0.793668  -0.723601  2.196927  -0.561
H  H2  1  0.47318421  0.95627790  0.63251671  1  0.349545  0.386746  6e-06  0.841244  0.0
H  H3  1  0.52681697  0.04371760  0.36748590  1  0.349567  0.386784  6e-06  0.841244  0.0
H  H4  1  0.19135893  0.90715100  0.77538151  1  0.100202  0.106635  -3.3e-05  1.040561  0.0
H  H5  1  0.80864347  0.09284768  0.22462021  1  0.100219  0.106636  -3.3e-05  1.040559  0.0
H  H6  1  0.30294272  0.68020153  0.87456587  1  0.109068  0.112291  -0.000279  0.994804  0.0
H  H7  1  0.69706141  0.31979609  0.12543585  1  0.109065  0.11229  -0.000279  0.99486  0.0
H  H8  1  0.10538908  0.53187468  0.90658276  1  0.105122  0.116387  -3.3e-05  1.012242  0.0
H  H9  1  0.89461456  0.46812399  0.09342045  1  0.10514  0.116452  -3.3e-05  1.012172  0.0
H  H10  1  0.10948712  0.30867668  0.71101797  1  0.114474  0.079639  -0.000949  1.026159  -0.002
H  H11  1  0.89050787  0.69131889  0.28897794  1  0.114468  0.079635  -0.000949  1.026206  -0.002
H  H12  1  0.40995167  0.20826860  0.79170427  1  0.106298  0.124113  -0.000462  1.044049  -0.001
H  H13  1  0.59004364  0.79173224  0.20829145  1  0.106306  0.124028  -0.000462  1.044113  -0.001
H  H14  1  0.13831286  0.07115265  0.04844644  1  0.105097  0.1118  -0.000489  1.041344  -0.001
H  H15  1  0.86168465  0.92885765  0.95155421  1  0.105119  0.111747  -0.000489  1.041419  -0.001
H  H16  1  0.85012728  0.17554126  0.95724432  1  0.118656  0.092369  -0.001091  1.020885  -0.002
H  H17  1  0.14987079  0.82446164  0.04275734  1  0.118652  0.092355  -0.001091  1.020822  -0.002
H  H18  1  0.58363519  0.08924032  0.92674666  1  0.094342  0.106958  -0.000165  1.020867  0.0
H  H19  1  0.41636119  0.91076684  0.07325110  1  0.094354  0.10693  -0.000165  1.02086  0.0
H  H20  1  0.46987479  0.14436923  0.04398758  1  0.097556  0.111348  0.000146  1.000321  0.0
H  H21  1  0.53012110  0.85563898  0.95601167  1  0.097572  0.111387  0.000147  1.000284  0.0
H  H22  1  0.60119533  0.19023940  0.60071943  1  0.117725  0.09293  -0.000808  1.03308  -0.001
H  H23  1  0.39880414  0.80976035  0.39928003  1  0.117723  0.092968  -0.000808  1.03307  -0.001
H  H24  1  0.33757400  0.26383616  0.48724718  1  0.105693  0.118001  -0.000562  1.01243  -0.001
H  H25  1  0.66242849  0.73616254  0.51275150  1  0.10571  0.118036  -0.000562  1.012405  -0.001
H  H26  1  0.18964496  0.68054260  0.60569631  1  0.112883  0.129017  -0.000533  0.991449  -0.001
H  H27  1  0.81035844  0.31945718  0.39429928  1  0.11288  0.129015  -0.000533  0.991438  -0.001
H  H28  1  0.45926358  0.58999762  0.71378718  1  0.118162  0.093789  -0.000905  1.033495  -0.001
H  H29  1  0.54073674  0.41000319  0.28621147  1  0.118159  0.093775  -0.000905  1.033478  -0.001
H  H30  1  0.02624242  0.64148838  0.46494186  1  0.099247  0.106003  6.5e-05  0.984483  0.0
H  H31  1  0.97376223  0.35851140  0.53505447  1  0.09923  0.105975  6.5e-05  0.984495  0.0
H  H32  1  0.11074616  0.48256853  0.39849742  1  0.095413  0.109913  2.3e-05  1.023253  0.0
H  H33  1  0.88925717  0.51743123  0.60150045  1  0.095412  0.109945  2.3e-05  1.023241  0.0
H  H34  1  0.44660498  0.37830717  0.95955163  1  0.292985  0.394652  6.6e-05  0.930341  0.0
H  H35  1  0.55339522  0.62169360  0.04045157  1  0.292983  0.394551  6.6e-05  0.930466  0.0
H  H36  1  0.60787795  0.43795693  0.93134669  1  0.275673  0.355269  -1.2e-05  1.007653  0.0
H  H37  1  0.39212401  0.56204280  0.06865501  1  0.275687  0.355293  -1.2e-05  1.007623  0.0
C  C38  1  0.86965096  0.04058097  0.70934999  1  0.191095  0.555804  -0.000159  4.262206  0.002
C  C39  1  0.13035059  0.95941983  0.29065016  1  0.190978  0.555644  -0.000159  4.262124  0.002
C  C40  1  0.93158209  0.88924432  0.75015888  1  -0.002248  -0.013014  -0.007016  3.916169  -0.008
C  C41  1  0.06841823  0.11075331  0.24984216  1  -0.002273  -0.013006  -0.007016  3.916168  -0.008
C  C42  1  0.10600433  0.84149434  0.78776279  1  -0.088487  -0.121218  -0.002766  3.967015  -0.003
C  C43  1  0.89399641  0.15850541  0.21223665  1  -0.088466  -0.121191  -0.002765  3.967012  -0.003
C  C44  1  0.16867854  0.71354013  0.84333719  1  -0.07497  -0.045245  -0.000756  3.978267  -0.001
C  C45  1  0.83132134  0.28645855  0.15666383  1  -0.074979  -0.045237  -0.000756  3.97838  -0.001
C  C46  1  0.05833164  0.63045672  0.86111749  1  -0.085339  -0.115682  -0.002688  3.958471  -0.003
C  C47  1  0.94167340  0.36953879  0.13888353  1  -0.085409  -0.115797  -0.002688  3.958525  -0.003
C  C48  1  0.88574361  0.67417946  0.82164917  1  -0.00066  -0.021026  -0.005518  3.929182  -0.006
C  C49  1  0.11426232  0.32581394  0.17835190  1  -0.00059  -0.021059  -0.005519  3.929275  -0.006
C  C50  1  0.77976123  0.57388316  0.83930369  1  0.216483  0.588508  -0.002491  4.199928  -0.001
C  C51  1  0.22024330  0.42611338  0.16069958  1  0.216408  0.588555  -0.002491  4.200108  -0.001
C  C52  1  0.12266424  0.25452862  0.78557378  1  0.04196  0.092674  0.000353  3.961685  0.0
C  C53  1  0.87733368  0.74546586  0.21442438  1  0.04194  0.092617  0.000352  3.9618  0.0
C  C54  1  0.28875701  0.19862967  0.83067032  1  -0.087839  -0.18541  -0.004199  3.913548  -0.005
C  C55  1  0.71124301  0.80136587  0.16932776  1  -0.087858  -0.185304  -0.004198  3.913615  -0.005
C  C56  1  0.30031192  0.13124482  0.92735163  1  0.02088  0.190236  0.004099  3.899344  0.002
C  C57  1  0.69968531  0.86876022  0.07264770  1  0.020902  0.190207  0.0041  3.899405  0.002
C  C58  1  0.13988577  0.12105868  0.97306437  1  -0.083238  -0.179147  -0.003808  3.919163  -0.004
C  C59  1  0.86011180  0.87894845  0.02693639  1  -0.083272  -0.1791  -0.003808  3.919191  -0.004
C  C60  1  0.97836447  0.17866998  0.92341012  1  0.045463  0.096049  0.001833  3.934202  0.001
C  C61  1  0.02163273  0.82133505  0.07659073  1  0.045484  0.096077  0.001833  3.934127  0.001
C  C62  1  0.47701947  0.07689613  0.97974997  1  -0.161256  -0.201874  -8.1e-05  3.902429  0.0
C  C63  1  0.52297770  0.92311208  0.02024925  1  -0.161216  -0.201768  -8.1e-05  3.902445  0.0
C  C64  1  0.50512923  0.29720223  0.59977820  1  0.041301  0.085045  0.000882  3.964755  0.0
C  C65  1  0.49486640  0.70279752  0.40022210  1  0.041342  0.084995  0.000882  3.964655  0.0
C  C66  1  0.35860637  0.33946974  0.53711330  1  -0.086521  -0.185337  -0.003012  3.933581  -0.003
C  C67  1  0.64139483  0.66052895  0.46288616  1  -0.086589  -0.185418  -0.003012  3.933476  -0.003
C  C68  1  0.23926877  0.47894456  0.53786368  1  0.018238  0.184353  0.003115  3.931433  0.002
C  C69  1  0.76072993  0.52105415  0.46213356  1  0.018321  0.184432  0.003115  3.931464  0.002
C  C70  1  0.27640368  0.57051228  0.60249857  1  -0.0806  -0.17765  -0.003148  3.916978  -0.004
C  C71  1  0.72359713  0.42948749  0.39749859  1  -0.080594  -0.177621  -0.003148  3.916986  -0.004
C  C72  1  0.42549817  0.52122380  0.66339574  1  0.047578  0.099701  0.001267  3.942206  0.001
C  C73  1  0.57449783  0.47877806  0.33660449  1  0.047538  0.099638  0.001267  3.942226  0.001
C  C74  1  0.07535498  0.52552502  0.47455842  1  -0.159133  -0.211214  0.000167  3.926178  0.0
C  C75  1  0.92464414  0.47447582  0.52543723  1  -0.159116  -0.211273  0.000167  3.926286  0.0
C  C76  1  0.63301299  0.84854215  0.73108220  1  0.236902  0.5837  -0.000514  4.099056  0.0
C  C77  1  0.36699027  0.15145440  0.26892109  1  0.236876  0.583706  -0.000514  4.099029  0.0
C  C78  1  0.82082854  0.80403335  0.76554371  1  -0.015154  -0.107479  -0.001333  3.940475  -0.001
C  C79  1  0.17917565  0.19596110  0.23445812  1  -0.015187  -0.107465  -0.001332  3.940466  -0.001
N  N80  1  0.96941886  0.24531402  0.83142350  1  -0.355964  -0.234519  -0.058296  3.631413  -0.076
N  N81  1  0.03057759  0.75468679  0.16857675  1  -0.355961  -0.234548  -0.058295  3.631378  -0.076
N  N82  1  0.53741837  0.38652212  0.66295205  1  -0.356983  -0.249156  -0.049507  3.637135  -0.064
N  N83  1  0.46257642  0.61347658  0.33704830  1  -0.357023  -0.249118  -0.049507  3.637191  -0.064
O  O84  1  0.95462760  0.08061021  0.63890588  1  -0.335058  -0.551627  -0.00108  2.07896  -0.003
O  O85  1  0.04535903  0.91938953  0.36109688  1  -0.335027  -0.551594  -0.001082  2.078674  -0.003
O  O86  1  0.73483223  0.12164727  0.76331770  1  -0.32901  -0.560043  -0.079471  2.350655  -0.111
O  O87  1  0.26516503  0.87835139  0.23668564  1  -0.328952  -0.559954  -0.079468  2.350641  -0.111
O  O88  1  0.76242972  0.51246621  0.75940510  1  -0.321654  -0.563366  -0.055758  2.389524  -0.078
O  O89  1  0.23757232  0.48753036  0.24059594  1  -0.32165  -0.563349  -0.055755  2.389636  -0.078
O  O90  1  0.72928567  0.55043625  0.92874462  1  -0.300047  -0.538075  -0.001477  2.213543  -0.003
O  O91  1  0.27072789  0.44955713  0.07125706  1  -0.299951  -0.53815  -0.001478  2.213628  -0.003
O  O92  1  0.60349083  0.92937568  0.64278024  1  -0.326191  -0.474292  -0.000155  2.245731  0.0
O  O93  1  0.39651164  0.07061983  0.35722159  1  -0.326172  -0.474328  -0.000155  2.245625  0.0
O  O94  1  0.51126143  0.81517133  0.77558936  1  -0.264815  -0.472601  -8.5e-05  2.187892  0.0
O  O95  1  0.48874094  0.18482733  0.22441387  1  -0.264802  -0.472572  -8.6e-05  2.18793  0.0
O  O96  1  0.55754829  0.36232761  0.91745547  1  -0.610326  -0.809566  0.001212  2.055108  0.0
O  O97  1  0.44244641  0.63767744  0.08254315  1  -0.610348  -0.809477  0.001212  2.05517  0.0
