# generated using pymatgen
data_Al4H12C29O22
_symmetry_space_group_name_H-M   'P 1'
_cell_length_a   6.69038669
_cell_length_b   16.79591615
_cell_length_c   18.67372830
_cell_angle_alpha   74.79444215
_cell_angle_beta   89.19887883
_cell_angle_gamma   90.07156950
_symmetry_Int_Tables_number   1
_chemical_formula_structural   Al4H12C29O22
_chemical_formula_sum   'Al4 H12 C29 O22'
_cell_volume   2024.70217965
_cell_formula_units_Z   1
loop_
 _symmetry_equiv_pos_site_id
 _symmetry_equiv_pos_as_xyz
  1  'x, y, z'
loop_
 _atom_site_type_symbol
 _atom_site_label
 _atom_site_symmetry_multiplicity
 _atom_site_fract_x
 _atom_site_fract_y
 _atom_site_fract_z
 _atom_site_occupancy
 _atom_site_pbe_bader_charge
 _atom_site_pbe_bader_spin_density
 _atom_site_pbe_cm5_charge
 _atom_site_pbe_ddec_charge
 _atom_site_pbe_ddec_spin_density
 _atom_site_pbe_ddec_sum_bond_order
 _atom_site_pbe_magmom
Al  Al0  1  0.11094422  0.49911578  0.49811607  1  2.499648  0  0.40143  1.640663  0  2.577803  0
Al  Al1  1  0.61157280  0.50046542  0.49727008  1  2.501419  0  0.401494  1.636922  0  2.584323  0
Al  Al2  1  0.62541933  0.99966048  0.00008006  1  2.501634  0  0.403773  1.647309  0  2.577641  0
Al  Al3  1  0.12555666  0.00015362  0.99881106  1  2.503028  0  0.403286  1.64902  0  2.578147  0
H  H4  1  0.56887952  0.80584016  0.19285569  1  0.078922  0  0.114023  0.11113  0  0.977923  0
H  H5  1  0.56739618  0.69351281  0.30780013  1  0.115007  0  0.115395  0.112959  0  0.976713  0
H  H6  1  0.07942724  0.17983595  0.80128973  1  0.132555  0  0.117885  0.120904  0  0.979538  0
H  H7  1  0.54016426  0.19184196  0.79134068  1  0.134561  0  0.114772  0.138584  0  0.988998  0
H  H8  1  0.02883144  0.80370535  0.19976878  1  0.077745  0  0.112646  0.128014  0  0.989153  0
H  H9  1  0.02746550  0.69452619  0.29605023  1  0.085847  0  0.113402  0.129457  0  0.988148  0
H  H10  1  0.94776648  0.23971588  0.57398986  1  0.623795  0  0.356716  0.39469  0  0.827984  0
H  H11  1  0.49701856  0.32403160  0.71593934  1  0.136865  0  0.121947  0.15279  0  0.976023  0
H  H12  1  0.35975607  0.59838326  0.51049086  1  0.641939  0  0.356912  0.438259  0  0.84294  0
H  H13  1  0.85353214  0.40225041  0.55398338  1  0.629263  0  0.342306  0.41528  0  0.89108  0
H  H14  1  0.37497772  0.89441878  0.00218076  1  0.60861  0  0.360286  0.441328  0  0.836634  0
H  H15  1  0.87570241  0.10831464  0.97285309  1  0.628669  0  0.360599  0.440812  0  0.836379  0
C  C16  1  0.36348233  0.41439308  0.41246330  1  1.703724  0  0.276943  0.696272  0  4.187025  0
C  C17  1  0.36035557  0.38890097  0.61179776  1  1.580645  0  0.265201  0.689578  0  4.096002  0
C  C18  1  0.85910862  0.58860362  0.58285413  1  1.687512  0  0.271327  0.698396  0  4.188186  0
C  C19  1  0.86549620  0.60916949  0.38516231  1  1.555232  0  0.264519  0.680762  0  4.115725  0
C  C20  1  0.71354760  0.78344110  0.21614005  1  0.001082  0  -0.063772  -0.02016  0  3.973031  0
C  C21  1  0.87834595  0.82126816  0.18022515  1  -0.00814  0  -0.079991  -0.225155  0  3.870682  0
C  C22  1  0.71268124  0.71567650  0.28295462  1  -0.063084  0  -0.06261  -0.017623  0  3.971061  0
C  C23  1  0.87625962  0.67711199  0.31684072  1  -0.029513  0  -0.08041  -0.229052  0  3.872181  0
C  C24  1  0.87657391  0.86369534  0.86100512  1  0.119903  0  0.000705  -0.133634  0  3.828538  0
C  C25  1  0.87143325  0.82005486  0.81769715  1  -0.253041  0  -0.009045  0.025122  0  4.261622  0
C  C26  1  0.86630925  0.77224470  0.77044199  1  -0.0317  0  0.002371  0.001163  0  4.18839  0
C  C27  1  0.86193270  0.72818649  0.72698628  1  0.041823  0  0.000833  -0.003248  0  4.187486  0
C  C28  1  0.85904904  0.68080409  0.67933598  1  -0.294675  0  -0.008056  0.02869  0  4.259525  0
C  C29  1  0.85774066  0.63783975  0.63541095  1  0.199387  0  -0.001597  -0.13735  0  3.833546  0
C  C30  1  0.36505350  0.36505682  0.35993299  1  0.23862  0  0.002097  -0.134906  0  3.827746  0
C  C31  1  0.36421796  0.32162998  0.31639108  1  -0.28155  0  -0.007934  0.027317  0  4.260652  0
C  C32  1  0.36404098  0.27357734  0.26926628  1  -0.09068  0  0.000724  -0.002564  0  4.188858  0
C  C33  1  0.36456470  0.22872680  0.22644943  1  0.039772  0  0.002372  0.000223  0  4.186249  0
C  C34  1  0.36624481  0.17998907  0.17992080  1  -0.130166  0  -0.007609  0.026387  0  4.256383  0
C  C35  1  0.36856336  0.13550848  0.13727876  1  0.034027  0  0.002482  -0.131942  0  3.825371  0
C  C36  1  0.22388596  0.20424862  0.77714691  1  -0.040358  0  -0.06099  -0.042273  0  3.948042  0
C  C37  1  0.39063131  0.17343351  0.81369243  1  -0.077081  0  -0.081394  -0.227934  0  3.866819  0
C  C38  1  0.21959325  0.26664855  0.70630557  1  0.00166  0  0.00912  0.025553  0  3.952772  0
C  C39  1  0.36462869  0.32398649  0.68251566  1  -0.032897  0  -0.066982  -0.23383  0  3.794595  0
C  C40  1  0.38170733  0.11061172  0.88585989  1  1.56174  0  0.263061  0.686436  0  4.101276  0
C  C41  1  0.37124764  0.08519818  0.08552316  1  1.682481  0  0.276129  0.696969  0  4.18691  0
C  C42  1  0.87122952  0.88831468  0.11120946  1  1.546413  0  0.262515  0.679152  0  4.115799  0
C  C43  1  0.87792395  0.91343604  0.91323693  1  1.713686  0  0.273693  0.697185  0  4.188527  0
C  C44  1  0.03429978  0.26436297  0.66219508  1  1.547867  0  0.241805  0.587217  0  4.123043  0
O  O45  1  0.53076024  0.41643162  0.58501194  1  -1.249257  0  -0.234854  -0.594217  0  2.320964  0
O  O46  1  0.19228740  0.43389908  0.43277932  1  -1.224322  0  -0.219119  -0.561664  0  2.289477  0
O  O47  1  0.03332029  0.58258198  0.41330037  1  -1.257046  0  -0.23532  -0.591724  0  2.311412  0
O  O48  1  0.19061517  0.41253338  0.58373006  1  -1.255702  0  -0.234881  -0.606295  0  2.349062  0
O  O49  1  0.03086968  0.56807901  0.56344611  1  -1.224159  0  -0.228552  -0.582771  0  2.279161  0
O  O50  1  0.53280742  0.43280478  0.43398756  1  -1.229014  0  -0.220687  -0.563411  0  2.282881  0
O  O51  1  0.36096179  0.54908334  0.49266419  1  -1.441444  0  -0.44795  -0.993015  0  2.185728  0
O  O52  1  0.68904181  0.57130804  0.56081511  1  -1.232229  0  -0.228668  -0.582423  0  2.282508  0
O  O53  1  0.69430853  0.58254566  0.41176561  1  -1.262127  0  -0.234605  -0.595336  0  2.333013  0
O  O54  1  0.86018207  0.44893322  0.51029696  1  -1.432576  0  -0.447762  -0.982563  0  2.174246  0
O  O55  1  0.20189905  0.06573466  0.06485573  1  -1.222206  0  -0.222142  -0.568271  0  2.285628  0
O  O56  1  0.55046019  0.08589779  0.91440927  1  -1.257002  0  -0.239722  -0.601415  0  2.299682  0
O  O57  1  0.70705896  0.93171488  0.93509268  1  -1.226965  0  -0.225316  -0.576649  0  2.28676  0
O  O58  1  0.54277085  0.06614582  0.06502005  1  -1.22049  0  -0.222662  -0.569894  0  2.283261  0
O  O59  1  0.70162517  0.91436338  0.08476965  1  -1.261134  0  -0.237297  -0.598606  0  2.324326  0
O  O60  1  0.21028486  0.08638558  0.91429462  1  -1.265069  0  -0.24034  -0.609649  0  2.324749  0
O  O61  1  0.37501825  0.95102489  0.00541738  1  -1.407979  0  -0.446601  -0.999536  0  2.207003  0
O  O62  1  0.04151197  0.91426571  0.08257117  1  -1.258259  0  -0.238406  -0.597477  0  2.312176  0
O  O63  1  0.04880811  0.93305196  0.93268014  1  -1.225165  0  -0.226108  -0.576366  0  2.277435  0
O  O64  1  0.87584406  0.04882606  0.99165664  1  -1.428393  0  -0.445869  -0.99691  0  2.203368  0
O  O65  1  0.86626188  0.27755913  0.68266227  1  -1.12974  0  -0.280168  -0.486285  0  2.091093  0
O  O66  1  0.07437712  0.24026406  0.59978203  1  -1.111922  0  -0.325352  -0.470397  0  2.20349  0
