# generated using pymatgen
data_MgH10C8S2(N2O3)2
_symmetry_space_group_name_H-M   'P 1'
_cell_length_a   7.02707389
_cell_length_b   12.31234579
_cell_length_c   12.28109584
_cell_angle_alpha   87.54789061
_cell_angle_beta   76.04768183
_cell_angle_gamma   75.53417808
_symmetry_Int_Tables_number   1
_chemical_formula_structural   MgH10C8S2(N2O3)2
_chemical_formula_sum   'Mg2 H20 C16 S4 N8 O12'
_cell_volume   998.34389067
_cell_formula_units_Z   2
loop_
 _symmetry_equiv_pos_site_id
 _symmetry_equiv_pos_as_xyz
  1  'x, y, z'
loop_
 _atom_site_type_symbol
 _atom_site_label
 _atom_site_symmetry_multiplicity
 _atom_site_fract_x
 _atom_site_fract_y
 _atom_site_fract_z
 _atom_site_occupancy
 _atom_site_pbe_bader_charge
 _atom_site_pbe_bader_spin_density
 _atom_site_pbe_cm5_charge
 _atom_site_pbe_ddec_charge
 _atom_site_pbe_ddec_spin_density
 _atom_site_pbe_ddec_sum_bond_order
 _atom_site_pbe_magmom
Mg  Mg0  1  0.51509391  0.00502606  0.99185475  1  1.6977  0  0.830852  1.375654  0  1.399943  0
Mg  Mg1  1  0.23651507  0.50922685  0.49489965  1  1.697943  0  0.827  1.372934  0  1.404714  0
H  H2  1  0.66620409  0.75807486  0.96928320  1  0.525589  0  0.314619  0.296412  0  0.966179  0
H  H3  1  0.14833265  0.05649930  0.07163391  1  0.624686  0  0.320402  0.391813  0  0.914585  0
H  H4  1  0.37761395  0.25007104  0.01623086  1  0.545568  0  0.313685  0.299263  0  0.981093  0
H  H5  1  0.22229949  0.92898350  0.04067973  1  0.628055  0  0.313927  0.387084  0  0.936873  0
H  H6  1  0.32538980  0.98756232  0.23929749  1  0.515955  0  0.305101  0.285075  0  1.004426  0
H  H7  1  0.91254062  0.00313260  0.01987019  1  0.662305  0  0.306274  0.425901  0  0.888041  0
H  H8  1  0.56624594  0.02475461  0.74769522  1  0.530608  0  0.315319  0.299757  0  0.970415  0
H  H9  1  0.73646662  0.01439518  0.12903541  1  0.604306  0  0.337332  0.419592  0  0.864283  0
H  H10  1  0.37668074  0.48339822  0.24965124  1  0.551247  0  0.312665  0.298733  0  0.980352  0
H  H11  1  0.53097333  0.45834466  0.57587990  1  0.633238  0  0.319476  0.395004  0  0.919925  0
H  H12  1  0.08351263  0.53020088  0.74165635  1  0.526974  0  0.313276  0.295997  0  0.969917  0
H  H13  1  0.59708676  0.42482395  0.44898082  1  0.618373  0  0.318684  0.39086  0  0.91934  0
H  H14  1  0.18529069  0.75322417  0.47517811  1  0.535083  0  0.315143  0.299874  0  0.968528  0
H  H15  1  0.01990136  0.37676841  0.46638766  1  0.612869  0  0.335039  0.415942  0  0.871  0
H  H16  1  0.41952130  0.26080712  0.51330321  1  0.523966  0  0.305932  0.28608  0  1.002135  0
H  H17  1  0.83872941  0.48404772  0.49191944  1  0.66651  0  0.308504  0.426695  0  0.884364  0
H  H18  1  0.87658559  0.86101784  0.64033107  1  0.117391  0  0.098908  0.156333  0  1.056194  0
H  H19  1  0.37619474  0.15224195  0.34864003  1  0.138792  0  0.092901  0.149562  0  1.079108  0
H  H20  1  0.46519482  0.64817922  0.14019389  1  0.156144  0  0.095558  0.151748  0  1.070876  0
H  H21  1  0.28025560  0.35929609  0.85300710  1  0.12769  0  0.095422  0.151526  0  1.072358  0
C  C22  1  0.75811844  0.82246748  0.81330092  1  1.1904  0  0.224806  0.573061  0  4.132185  0
C  C23  1  0.36558812  0.19239367  0.17579603  1  1.11822  0  0.215543  0.554096  0  4.14337  0
C  C24  1  0.40438463  0.82506317  0.17789008  1  1.077187  0  0.211061  0.546489  0  4.149372  0
C  C25  1  0.42399039  0.18352175  0.81199486  1  1.12316  0  0.226997  0.574879  0  4.116555  0
C  C26  1  0.38783035  0.32426535  0.30782144  1  1.110285  0  0.216511  0.551226  0  4.145846  0
C  C27  1  0.99352598  0.68731450  0.67815481  1  1.157646  0  0.221641  0.571733  0  4.13166  0
C  C28  1  0.32572641  0.68878031  0.31634766  1  1.134422  0  0.22682  0.574117  0  4.117413  0
C  C29  1  0.33915545  0.32174117  0.67595391  1  1.128011  0  0.210433  0.549971  0  4.149154  0
C  C30  1  0.87532075  0.62884018  0.87096498  1  0.742578  0  0.226796  0.400599  0  4.13139  0
C  C31  1  0.87633250  0.79688567  0.70412480  1  0.012902  0  -0.150484  -0.4992  0  3.921124  0
C  C32  1  0.37709346  0.38324962  0.11640441  1  0.691717  0  0.229434  0.398427  0  4.123613  0
C  C33  1  0.37622445  0.21610511  0.28442456  1  0.036097  0  -0.158464  -0.513836  0  3.951182  0
C  C34  1  0.24345748  0.88623287  0.37310835  1  0.697838  0  0.225757  0.400207  0  4.127347  0
C  C35  1  0.40767919  0.71377036  0.20496958  1  0.050603  0  -0.151075  -0.492271  0  3.928319  0
C  C36  1  0.50409369  0.12680526  0.61461687  1  0.683987  0  0.226322  0.401743  0  4.123808  0
C  C37  1  0.33833749  0.29463428  0.78732493  1  0.072085  0  -0.151584  -0.495544  0  3.931687  0
S  S38  1  0.87456052  0.53151291  0.96776324  1  -0.016562  0  -0.220088  -0.410738  0  2.085215  0
S  S39  1  0.37668845  0.47997555  0.01942204  1  0.031899  0  -0.188015  -0.369553  0  2.124037  0
S  S40  1  0.14224097  0.98736788  0.46923021  1  -0.002445  0  -0.217191  -0.405456  0  2.108097  0
S  S41  1  0.60698464  0.03096167  0.51326624  1  0.000831  0  -0.217532  -0.406994  0  2.108079  0
N  N42  1  0.76149450  0.73769224  0.89105815  1  -1.289622  0  -0.383717  -0.381287  0  3.532265  0
N  N43  1  0.36896970  0.27533474  0.09739760  1  -1.281092  0  -0.385471  -0.376831  0  3.537079  0
N  N44  1  0.32706201  0.90558921  0.26278334  1  -1.251592  0  -0.394507  -0.391491  0  3.557311  0
N  N45  1  0.49955251  0.10484094  0.72565276  1  -1.260597  0  -0.378683  -0.371332  0  3.518539  0
N  N46  1  0.38549068  0.40234838  0.22454730  1  -1.287778  0  -0.38397  -0.375644  0  3.539538  0
N  N47  1  0.98943684  0.60902611  0.76244794  1  -1.288388  0  -0.383517  -0.380022  0  3.526983  0
N  N48  1  0.25007879  0.77516540  0.39504275  1  -1.264631  0  -0.378815  -0.371872  0  3.519619  0
N  N49  1  0.41731465  0.23692537  0.59539207  1  -1.281042  0  -0.395485  -0.391873  0  3.550787  0
O  O50  1  0.64423616  0.92025742  0.84688997  1  -1.257264  0  -0.373174  -0.656479  0  2.245311  0
O  O51  1  0.35503027  0.09570476  0.14279770  1  -1.250308  0  -0.360008  -0.666602  0  2.295437  0
O  O52  1  0.46432472  0.85968838  0.07668533  1  -1.256365  0  -0.363862  -0.672545  0  2.263722  0
O  O53  1  0.43913483  0.14994467  0.91091943  1  -1.243133  0  -0.364405  -0.648475  0  2.281128  0
O  O54  1  0.39757954  0.35745648  0.40493973  1  -1.254227  0  -0.361647  -0.666306  0  2.297727  0
O  O55  1  0.10670744  0.65374754  0.58036711  1  -1.261243  0  -0.37224  -0.65705  0  2.240379  0
O  O56  1  0.31424729  0.58977340  0.34995842  1  -1.241257  0  -0.361316  -0.644105  0  2.279693  0
O  O57  1  0.27665403  0.42278737  0.64146698  1  -1.256596  0  -0.363008  -0.674613  0  2.265714  0
O  O58  1  0.15550026  0.00207145  0.01336509  1  -1.244001  0  -0.548893  -0.736701  0  1.979747  0
O  O59  1  0.76485787  0.00754870  0.04781441  1  -1.279656  0  -0.602862  -0.83808  0  1.981649  0
O  O60  1  0.59005751  0.48497485  0.50146843  1  -1.241942  0  -0.547849  -0.740651  0  1.982026  0
O  O61  1  0.98832243  0.45715298  0.48051508  1  -1.291124  0  -0.600279  -0.832836  0  1.983386  0
