# generated using pymatgen
data_ZnH16C15N6O5
_symmetry_space_group_name_H-M   'P 1'
_cell_length_a   10.08639839
_cell_length_b   10.27539512
_cell_length_c   10.78613264
_cell_angle_alpha   79.68924514
_cell_angle_beta   62.82190381
_cell_angle_gamma   65.12323008
_symmetry_Int_Tables_number   1
_chemical_formula_structural   ZnH16C15N6O5
_chemical_formula_sum   'Zn2 H32 C30 N12 O10'
_cell_volume   902.07604217
_cell_formula_units_Z   2
loop_
 _symmetry_equiv_pos_site_id
 _symmetry_equiv_pos_as_xyz
  1  'x, y, z'
loop_
 _atom_site_type_symbol
 _atom_site_label
 _atom_site_symmetry_multiplicity
 _atom_site_fract_x
 _atom_site_fract_y
 _atom_site_fract_z
 _atom_site_occupancy
 _atom_site_hle17_bader_spin_density
 _atom_site_hle17_ddec_charge
 _atom_site_hle17_ddec_spin_density
 _atom_site_hle17_ddec_sum_bond_order
 _atom_site_hle17_magmom
 _atom_site_hse06_10hf_bader_spin_density
 _atom_site_hse06_10hf_ddec_charge
 _atom_site_hse06_10hf_ddec_spin_density
 _atom_site_hse06_10hf_ddec_sum_bond_order
 _atom_site_hse06_10hf_magmom
 _atom_site_hse06_bader_spin_density
 _atom_site_hse06_ddec_charge
 _atom_site_hse06_ddec_spin_density
 _atom_site_hse06_ddec_sum_bond_order
 _atom_site_hse06_magmom
 _atom_site_pbe_bader_spin_density
 _atom_site_pbe_cm5_charge
 _atom_site_pbe_ddec_charge
 _atom_site_pbe_ddec_spin_density
 _atom_site_pbe_ddec_sum_bond_order
 _atom_site_pbe_magmom
Zn  Zn0  1  0.97172903  0.39690976  0.30432343  1  0  1.039119  0  1.809813  0  0  0.858306  0  2.260846  0  0  0.907721  0  2.206796  0  0  0.677964  0.821207  0  2.299773  0
Zn  Zn1  1  0.02826868  0.60309538  0.69567640  1  0  1.03916  0  1.809761  0  0  0.858358  0  2.260803  0  0  0.90777  0  2.206751  0  0  0.677974  0.821268  0  2.29971  0
H  H2  1  0.27345761  0.95729062  0.58942239  1  0  0.078674  0  0.900593  0  0  0.099681  0  0.953364  0  0  0.099932  0  0.95326  0  0  0.117727  0.099167  0  0.953885  0
H  H3  1  0.72653790  0.04270614  0.41057878  1  0  0.07868  0  0.900673  0  0  0.099734  0  0.953413  0  0  0.099984  0  0.953309  0  0  0.117765  0.099219  0  0.95393  0
H  H4  1  0.12910445  0.87967527  0.67153702  1  0  0.098341  0  0.956286  0  0  0.106801  0  1.029556  0  0  0.10797  0  1.029154  0  0  0.115316  0.105757  0  1.029866  0
H  H5  1  0.87088264  0.12033130  0.32846783  1  0  0.098343  0  0.956299  0  0  0.106826  0  1.029557  0  0  0.107998  0  1.029154  0  0  0.115301  0.105777  0  1.029865  0
H  H6  1  0.18045330  0.92533000  0.84965835  1  0  0.092003  0  0.916945  0  0  0.110782  0  0.97444  0  0  0.111495  0  0.974771  0  0  0.104379  0.110039  0  0.97454  0
H  H7  1  0.81953972  0.07467001  0.15034609  1  0  0.091986  0  0.916907  0  0  0.110751  0  0.97444  0  0  0.111464  0  0.97477  0  0  0.104335  0.110005  0  0.974537  0
H  H8  1  0.98452538  0.05357053  0.87575364  1  0  0.086337  0  0.93391  0  0  0.100589  0  1.001419  0  0  0.101298  0  1.002315  0  0  0.099634  0.099971  0  1.000935  0
H  H9  1  0.01547017  0.94643997  0.12424713  1  0  0.086308  0  0.933896  0  0  0.100582  0  1.001395  0  0  0.101289  0  1.002291  0  0  0.099612  0.099962  0  1.00092  0
H  H10  1  0.29506794  0.11542377  0.72374134  1  0  0.074852  0  0.903671  0  0  0.092266  0  0.961673  0  0  0.092962  0  0.960869  0  0  0.111678  0.091705  0  0.962242  0
H  H11  1  0.70494360  0.88456292  0.27626329  1  0  0.074779  0  0.903653  0  0  0.092199  0  0.961638  0  0  0.092895  0  0.960833  0  0  0.111639  0.091631  0  0.962205  0
H  H12  1  0.09374751  0.24539966  0.77362954  1  0  0.108623  0  0.949573  0  0  0.120701  0  1.014179  0  0  0.122196  0  1.013987  0  0  0.118914  0.11966  0  1.014219  0
H  H13  1  0.90627083  0.75459842  0.22636397  1  0  0.108597  0  0.949571  0  0  0.120624  0  1.014204  0  0  0.122119  0  1.014013  0  0  0.118891  0.119577  0  1.014248  0
H  H14  1  0.71944944  0.25646446  0.56963239  1  0  0.104106  0  0.933569  0  0  0.112758  0  0.994058  0  0  0.114457  0  0.992761  0  0  0.136676  0.111244  0  0.995444  0
H  H15  1  0.28055507  0.74353515  0.43036094  1  0  0.104049  0  0.933516  0  0  0.112717  0  0.993993  0  0  0.114416  0  0.992696  0  0  0.136658  0.11121  0  0.995378  0
H  H16  1  0.20816963  0.17588217  0.43875819  1  0  0.112141  0  0.922531  0  0  0.123618  0  0.981045  0  0  0.12681  0  0.976646  0  0  0.147404  0.121117  0  0.984314  0
H  H17  1  0.79182898  0.82412611  0.56124355  1  0  0.11223  0  0.922453  0  0  0.123705  0  0.980967  0  0  0.126899  0  0.976562  0  0  0.147413  0.121205  0  0.984246  0
H  H18  1  0.27711793  0.06328796  0.17445723  1  0  0.093256  0  0.925573  0  0  0.101683  0  0.9886  0  0  0.104153  0  0.985469  0  0  0.135698  0.099824  0  0.990869  0
H  H19  1  0.72286203  0.93671357  0.82555876  1  0  0.093091  0  0.925692  0  0  0.101555  0  0.988677  0  0  0.104067  0  0.985503  0  0  0.135657  0.099701  0  0.990948  0
H  H20  1  0.96429649  0.36659237  0.00793545  1  0  0.13702  0  0.953593  0  0  0.1428  0  1.019006  0  0  0.146414  0  1.014624  0  0  0.148016  0.140034  0  1.022256  0
H  H21  1  0.03570179  0.63341170  0.99205969  1  0  0.137077  0  0.953623  0  0  0.142833  0  1.019053  0  0  0.146451  0  1.01467  0  0  0.148026  0.14007  0  1.02231  0
H  H22  1  0.44069570  0.38164877  0.30084112  1  0  0.091538  0  0.968729  0  0  0.099763  0  1.034749  0  0  0.104616  0  1.029749  0  0  0.09953  0.096304  0  1.038475  0
H  H23  1  0.55931150  0.61834124  0.69915361  1  0  0.091587  0  0.96881  0  0  0.099805  0  1.034829  0  0  0.104662  0  1.029823  0  0  0.099554  0.096348  0  1.038559  0
H  H24  1  0.66047557  0.68719383  0.12123169  1  0  0.089636  0  0.981847  0  0  0.093422  0  1.054609  0  0  0.0966  0  1.052828  0  0  0.096607  0.091302  0  1.055513  0
H  H25  1  0.33952366  0.31280492  0.87876579  1  0  0.08965  0  0.981868  0  0  0.093444  0  1.054616  0  0  0.096621  0  1.052837  0  0  0.09661  0.091323  0  1.055522  0
H  H26  1  0.47019463  0.80993920  0.00848295  1  0  0.088279  0  0.968401  0  0  0.094793  0  1.035534  0  0  0.098374  0  1.033841  0  0  0.094712  0.092075  0  1.037097  0
H  H27  1  0.52980216  0.19006280  0.99151592  1  0  0.088256  0  0.968469  0  0  0.094773  0  1.035592  0  0  0.098354  0  1.033899  0  0  0.094692  0.092052  0  1.037146  0
H  H28  1  0.26385975  0.71639528  0.04574012  1  0  0.090152  0  0.946286  0  0  0.098718  0  1.012645  0  0  0.102365  0  1.009662  0  0  0.100666  0.095992  0  1.014984  0
H  H29  1  0.73614385  0.28359803  0.95425739  1  0  0.09008  0  0.94623  0  0  0.098679  0  1.012563  0  0  0.102328  0  1.009584  0  0  0.100672  0.095954  0  1.014896  0
H  H30  1  0.72497846  0.61005509  0.45164164  1  0  0.414602  0  0.839072  0  0  0.394903  0  0.899173  0  0  0.403519  0  0.889041  0  0  0.309024  0.388665  0  0.90656  0
H  H31  1  0.27501679  0.38994485  0.54836282  1  0  0.414646  0  0.83906  0  0  0.39494  0  0.899171  0  0  0.403554  0  0.88904  0  0  0.30902  0.388698  0  0.906563  0
H  H32  1  0.81675099  0.58732553  0.54650541  1  0  0.419744  0  0.889559  0  0  0.386366  0  0.957815  0  0  0.397036  0  0.942551  0  0  0.283852  0.378678  0  0.968782  0
H  H33  1  0.18324939  0.41267846  0.45349445  1  0  0.419756  0  0.889559  0  0  0.386354  0  0.95783  0  0  0.397025  0  0.942566  0  0  0.28386  0.37866  0  0.968807  0
C  C34  1  0.14718357  0.97917778  0.66388200  1  0  -0.008961  0  3.624583  0  0  -0.084441  0  3.884006  0  0  -0.080399  0  3.894819  0  0  -0.046596  -0.086699  0  3.876368  0
C  C35  1  0.85280886  0.02082649  0.33612197  1  0  -0.009049  0  3.624564  0  0  -0.084589  0  3.884167  0  0  -0.080546  0  3.89498  0  0  -0.046666  -0.08683  0  3.876508  0
C  C36  1  0.11408264  0.02201018  0.80655459  1  0  -0.141719  0  3.656552  0  0  -0.189284  0  3.930463  0  0  -0.191207  0  3.943863  0  0  -0.156874  -0.187501  0  3.920927  0
C  C37  1  0.88591648  0.97799703  0.19344433  1  0  -0.141655  0  3.656217  0  0  -0.189261  0  3.930214  0  0  -0.191181  0  3.94361  0  0  -0.156831  -0.187484  0  3.920667  0
C  C38  1  0.16872846  0.14190520  0.80075301  1  0  -0.019514  0  3.621882  0  0  -0.096403  0  3.886594  0  0  -0.092632  0  3.896636  0  0  -0.050365  -0.09849  0  3.87892  0
C  C39  1  0.83128206  0.85808998  0.19924601  1  0  -0.01952  0  3.621813  0  0  -0.096238  0  3.886472  0  0  -0.092469  0  3.896511  0  0  -0.050312  -0.098304  0  3.878773  0
C  C40  1  0.84073031  0.21094842  0.56366258  1  0  0.202685  0  3.704319  0  0  0.147545  0  4.001536  0  0  0.158922  0  4.014979  0  0  0.148414  0.140087  0  3.992271  0
C  C41  1  0.15925905  0.78906124  0.43633528  1  0  0.202651  0  3.704582  0  0  0.147503  0  4.001805  0  0  0.158878  0  4.015251  0  0  0.148427  0.140033  0  3.992539  0
C  C42  1  0.08912166  0.17262088  0.49384027  1  0  0.184977  0  3.634736  0  0  0.104606  0  3.901441  0  0  0.119497  0  3.912059  0  0  0.166103  0.095592  0  3.893415  0
C  C43  1  0.91087020  0.82738764  0.50616325  1  0  0.18487  0  3.634478  0  0  0.104529  0  3.901211  0  0  0.119419  0  3.911831  0  0  0.166063  0.095513  0  3.8932  0
C  C44  1  0.21977101  0.11802729  0.10555662  1  0  0.207642  0  3.720357  0  0  0.152363  0  4.018131  0  0  0.164329  0  4.030624  0  0  0.148301  0.144607  0  4.009055  0
C  C45  1  0.78021840  0.88197286  0.89445668  1  0  0.207769  0  3.720711  0  0  0.152457  0  4.018527  0  0  0.164382  0  4.03102  0  0  0.148305  0.144692  0  4.009459  0
C  C46  1  0.05756805  0.27349203  0.02571375  1  0  0.184959  0  3.580995  0  0  0.107312  0  3.842769  0  0  0.12218  0  3.852494  0  0  0.170166  0.097926  0  3.835921  0
C  C47  1  0.94244300  0.72649891  0.97428761  1  0  0.184696  0  3.580478  0  0  0.107127  0  3.842265  0  0  0.121993  0  3.85199  0  0  0.169994  0.097731  0  3.835435  0
C  C48  1  0.33543150  0.54587573  0.17860897  1  0  -0.084533  0  3.786334  0  0  -0.056997  0  4.017752  0  0  -0.067348  0  4.042984  0  0  -0.023534  -0.050501  0  4.001215  0
C  C49  1  0.66457182  0.45411547  0.82138899  1  0  -0.084607  0  3.786488  0  0  -0.057057  0  4.017868  0  0  -0.06741  0  4.043107  0  0  -0.023604  -0.05057  0  4.001342  0
C  C50  1  0.44417462  0.47715896  0.23883707  1  0  -0.077376  0  3.734381  0  0  -0.11164  0  3.978174  0  0  -0.10937  0  3.997683  0  0  -0.08225  -0.113121  0  3.965943  0
C  C51  1  0.55583281  0.52283633  0.76115299  1  0  -0.077559  0  3.734608  0  0  -0.111824  0  3.978401  0  0  -0.109563  0  3.997903  0  0  -0.082311  -0.113303  0  3.966181  0
C  C52  1  0.56073552  0.52790664  0.21884935  1  0  -0.073887  0  3.763731  0  0  -0.046534  0  3.994053  0  0  -0.056397  0  4.018278  0  0  -0.022921  -0.04022  0  3.978294  0
C  C53  1  0.43927421  0.47208539  0.78114401  1  0  -0.073768  0  3.763744  0  0  -0.04639  0  3.994009  0  0  -0.056249  0  4.018234  0  0  -0.022845  -0.040074  0  3.978257  0
C  C54  1  0.56889821  0.64886262  0.13613539  1  0  -0.045138  0  3.706931  0  0  -0.072316  0  3.957217  0  0  -0.069188  0  3.975736  0  0  -0.082063  -0.073519  0  3.943807  0
C  C55  1  0.43110113  0.35113612  0.86385833  1  0  -0.045164  0  3.706875  0  0  -0.072354  0  3.957161  0  0  -0.069228  0  3.97568  0  0  -0.082098  -0.073562  0  3.943755  0
C  C56  1  0.46333154  0.71640495  0.07334799  1  0  -0.082079  0  3.764794  0  0  -0.092599  0  4.019477  0  0  -0.098089  0  4.041093  0  0  -0.094192  -0.089011  0  4.004617  0
C  C57  1  0.53667362  0.28358725  0.92664907  1  0  -0.082139  0  3.764648  0  0  -0.092668  0  4.019377  0  0  -0.098155  0  4.04099  0  0  -0.094202  -0.089075  0  4.004502  0
C  C58  1  0.34714567  0.66485278  0.09413486  1  0  -0.03848  0  3.721429  0  0  -0.068587  0  3.976079  0  0  -0.065445  0  3.994961  0  0  -0.076596  -0.070092  0  3.963177  0
C  C59  1  0.65285608  0.33514271  0.90585841  1  0  -0.038319  0  3.721486  0  0  -0.068455  0  3.976138  0  0  -0.065328  0  3.995039  0  0  -0.076574  -0.069956  0  3.963223  0
C  C60  1  0.20533429  0.49606131  0.20725714  1  0  0.649681  0  3.889288  0  0  0.597291  0  4.177843  0  0  0.631038  0  4.1721  0  0  0.202957  0.57437  0  4.180788  0
C  C61  1  0.79467600  0.50392331  0.79274277  1  0  0.64978  0  3.889527  0  0  0.597437  0  4.178021  0  0  0.631185  0  4.172275  0  0  0.203091  0.574518  0  4.180966  0
C  C62  1  0.67637565  0.45146172  0.28466439  1  0  0.630989  0  3.945312  0  0  0.58358  0  4.236937  0  0  0.617354  0  4.230446  0  0  0.193316  0.560274  0  4.240997  0
C  C63  1  0.32362320  0.54854339  0.71533498  1  0  0.631095  0  3.945011  0  0  0.583684  0  4.236661  0  0  0.617456  0  4.230167  0  0  0.193363  0.560366  0  4.240741  0
N  N64  1  0.04652751  0.08732567  0.60129694  1  0  0.03824  0  3.562001  0  0  0.161122  0  3.748333  0  0  0.149916  0  3.774214  0  0  -0.133455  0.167289  0  3.732823  0
N  N65  1  0.95347002  0.91268265  0.39870338  1  0  0.038332  0  3.561745  0  0  0.161122  0  3.748231  0  0  0.149914  0  3.774119  0  0  -0.133415  0.167271  0  3.732751  0
N  N66  1  0.88807359  0.10960773  0.64708441  1  0  -0.272134  0  2.851974  0  0  -0.272316  0  3.123719  0  0  -0.281522  0  3.140085  0  0  -0.219713  -0.266212  0  3.112934  0
N  N67  1  0.11192807  0.89039304  0.35291546  1  0  -0.272031  0  2.851918  0  0  -0.272184  0  3.123701  0  0  -0.281389  0  3.140065  0  0  -0.219688  -0.266072  0  3.112911  0
N  N68  1  0.96126722  0.25267993  0.46698055  1  0  -0.40433  0  3.231492  0  0  -0.331549  0  3.540653  0  0  -0.352801  0  3.550079  0  0  -0.343605  -0.316781  0  3.533  0
N  N69  1  0.03873655  0.74732395  0.53301795  1  0  -0.404321  0  3.231369  0  0  -0.331523  0  3.540507  0  0  -0.352773  0  3.54993  0  0  -0.343566  -0.31676  0  3.532873  0
N  N70  1  0.16033607  0.16302295  0.93463968  1  0  0.043649  0  3.557175  0  0  0.165182  0  3.745388  0  0  0.154705  0  3.769292  0  0  -0.134525  0.170823  0  3.731502  0
N  N71  1  0.83966387  0.83697895  0.06536627  1  0  0.04386  0  3.556913  0  0  0.165196  0  3.745306  0  0  0.154712  0  3.769224  0  0  -0.134497  0.170834  0  3.731413  0
N  N72  1  0.26515695  0.06219390  0.98379893  1  0  -0.295951  0  2.850199  0  0  -0.295393  0  3.116984  0  0  -0.304115  0  3.130049  0  0  -0.231346  -0.289207  0  3.108403  0
N  N73  1  0.73484047  0.93780597  0.01620745  1  0  -0.295844  0  2.850215  0  0  -0.295219  0  3.117042  0  0  -0.30394  0  3.130128  0  0  -0.231241  -0.289024  0  3.108451  0
N  N74  1  0.09238751  0.24789643  0.13584235  1  0  -0.412604  0  3.217136  0  0  -0.341024  0  3.518793  0  0  -0.363291  0  3.531392  0  0  -0.339551  -0.325651  0  3.509359  0
N  N75  1  0.90760436  0.75210680  0.86415739  1  0  -0.412556  0  3.216858  0  0  -0.34097  0  3.518473  0  0  -0.363242  0  3.531092  0  0  -0.339461  -0.325598  0  3.50905  0
O  O76  1  0.11472382  0.54907657  0.14553808  1  0  -0.612617  0  1.977949  0  0  -0.558162  0  2.215019  0  0  -0.582989  0  2.206901  0  0  -0.307271  -0.539918  0  2.220734  0
O  O77  1  0.88527222  0.45091911  0.85445934  1  0  -0.612588  0  1.978311  0  0  -0.558157  0  2.215321  0  0  -0.582976  0  2.207198  0  0  -0.3073  -0.539918  0  2.22103  0
O  O78  1  0.18450913  0.39872064  0.30121782  1  0  -0.678818  0  2.053717  0  0  -0.596202  0  2.290869  0  0  -0.626369  0  2.28011  0  0  -0.328828  -0.574274  0  2.297142  0
O  O79  1  0.81549276  0.60127907  0.69878861  1  0  -0.678916  0  2.053693  0  0  -0.596352  0  2.290884  0  0  -0.626512  0  2.280101  0  0  -0.328927  -0.574424  0  2.297157  0
O  O80  1  0.78367424  0.50448918  0.25534680  1  0  -0.666185  0  2.0624  0  0  -0.590795  0  2.327009  0  0  -0.620172  0  2.313258  0  0  -0.337658  -0.569605  0  2.336578  0
O  O81  1  0.21632464  0.49551592  0.74465164  1  0  -0.666282  0  2.062281  0  0  -0.590907  0  2.326907  0  0  -0.62028  0  2.313153  0  0  -0.337742  -0.569709  0  2.33648  0
O  O82  1  0.66538155  0.34496353  0.35977055  1  0  -0.628735  0  1.900176  0  0  -0.586377  0  2.120979  0  0  -0.608138  0  2.111801  0  0  -0.33885  -0.570692  0  2.127028  0
O  O83  1  0.33462076  0.65503828  0.64023074  1  0  -0.628723  0  1.900116  0  0  -0.586352  0  2.120916  0  0  -0.608111  0  2.111738  0  0  -0.338798  -0.570662  0  2.126971  0
O  O84  1  0.82927847  0.59308487  0.44808142  1  0  -0.818201  0  1.887274  0  0  -0.766364  0  2.087386  0  0  -0.786412  0  2.059653  0  0  -0.576855  -0.752238  0  2.107233  0
O  O85  1  0.17071879  0.40692135  0.55191935  1  0  -0.818273  0  1.887326  0  0  -0.766399  0  2.087497  0  0  -0.786456  0  2.059782  0  0  -0.576847  -0.752268  0  2.107347  0
