# generated using pymatgen
data_Mn2H28C36N6O11
_symmetry_space_group_name_H-M   'P 1'
_cell_length_a   10.20521666
_cell_length_b   14.23152686
_cell_length_c   14.23126854
_cell_angle_alpha   69.32247587
_cell_angle_beta   78.25084078
_cell_angle_gamma   78.24798103
_symmetry_Int_Tables_number   1
_chemical_formula_structural   Mn2H28C36N6O11
_chemical_formula_sum   'Mn4 H56 C72 N12 O22'
_cell_volume   1873.53774329
_cell_formula_units_Z   2
loop_
 _symmetry_equiv_pos_site_id
 _symmetry_equiv_pos_as_xyz
  1  'x, y, z'
loop_
 _atom_site_type_symbol
 _atom_site_label
 _atom_site_symmetry_multiplicity
 _atom_site_fract_x
 _atom_site_fract_y
 _atom_site_fract_z
 _atom_site_occupancy
 _atom_site_pbe_bader_charge
 _atom_site_pbe_bader_spin_density
 _atom_site_pbe_cm5_charge
 _atom_site_pbe_ddec_charge
 _atom_site_pbe_ddec_spin_density
 _atom_site_pbe_ddec_sum_bond_order
 _atom_site_pbe_magmom
Mn  Mn0  1  0.22599877  0.46925556  0.09674159  1  1.514739  -4.54382  0.596424  0.955516  -4.664853  2.315962  -4.468
Mn  Mn1  1  0.72595708  0.09675196  0.46927440  1  1.514674  -4.543818  0.596417  0.955668  -4.664882  2.315861  -4.468
Mn  Mn2  1  0.80399343  0.56033656  0.98884934  1  1.517213  4.516068  0.612674  0.94501  4.643247  2.350902  4.444
Mn  Mn3  1  0.30399379  0.98884420  0.56034986  1  1.517126  4.516473  0.612481  0.944674  4.643634  2.350185  4.444
H  H4  1  0.52925782  0.66910270  0.71948507  1  0.089416  0.00043  0.105198  0.111726  0.00011  1.01832  0.0
H  H5  1  0.02927083  0.71951237  0.66909817  1  0.089498  0.00043  0.105215  0.111663  0.00011  1.018356  0.0
H  H6  1  0.52737824  0.56190100  0.61433164  1  0.102878  -2.2e-05  0.098535  0.094191  -2.4e-05  1.059352  0.0
H  H7  1  0.02742300  0.61434048  0.56190036  1  0.103515  -2.2e-05  0.098526  0.094059  -2.4e-05  1.059473  0.0
H  H8  1  0.12332128  0.50741562  0.76069608  1  0.107677  0.000151  0.106685  0.108572  -5.2e-05  1.034346  0.0
H  H9  1  0.62334692  0.76068749  0.50739649  1  0.10738  0.000151  0.106633  0.108468  -5.2e-05  1.03458  0.0
H  H10  1  0.35248460  0.77300095  0.56474529  1  0.125381  0.001  0.118554  0.088471  0.000431  1.038937  0.001
H  H11  1  0.85257793  0.56473700  0.77300441  1  0.125147  0.001001  0.118665  0.088613  0.000432  1.039076  0.001
H  H12  1  0.23502816  0.02917927  0.32992967  1  0.141811  0.000658  0.118447  0.092791  0.00023  1.021585  0.0
H  H13  1  0.73503409  0.32994261  0.02917805  1  0.14187  0.000658  0.118454  0.092704  0.00023  1.021642  0.0
H  H14  1  0.43045165  0.38524426  0.93741392  1  0.140506  -0.000719  0.114131  0.091575  -3e-05  1.034542  0.0
H  H15  1  0.93042560  0.93741334  0.38524156  1  0.140414  -0.000718  0.114111  0.091559  -2.9e-05  1.034616  0.0
H  H16  1  0.03280910  0.34113044  0.04417091  1  0.152454  -0.001018  0.118465  0.09611  -0.001376  1.041214  0.0
H  H17  1  0.53277845  0.04416371  0.34114161  1  0.152234  -0.001018  0.118577  0.096383  -0.001376  1.041102  0.0
H  H18  1  0.07476920  0.11401287  0.67130571  1  0.111722  0.001272  0.119141  0.087788  0.000738  1.003522  0.001
H  H19  1  0.57477827  0.67130385  0.11399600  1  0.111473  0.001272  0.119133  0.0877  0.000738  1.003722  0.001
H  H20  1  0.47302955  0.13568569  0.80205644  1  0.073701  0.000591  0.105365  0.108063  0.000355  1.019369  0.0
H  H21  1  0.97301407  0.80204150  0.13570994  1  0.073716  0.000592  0.105451  0.108196  0.000356  1.019241  0.0
H  H22  1  0.48469249  0.03492060  0.68897247  1  0.171302  0.00106  0.122457  0.099336  0.001416  1.045963  0.001
H  H23  1  0.98469906  0.68894402  0.03495103  1  0.171999  0.00106  0.122446  0.099378  0.001415  1.045803  0.001
H  H24  1  0.04597150  0.22356322  0.77932801  1  0.084836  0.000556  0.102004  0.105652  0.000296  1.029762  0.0
H  H25  1  0.54595290  0.77933901  0.22352492  1  0.084764  0.000557  0.101991  0.105598  0.000296  1.029733  0.0
H  H26  1  0.19187163  0.47642736  0.31987617  1  0.129604  -0.000909  0.116399  0.087673  -0.000317  1.03281  -0.001
H  H27  1  0.69185816  0.31986752  0.47644000  1  0.129909  -0.000909  0.116378  0.087673  -0.000317  1.032989  -0.001
H  H28  1  0.19769065  0.58675431  0.42042034  1  0.068829  -0.000428  0.103718  0.108576  -0.000242  1.047672  0.0
H  H29  1  0.69773430  0.42043034  0.58675282  1  0.068667  -0.000428  0.103702  0.108544  -0.000241  1.047512  0.0
H  H30  1  0.29614074  0.82191223  0.13602543  1  0.102691  -0.000548  0.110686  0.116736  -0.000336  0.994048  0.0
H  H31  1  0.79623202  0.13602798  0.82191321  1  0.101157  -0.000548  0.110658  0.116712  -0.000336  0.994112  0.0
H  H32  1  0.28226985  0.70315635  0.04828841  1  0.216354  -0.000663  0.121414  0.10054  -0.000293  1.049521  0.0
H  H33  1  0.78226167  0.04828741  0.70317559  1  0.216388  -0.000663  0.121408  0.100385  -0.000294  1.049561  0.0
H  H34  1  0.42605601  0.32920210  0.54264205  1  0.104301  -0.000125  0.107256  0.110707  0.000125  1.038931  0.0
H  H35  1  0.92608962  0.54262569  0.32919504  1  0.104402  -0.000125  0.107173  0.110627  0.000126  1.03911  0.0
H  H36  1  0.97744945  0.32812349  0.45602067  1  0.100516  -5.3e-05  0.104585  0.112242  8.2e-05  1.00663  0.0
H  H37  1  0.47747182  0.45602820  0.32814355  1  0.100071  -5.3e-05  0.104535  0.112226  8.1e-05  1.006484  0.0
H  H38  1  0.00192469  0.44714028  0.54293128  1  0.087814  5.1e-05  0.10018  0.094482  4.1e-05  1.059608  0.0
H  H39  1  0.50197268  0.54292149  0.44716213  1  0.088242  5e-05  0.100183  0.094345  4.1e-05  1.059697  0.0
H  H40  1  0.58032282  0.67286980  0.89669906  1  0.665502  0.001949  0.292471  0.389494  0.00155  0.95283  0.003
H  H41  1  0.08030752  0.89670322  0.67287663  1  0.664719  0.001951  0.292418  0.389313  0.00155  0.953056  0.003
H  H42  1  0.50330892  0.47848799  0.05167770  1  0.637305  -0.001453  0.291284  0.382923  -0.001617  0.963431  -0.002
H  H43  1  0.00329893  0.05168726  0.47848556  1  0.637373  -0.001453  0.29122  0.38277  -0.001616  0.963626  -0.002
H  H44  1  0.41667399  0.30918361  0.20884578  1  0.616141  -0.003625  0.317497  0.403444  -0.002155  0.887597  -0.003
H  H45  1  0.91665318  0.20883078  0.30916099  1  0.615948  -0.003625  0.317578  0.403472  -0.002155  0.88746  -0.003
H  H46  1  0.20305696  0.92519861  0.22980761  1  0.065195  0.000592  0.109207  0.114783  0.000349  0.998551  0.0
H  H47  1  0.70309430  0.22981641  0.92519091  1  0.065269  0.000593  0.109086  0.114493  0.00035  0.998544  0.0
H  H48  1  0.32599438  0.65802427  0.47561637  1  0.068307  0.000408  0.104402  0.108928  0.00022  1.045739  0.0
H  H49  1  0.82607921  0.47560982  0.65803396  1  0.068531  0.000409  0.104455  0.108972  0.00022  1.045847  0.0
H  H50  1  0.03792654  0.23775579  0.93363601  1  0.085969  -0.000529  0.102888  0.105336  -0.000328  1.022197  0.0
H  H51  1  0.53789622  0.93363292  0.23775346  1  0.085642  -0.000528  0.102889  0.105469  -0.000328  1.022181  0.0
H  H52  1  0.45336524  0.28675130  0.81926113  1  0.084549  -0.000424  0.102659  0.107208  -0.000236  1.024169  0.0
H  H53  1  0.95335216  0.81926718  0.28674126  1  0.08466  -0.000423  0.102686  0.107109  -0.000236  1.024227  0.0
H  H54  1  0.70580433  0.73604393  0.85069371  1  0.641762  0.001481  0.28579  0.38413  0.001069  0.964379  0.002
H  H55  1  0.20578318  0.85070809  0.73604702  1  0.641612  0.00148  0.285789  0.384048  0.001069  0.964453  0.002
H  H56  1  0.42182653  0.56726081  0.97361445  1  0.641935  -0.00098  0.289083  0.367845  -0.000988  0.990249  -0.002
H  H57  1  0.92181526  0.97362992  0.56725188  1  0.642044  -0.000979  0.289072  0.367778  -0.000987  0.990354  -0.002
H  H58  1  0.26319892  0.28557653  0.25300221  1  0.666852  -0.000944  0.288855  0.384719  -0.000602  0.958206  -0.001
H  H59  1  0.76316902  0.25300043  0.28558320  1  0.666722  -0.000943  0.288834  0.384709  -0.0006  0.958206  -0.001
C  C60  1  0.10202575  0.60037947  0.89886895  1  1.576338  -0.012935  0.229412  0.595791  -0.012121  4.165375  -0.011
C  C61  1  0.60202180  0.89885636  0.60037252  1  1.57683  -0.012941  0.229672  0.596404  -0.012125  4.164954  -0.011
C  C62  1  0.44052123  0.63359336  0.72830206  1  -0.024634  0.000241  -0.083203  -0.091642  3.6e-05  3.955217  0.0
C  C63  1  0.94053773  0.72831712  0.63357918  1  -0.024391  0.000241  -0.083153  -0.091449  3.5e-05  3.955082  0.0
C  C64  1  0.33067017  0.71859121  0.85779340  1  1.605304  0.000526  0.217647  0.584721  0.00079  4.2184  0.001
C  C65  1  0.83067001  0.85780303  0.71857283  1  1.607459  0.000524  0.217724  0.585004  0.00079  4.217787  0.001
C  C66  1  0.43994683  0.57320505  0.66989815  1  -0.04912  0.000529  -0.081406  -0.135333  0.00043  3.942051  0.0
C  C67  1  0.93998458  0.66991106  0.57319074  1  -0.05123  0.000535  -0.081436  -0.135336  0.000434  3.942375  0.0
C  C68  1  0.21354199  0.60179057  0.81153391  1  -0.025731  0.000942  -0.008066  -0.052063  0.000832  3.951513  0.001
C  C69  1  0.71355130  0.81153587  0.60176828  1  -0.025799  0.000941  -0.008173  -0.052421  0.000831  3.951623  0.001
C  C70  1  0.32753607  0.64980658  0.79831710  1  -0.005337  -0.000399  0.006461  -0.023192  -0.000262  3.892051  0.0
C  C71  1  0.82754537  0.79832605  0.64978596  1  -0.005069  -0.000394  0.006299  -0.023415  -0.000258  3.892149  0.0
C  C72  1  0.21074341  0.54494573  0.75011028  1  -0.038107  -0.000569  -0.07786  -0.159338  -0.00051  3.931868  -0.001
C  C73  1  0.71075974  0.75010488  0.54493237  1  -0.038229  -0.000572  -0.077795  -0.159169  -0.000513  3.931704  -0.001
C  C74  1  0.32014743  0.80354847  0.49007805  1  0.457981  0.006431  0.056393  0.109937  0.004727  3.925915  0.004
C  C75  1  0.82021945  0.49007377  0.80355831  1  0.457783  0.006447  0.056202  0.109258  0.00474  3.926247  0.004
C  C76  1  0.25601169  0.94638402  0.35877317  1  0.49685  0.006474  0.053203  0.099838  0.004919  3.939761  0.004
C  C77  1  0.75603921  0.35878183  0.94638231  1  0.496904  0.00649  0.053139  0.099769  0.004931  3.940097  0.004
C  C78  1  0.34706887  0.34925735  0.93505982  1  0.494767  -0.003744  0.045845  0.093985  -0.002551  3.958388  -0.002
C  C79  1  0.84704633  0.93505601  0.34925456  1  0.495199  -0.003737  0.045925  0.094036  -0.002545  3.958259  -0.002
C  C80  1  0.12483475  0.32496590  0.99458890  1  0.490759  -0.004438  0.048932  0.094657  -0.003699  3.942  -0.003
C  C81  1  0.62480242  0.99459235  0.32496147  1  0.490747  -0.00443  0.048872  0.094457  -0.003692  3.941973  -0.003
C  C82  1  0.32342379  0.53078452  0.67841835  1  0.334321  0.000142  0.077092  0.14746  0.000121  4.07732  0.0
C  C83  1  0.82345737  0.67842364  0.53077252  1  0.335646  0.00014  0.07723  0.147634  0.00012  4.07701  0.0
C  C84  1  0.16024520  0.12088628  0.70244700  1  0.468727  0.006612  0.055779  0.105241  0.005131  3.946469  0.004
C  C85  1  0.66024727  0.70244404  0.12087396  1  0.50962  0.006565  0.055851  0.105316  0.00513  3.946219  0.004
C  C86  1  0.24776087  0.25105512  0.86723615  1  -0.02615  -0.002929  0.009595  0.103343  -0.002131  3.983009  -0.002
C  C87  1  0.74773854  0.86723583  0.25105213  1  -0.026464  -0.002921  0.009636  0.103491  -0.002125  3.983256  -0.002
C  C88  1  0.38157094  0.13446466  0.77442736  1  -0.006099  -0.000516  -0.080422  -0.163442  -0.00067  3.929405  0.0
C  C89  1  0.88155527  0.77441696  0.13447070  1  -0.006008  -0.000513  -0.080636  -0.163751  -0.000667  3.929937  0.0
C  C90  1  0.38870008  0.07627729  0.71258704  1  0.472067  0.006204  0.055601  0.10669  0.00509  3.914775  0.004
C  C91  1  0.88869766  0.71257553  0.07629329  1  0.47154  0.006203  0.055813  0.10684  0.005088  3.915013  0.004
C  C92  1  0.25759045  0.18915602  0.80127193  1  -0.060775  0.005202  0.010347  0.103349  0.003921  3.980946  0.003
C  C93  1  0.75757711  0.80127032  0.18915187  1  -0.061283  0.005204  0.010418  0.103246  0.003923  3.980971  0.003
C  C94  1  0.14482300  0.18119631  0.76353686  1  0.013429  -0.000848  -0.083989  -0.173519  -0.000892  3.939006  -0.001
C  C95  1  0.64480879  0.76354015  0.18117977  1  -0.026795  -0.0008  -0.083973  -0.173334  -0.000892  3.93862  -0.001
C  C96  1  0.24897739  0.71494537  0.28737429  1  0.01567  -0.002141  0.005944  0.093083  -0.001543  3.999453  -0.002
C  C97  1  0.74903777  0.28738333  0.71493735  1  0.014664  -0.002139  0.006136  0.093392  -0.001541  3.998905  -0.002
C  C98  1  0.21433804  0.55380748  0.28228544  1  0.511888  -0.003514  0.052279  0.098906  -0.002606  3.946424  -0.002
C  C99  1  0.71434678  0.28228746  0.55381699  1  0.512447  -0.003515  0.052372  0.099017  -0.002607  3.946922  -0.002
C  C100  1  0.26263431  0.78122231  0.34362572  1  -0.072316  0.005768  0.008308  0.097403  0.004392  3.995371  0.004
C  C101  1  0.76269141  0.34362778  0.78122533  1  -0.071808  0.005787  0.008139  0.096908  0.004407  3.995532  0.004
C  C102  1  0.21866141  0.61586267  0.33801693  1  -0.030311  0.000894  -0.084881  -0.175907  0.000813  3.93131  0.0
C  C103  1  0.71869982  0.33801837  0.61586552  1  -0.030401  0.000895  -0.085002  -0.176043  0.000814  3.931757  0.0
C  C104  1  0.26995786  0.74671152  0.18095089  1  -0.122012  0.000451  -0.083883  -0.183128  0.000486  3.951709  0.0
C  C105  1  0.77001791  0.18095271  0.74672438  1  -0.119712  0.000456  -0.083929  -0.183308  0.000489  3.950804  0.0
C  C106  1  0.26262466  0.68008735  0.13087206  1  0.442329  -0.003273  0.053711  0.100885  -0.002338  3.922777  -0.002
C  C107  1  0.76264040  0.13086764  0.68010450  1  0.441663  -0.003273  0.053794  0.101412  -0.002335  3.922552  -0.002
C  C108  1  0.18648117  0.25951652  0.45441696  1  -0.02512  -0.002664  0.004469  -0.027619  -0.002179  3.919284  -0.002
C  C109  1  0.68648573  0.45441780  0.25952994  1  -0.025628  -0.002657  0.004439  -0.027621  -0.002174  3.91964  -0.002
C  C110  1  0.32806829  0.32929422  0.52340497  1  0.0046  0.00203  -0.075059  -0.148969  0.001694  3.911701  0.001
C  C111  1  0.82810950  0.52339735  0.32929410  1  0.00372  0.002068  -0.074994  -0.148887  0.001724  3.911506  0.001
C  C112  1  0.43311282  0.18668563  0.45477400  1  1.56674  0.009377  0.220171  0.576327  0.008243  4.192681  0.008
C  C113  1  0.93313517  0.45477085  0.18668890  1  1.566457  0.009454  0.220239  0.576539  0.008303  4.192872  0.008
C  C114  1  0.31445401  0.26151570  0.47639621  1  -0.055103  0.000493  -0.01249  -0.063351  0.000526  3.979098  0.0
C  C115  1  0.81446127  0.47638802  0.26151784  1  -0.054651  0.000494  -0.012488  -0.063432  0.000527  3.979304  0.0
C  C116  1  0.21427455  0.39390337  0.55041942  1  0.376931  -0.000212  0.078121  0.145633  -0.000192  4.07524  0.0
C  C117  1  0.71431433  0.55041452  0.39390911  1  0.377677  -0.000213  0.078121  0.145492  -0.000192  4.074938  0.0
C  C118  1  0.07499578  0.32819520  0.47598264  1  0.017098  0.000715  -0.086291  -0.097765  0.000658  3.966836  0.001
C  C119  1  0.57501645  0.47599235  0.32821243  1  0.018036  0.000714  -0.086157  -0.097756  0.000657  3.967176  0.001
C  C120  1  0.08807179  0.39387859  0.52495182  1  -0.108406  -0.002425  -0.078877  -0.132915  -0.001961  3.956971  -0.001
C  C121  1  0.58811556  0.52495101  0.39389008  1  -0.10905  -0.002414  -0.078967  -0.132675  -0.001953  3.957306  -0.001
C  C122  1  0.16037160  0.18083666  0.41507184  1  1.602784  0.013676  0.221873  0.591132  0.013078  4.212461  0.011
C  C123  1  0.66036440  0.41507640  0.18084863  1  1.602579  0.013708  0.22194  0.591196  0.013103  4.212605  0.011
C  C124  1  0.23821390  0.88762437  0.30330431  1  -0.050723  -0.000645  -0.085855  -0.188551  -0.000637  3.957887  -0.001
C  C125  1  0.73825606  0.30331699  0.88762126  1  -0.050915  -0.000647  -0.085574  -0.187892  -0.000638  3.9581  -0.001
C  C126  1  0.30402496  0.73972589  0.43990215  1  0.041342  -0.001196  -0.081844  -0.168549  -0.001102  3.922881  -0.001
C  C127  1  0.80409459  0.43990612  0.73972990  1  0.041451  -0.001201  -0.081873  -0.168306  -0.001106  3.922695  -0.001
C  C128  1  0.12824874  0.26870158  0.93134742  1  -0.091998  0.000512  -0.086307  -0.173594  0.00065  3.944302  0.0
C  C129  1  0.62822080  0.93134797  0.26869123  1  -0.092375  0.000511  -0.086334  -0.173819  0.000649  3.944123  0.0
C  C130  1  0.35883141  0.29380600  0.86986259  1  -0.067938  0.000828  -0.087188  -0.178442  0.000839  3.954218  0.001
C  C131  1  0.85880710  0.86986227  0.29380090  1  -0.06743  0.000827  -0.087343  -0.178383  0.000839  3.95432  0.001
N  N132  1  0.29729584  0.90541347  0.45064657  1  -1.23865  0.043657  -0.307284  -0.234947  0.030061  3.452349  0.015
N  N133  1  0.79733578  0.45065244  0.90542001  1  -1.238909  0.04369  -0.30734  -0.234626  0.030081  3.452544  0.015
N  N134  1  0.23233649  0.36482914  0.99747480  1  -1.244608  -0.044033  -0.304185  -0.249634  -0.031819  3.44603  -0.018
N  N135  1  0.73230787  0.99747152  0.36482343  1  -1.244397  -0.044026  -0.30423  -0.24976  -0.03181  3.446149  -0.018
N  N136  1  0.32894186  0.47205869  0.61566724  1  -0.517317  -0.000338  -0.157605  -0.144798  -0.000291  3.294404  0.0
N  N137  1  0.82897835  0.61567574  0.47204653  1  -0.517667  -0.000322  -0.157438  -0.144504  -0.000278  3.294048  0.0
N  N138  1  0.28019348  0.06952693  0.67630875  1  -1.267289  0.047783  -0.310423  -0.250998  0.033443  3.488111  0.017
N  N139  1  0.78020159  0.67629051  0.06953371  1  -1.26744  0.047775  -0.310673  -0.251145  0.033456  3.488132  0.017
N  N140  1  0.23675325  0.58441809  0.18016109  1  -1.276777  -0.043472  -0.301611  -0.237793  -0.031353  3.430262  -0.02
N  N141  1  0.73674659  0.18016076  0.58444280  1  -1.276483  -0.043446  -0.301582  -0.238043  -0.031359  3.43075  -0.02
N  N142  1  0.21351991  0.45884060  0.60569307  1  -0.517401  0.000526  -0.156711  -0.142185  0.000422  3.320296  0.0
N  N143  1  0.71357254  0.60568363  0.45884485  1  -0.517225  0.000545  -0.156891  -0.142352  0.000437  3.320094  0.0
O  O144  1  0.13688407  0.59337966  0.98268580  1  -1.20242  -0.05005  -0.306176  -0.56812  -0.035532  2.373938  -0.015
O  O145  1  0.63688183  0.98267039  0.59339378  1  -1.202615  -0.050038  -0.306364  -0.568546  -0.035541  2.3737  -0.015
O  O146  1  0.98194279  0.60254928  0.88556276  1  -1.184383  0.043993  -0.300118  -0.535099  0.03068  2.303853  0.013
O  O147  1  0.48195900  0.88553546  0.60254477  1  -1.184422  0.043991  -0.300077  -0.53512  0.030676  2.30382  0.013
O  O148  1  0.25269300  0.80133906  0.84273287  1  -1.165692  0.000413  -0.312076  -0.521823  -0.000225  2.136409  0.0
O  O149  1  0.75270357  0.84270625  0.80134236  1  -1.166413  0.000408  -0.312115  -0.521973  -0.000229  2.135836  0.0
O  O150  1  0.41600360  0.68733957  0.92100020  1  -1.175886  0.000295  -0.314526  -0.565119  0.000132  2.272373  0.0
O  O151  1  0.91597261  0.92100926  0.68734415  1  -1.177289  0.000296  -0.314493  -0.565027  0.000133  2.272496  0.0
O  O152  1  0.40903079  0.10457025  0.44832894  1  -1.207874  0.042523  -0.305376  -0.571921  0.029559  2.381858  0.01
O  O153  1  0.90902531  0.44833998  0.10455262  1  -1.207442  0.042555  -0.305668  -0.572277  0.029599  2.381324  0.01
O  O154  1  0.55114982  0.20793442  0.44488080  1  -1.186014  -0.035192  -0.301244  -0.531026  -0.022661  2.332774  -0.004
O  O155  1  0.05114168  0.44487439  0.20792228  1  -1.186253  -0.035126  -0.301082  -0.530898  -0.022635  2.333747  -0.004
O  O156  1  0.68101671  0.66470379  0.88353498  1  -1.311611  0.069399  -0.583489  -0.781041  0.050143  2.138544  0.033
O  O157  1  0.18100318  0.88351754  0.66470304  1  -1.310765  0.069378  -0.583322  -0.780695  0.050127  2.138713  0.033
O  O158  1  0.12822415  0.09930246  0.48505103  1  -1.214234  0.039512  -0.30485  -0.571634  0.029388  2.322689  0.013
O  O159  1  0.62824929  0.48507593  0.09929603  1  -1.213742  0.039524  -0.304935  -0.571832  0.029408  2.322534  0.013
O  O160  1  0.42308423  0.49311366  0.01535050  1  -1.2925  -0.064108  -0.58002  -0.768641  -0.046787  2.175455  -0.031
O  O161  1  0.92306627  0.01536739  0.49310472  1  -1.292708  -0.064094  -0.580028  -0.76858  -0.046775  2.175476  -0.031
O  O162  1  0.32207104  0.33990621  0.21349617  1  -1.283612  -0.057061  -0.563502  -0.75768  -0.042165  2.112197  -0.026
O  O163  1  0.82205878  0.21350714  0.33990895  1  -1.283316  -0.057042  -0.56357  -0.757732  -0.042152  2.111926  -0.026
O  O164  1  0.16177240  0.19993909  0.32133946  1  -1.161043  0.010096  -0.31069  -0.542938  0.007855  2.129589  0.008
O  O165  1  0.66173069  0.32136652  0.19993669  1  -1.161266  0.010118  -0.310619  -0.542842  0.007871  2.130162  0.008
