# generated using pymatgen
data_ZnH9C10N3O2
_symmetry_space_group_name_H-M   'P 1'
_cell_length_a   4.81519588
_cell_length_b   9.78121142
_cell_length_c   22.51153837
_cell_angle_alpha   90.00000257
_cell_angle_beta   90.00005133
_cell_angle_gamma   99.78040774
_symmetry_Int_Tables_number   1
_chemical_formula_structural   ZnH9C10N3O2
_chemical_formula_sum   'Zn4 H36 C40 N12 O8'
_cell_volume   1044.84878942
_cell_formula_units_Z   4
loop_
 _symmetry_equiv_pos_site_id
 _symmetry_equiv_pos_as_xyz
  1  'x, y, z'
loop_
 _atom_site_type_symbol
 _atom_site_label
 _atom_site_symmetry_multiplicity
 _atom_site_fract_x
 _atom_site_fract_y
 _atom_site_fract_z
 _atom_site_occupancy
 _atom_site_hle17_bader_spin_density
 _atom_site_hle17_ddec_charge
 _atom_site_hle17_ddec_spin_density
 _atom_site_hle17_ddec_sum_bond_order
 _atom_site_hle17_magmom
 _atom_site_hse06_10hf_bader_spin_density
 _atom_site_hse06_10hf_ddec_charge
 _atom_site_hse06_10hf_ddec_spin_density
 _atom_site_hse06_10hf_ddec_sum_bond_order
 _atom_site_hse06_10hf_magmom
 _atom_site_hse06_bader_spin_density
 _atom_site_hse06_ddec_charge
 _atom_site_hse06_ddec_spin_density
 _atom_site_hse06_ddec_sum_bond_order
 _atom_site_hse06_magmom
 _atom_site_pbe_bader_spin_density
 _atom_site_pbe_cm5_charge
 _atom_site_pbe_ddec_charge
 _atom_site_pbe_ddec_spin_density
 _atom_site_pbe_ddec_sum_bond_order
 _atom_site_pbe_magmom
Zn  Zn0  1  0.92652107  0.66600618  0.31508118  1  0  1.025041  0  1.858333  0  0  0.832064  0  2.343747  0  0  0.875976  0  2.290075  0  0  0.735365  0.800873  0  2.381013  0
Zn  Zn1  1  0.07348014  0.83399423  0.81508070  1  0  1.025076  0  1.858274  0  0  0.832117  0  2.34367  0  0  0.876032  0  2.290008  0  0  0.735379  0.800929  0  2.380939  0
Zn  Zn2  1  0.07348048  0.33399385  0.68491944  1  0  1.024975  0  1.858389  0  0  0.832028  0  2.343776  0  0  0.875936  0  2.290117  0  0  0.735329  0.80083  0  2.381039  0
Zn  Zn3  1  0.92652177  0.16600684  0.18491904  1  0  1.025059  0  1.858317  0  0  0.83207  0  2.343726  0  0  0.875991  0  2.290046  0  0  0.735361  0.800875  0  2.380991  0
H  H4  1  0.41509186  0.37042183  0.09677442  1  0  0.099382  0  0.973928  0  0  0.109732  0  1.036919  0  0  0.112081  0  1.036193  0  0  0.10098  0.10832  0  1.036938  0
H  H5  1  0.58491173  0.12957778  0.59677447  1  0  0.099373  0  0.973922  0  0  0.109726  0  1.036909  0  0  0.112075  0  1.036183  0  0  0.100994  0.108314  0  1.036927  0
H  H6  1  0.58490969  0.62957820  0.90322576  1  0  0.099374  0  0.973931  0  0  0.109728  0  1.036918  0  0  0.112078  0  1.036191  0  0  0.100982  0.108317  0  1.036937  0
H  H7  1  0.41508982  0.87042225  0.40322527  1  0  0.099384  0  0.973929  0  0  0.109736  0  1.036918  0  0  0.112085  0  1.036192  0  0  0.100985  0.108324  0  1.036936  0
H  H8  1  0.75738818  0.58632052  0.07535743  1  0  0.084134  0  0.944972  0  0  0.099958  0  0.996544  0  0  0.102639  0  0.995926  0  0  0.098289  0.097919  0  0.997209  0
H  H9  1  0.24261199  0.91367978  0.57535742  1  0  0.084139  0  0.944969  0  0  0.099964  0  0.996542  0  0  0.102644  0  0.995926  0  0  0.098297  0.097925  0  0.997205  0
H  H10  1  0.24261129  0.41367952  0.92464230  1  0  0.084161  0  0.944994  0  0  0.099984  0  0.996565  0  0  0.102665  0  0.995947  0  0  0.098318  0.097946  0  0.99723  0
H  H11  1  0.75738956  0.08632025  0.42464187  1  0  0.084143  0  0.944978  0  0  0.099964  0  0.996553  0  0  0.102645  0  0.995935  0  0  0.098292  0.097925  0  0.997216  0
H  H12  1  0.76263934  0.79867892  0.13539731  1  0  0.089587  0  0.951888  0  0  0.101147  0  1.013805  0  0  0.103599  0  1.013148  0  0  0.099973  0.099303  0  1.014445  0
H  H13  1  0.23736073  0.70132037  0.63539730  1  0  0.089592  0  0.951865  0  0  0.101152  0  1.013784  0  0  0.103605  0  1.013124  0  0  0.099985  0.099307  0  1.014423  0
H  H14  1  0.23736186  0.20132007  0.86460286  1  0  0.089599  0  0.951871  0  0  0.10116  0  1.013791  0  0  0.103605  0  1.013142  0  0  0.099992  0.099317  0  1.014433  0
H  H15  1  0.76263838  0.29867863  0.36460244  1  0  0.089598  0  0.951891  0  0  0.101157  0  1.01381  0  0  0.103613  0  1.013148  0  0  0.099988  0.099312  0  1.014451  0
H  H16  1  0.42023013  0.80749278  0.21682397  1  0  0.111322  0  0.967686  0  0  0.112892  0  1.041689  0  0  0.116273  0  1.039785  0  0  0.103619  0.110636  0  1.042687  0
H  H17  1  0.57976858  0.69250759  0.71682402  1  0  0.111301  0  0.967686  0  0  0.11287  0  1.041694  0  0  0.116251  0  1.03979  0  0  0.103596  0.110614  0  1.042692  0
H  H18  1  0.57977178  0.19250830  0.78317621  1  0  0.111335  0  0.967676  0  0  0.112903  0  1.041682  0  0  0.116277  0  1.0398  0  0  0.10362  0.110647  0  1.04268  0
H  H19  1  0.42022882  0.30749244  0.28317616  1  0  0.111311  0  0.967678  0  0  0.112879  0  1.041686  0  0  0.116258  0  1.03979  0  0  0.103605  0.110623  0  1.042684  0
H  H20  1  0.69777434  0.49479995  0.42167983  1  0  0.0794  0  0.961252  0  0  0.08994  0  1.024292  0  0  0.092123  0  1.023535  0  0  0.099477  0.088421  0  1.024804  0
H  H21  1  0.30222651  0.00519982  0.92167938  1  0  0.079391  0  0.961258  0  0  0.089955  0  1.024276  0  0  0.09214  0  1.023519  0  0  0.099483  0.088438  0  1.024787  0
H  H22  1  0.30222721  0.50520008  0.57832035  1  0  0.079399  0  0.961271  0  0  0.089943  0  1.024284  0  0  0.092127  0  1.023526  0  0  0.099488  0.088424  0  1.024796  0
H  H23  1  0.69777504  0.99480022  0.07832036  1  0  0.079405  0  0.961245  0  0  0.089943  0  1.024287  0  0  0.092127  0  1.023531  0  0  0.099476  0.088425  0  1.024798  0
H  H24  1  0.73146200  0.73053077  0.46148920  1  0  0.068824  0  0.926823  0  0  0.088827  0  0.983157  0  0  0.090158  0  0.982737  0  0  0.090762  0.087791  0  0.983581  0
H  H25  1  0.26853777  0.76946971  0.96148919  1  0  0.068852  0  0.926783  0  0  0.088841  0  0.983136  0  0  0.090172  0  0.982716  0  0  0.09078  0.087805  0  0.98356  0
H  H26  1  0.26853747  0.26946926  0.53851098  1  0  0.068826  0  0.926819  0  0  0.088831  0  0.983151  0  0  0.090162  0  0.982731  0  0  0.090763  0.087794  0  0.983574  0
H  H27  1  0.73146378  0.23053033  0.03851099  1  0  0.068819  0  0.926825  0  0  0.088827  0  0.983152  0  0  0.090159  0  0.982732  0  0  0.090766  0.087791  0  0.983574  0
H  H28  1  0.38675027  0.69012579  0.49170211  1  0  0.065673  0  0.932162  0  0  0.084634  0  0.993076  0  0  0.085435  0  0.993541  0  0  0.089162  0.084009  0  0.992748  0
H  H29  1  0.61324720  0.80987366  0.99170173  1  0  0.065656  0  0.932156  0  0  0.084622  0  0.993076  0  0  0.085422  0  0.993541  0  0  0.089151  0.084  0  0.992748  0
H  H30  1  0.61324885  0.30987320  0.50829806  1  0  0.06569  0  0.932163  0  0  0.084648  0  0.993081  0  0  0.085449  0  0.993546  0  0  0.089172  0.084023  0  0.992753  0
H  H31  1  0.38675263  0.19012741  0.00829801  1  0  0.065656  0  0.932158  0  0  0.084614  0  0.993084  0  0  0.085415  0  0.99355  0  0  0.089147  0.08399  0  0.992757  0
H  H32  1  0.09783415  0.43826842  0.47238888  1  0  0.06996  0  0.958666  0  0  0.086392  0  1.025141  0  0  0.087559  0  1.024834  0  0  0.089424  0.085434  0  1.025554  0
H  H33  1  0.90216692  0.06173137  0.97238854  1  0  0.069953  0  0.958669  0  0  0.086385  0  1.02515  0  0  0.087552  0  1.024842  0  0  0.089423  0.085428  0  1.025563  0
H  H34  1  0.90216533  0.56173161  0.52761130  1  0  0.069958  0  0.958671  0  0  0.08639  0  1.025146  0  0  0.087557  0  1.024839  0  0  0.089426  0.085432  0  1.025559  0
H  H35  1  0.09783463  0.93826866  0.02761119  1  0  0.069969  0  0.958663  0  0  0.086404  0  1.025142  0  0  0.087568  0  1.024834  0  0  0.089423  0.085447  0  1.025556  0
H  H36  1  0.25766363  0.32120634  0.42972277  1  0  0.067799  0  0.950341  0  0  0.086275  0  1.010852  0  0  0.08655  0  1.012651  0  0  0.087437  0.086073  0  1.009579  0
H  H37  1  0.74233725  0.17879344  0.92972285  1  0  0.067783  0  0.950379  0  0  0.086278  0  1.010868  0  0  0.086552  0  1.012668  0  0  0.087436  0.086077  0  1.009594  0
H  H38  1  0.74233585  0.67879370  0.57027696  1  0  0.067798  0  0.950346  0  0  0.086275  0  1.010855  0  0  0.08655  0  1.012654  0  0  0.087435  0.086073  0  1.009581  0
H  H39  1  0.25766430  0.82120660  0.07027733  1  0  0.067782  0  0.950372  0  0  0.086275  0  1.010865  0  0  0.086551  0  1.012663  0  0  0.087424  0.086073  0  1.00959  0
C  C40  1  0.22165591  0.59213119  0.20223099  1  0  0.132427  0  3.822282  0  0  0.128102  0  4.063647  0  0  0.130029  0  4.088086  0  0  0.091861  0.126616  0  4.047543  0
C  C41  1  0.77834445  0.90786814  0.70223108  1  0  0.132443  0  3.822371  0  0  0.128112  0  4.063722  0  0  0.13004  0  4.088159  0  0  0.09187  0.126625  0  4.04762  0
C  C42  1  0.77834564  0.40786885  0.79776919  1  0  0.132499  0  3.822441  0  0  0.128188  0  4.06378  0  0  0.130118  0  4.088214  0  0  0.091886  0.126701  0  4.047674  0
C  C43  1  0.22165503  0.09213190  0.29776910  1  0  0.132394  0  3.822338  0  0  0.128045  0  4.063702  0  0  0.129972  0  4.088141  0  0  0.091839  0.126559  0  4.047597  0
C  C44  1  0.22417044  0.46901157  0.16943936  1  0  0.131117  0  3.834944  0  0  0.125653  0  4.079182  0  0  0.127955  0  4.103235  0  0  0.08958  0.123768  0  4.063053  0
C  C45  1  0.77582723  0.03098809  0.66943944  1  0  0.131095  0  3.834964  0  0  0.125672  0  4.079161  0  0  0.127974  0  4.10321  0  0  0.089585  0.123788  0  4.06303  0
C  C46  1  0.77583111  0.53098847  0.83056082  1  0  0.131116  0  3.834921  0  0  0.125659  0  4.079156  0  0  0.127962  0  4.103205  0  0  0.089597  0.123775  0  4.063028  0
C  C47  1  0.22416809  0.96901195  0.33056074  1  0  0.131107  0  3.835011  0  0  0.125709  0  4.079169  0  0  0.128012  0  4.103222  0  0  0.089596  0.123824  0  4.063041  0
C  C48  1  0.41360223  0.46477206  0.12227645  1  0  -0.144551  0  3.760183  0  0  -0.16222  0  4.009925  0  0  -0.164633  0  4.030743  0  0  -0.095576  -0.160525  0  3.995436  0
C  C49  1  0.58639523  0.03522756  0.62227605  1  0  -0.14444  0  3.760148  0  0  -0.162112  0  4.009866  0  0  -0.164526  0  4.030688  0  0  -0.095542  -0.160417  0  3.995373  0
C  C50  1  0.58639724  0.53522797  0.87772373  1  0  -0.144554  0  3.760162  0  0  -0.162223  0  4.009901  0  0  -0.164638  0  4.030724  0  0  -0.095579  -0.160528  0  3.995413  0
C  C51  1  0.41360217  0.96477247  0.37772324  1  0  -0.144564  0  3.760214  0  0  -0.162254  0  4.009939  0  0  -0.164668  0  4.030761  0  0  -0.095597  -0.160558  0  3.995447  0
C  C52  1  0.60234504  0.58563082  0.11074061  1  0  -0.068993  0  3.784519  0  0  -0.087858  0  4.041084  0  0  -0.090071  0  4.064102  0  0  -0.097247  -0.086159  0  4.025449  0
C  C53  1  0.39765529  0.91436950  0.61074063  1  0  -0.069058  0  3.784578  0  0  -0.08793  0  4.041163  0  0  -0.090143  0  4.06418  0  0  -0.097285  -0.08623  0  4.025521  0
C  C54  1  0.39765444  0.41436922  0.88925957  1  0  -0.068973  0  3.784549  0  0  -0.087835  0  4.041123  0  0  -0.090047  0  4.064136  0  0  -0.097255  -0.086136  0  4.025489  0
C  C55  1  0.60234419  0.08563053  0.38925911  1  0  -0.069005  0  3.784558  0  0  -0.087867  0  4.041132  0  0  -0.09008  0  4.064149  0  0  -0.097257  -0.086167  0  4.025491  0
C  C56  1  0.60386607  0.70775637  0.14470364  1  0  -0.067434  0  3.774656  0  0  -0.086417  0  4.0365  0  0  -0.089062  0  4.059786  0  0  -0.09427  -0.08457  0  4.020652  0
C  C57  1  0.39613439  0.79224396  0.64470365  1  0  -0.067415  0  3.774622  0  0  -0.086393  0  4.036458  0  0  -0.089036  0  4.059743  0  0  -0.094262  -0.084543  0  4.020606  0
C  C58  1  0.39613548  0.29224366  0.85529654  1  0  -0.067457  0  3.77467  0  0  -0.086443  0  4.036519  0  0  -0.08908  0  4.059803  0  0  -0.09429  -0.084598  0  4.020675  0
C  C59  1  0.60386508  0.20775607  0.35529608  1  0  -0.067438  0  3.774647  0  0  -0.086417  0  4.036489  0  0  -0.089064  0  4.059776  0  0  -0.094265  -0.084569  0  4.020641  0
C  C60  1  0.41304232  0.71397285  0.19034155  1  0  -0.135869  0  3.73683  0  0  -0.155797  0  3.995318  0  0  -0.158143  0  4.014616  0  0  -0.090162  -0.154335  0  3.982239  0
C  C61  1  0.58695834  0.78602751  0.69034205  1  0  -0.135874  0  3.736842  0  0  -0.1558  0  3.995329  0  0  -0.158146  0  4.014623  0  0  -0.090159  -0.154343  0  3.982254  0
C  C62  1  0.58695751  0.28602823  0.80965819  1  0  -0.13592  0  3.73685  0  0  -0.15585  0  3.995331  0  0  -0.158196  0  4.014618  0  0  -0.090171  -0.154385  0  3.982252  0
C  C63  1  0.41304113  0.21397253  0.30965813  1  0  -0.135843  0  3.736781  0  0  -0.155769  0  3.995274  0  0  -0.158116  0  4.014571  0  0  -0.090149  -0.154308  0  3.982197  0
C  C64  1  0.37452204  0.58668339  0.38142489  1  0  0.692277  0  3.791826  0  0  0.639482  0  4.087069  0  0  0.674028  0  4.079406  0  0  0.227561  0.616186  0  4.090938  0
C  C65  1  0.62547946  0.91331705  0.88142495  1  0  0.692209  0  3.791874  0  0  0.639449  0  4.087097  0  0  0.673998  0  4.079431  0  0  0.227583  0.616153  0  4.090965  0
C  C66  1  0.62547743  0.41331664  0.61857529  1  0  0.69227  0  3.791824  0  0  0.639471  0  4.087048  0  0  0.674017  0  4.079384  0  0  0.227567  0.616174  0  4.090915  0
C  C67  1  0.37452245  0.08668402  0.11857523  1  0  0.692293  0  3.791814  0  0  0.639501  0  4.087052  0  0  0.674046  0  4.079392  0  0  0.227587  0.616204  0  4.090919  0
C  C68  1  0.50108377  0.52839582  0.43533991  1  0  -0.14182  0  3.660588  0  0  -0.141176  0  3.896519  0  0  -0.148333  0  3.911956  0  0  -0.095625  -0.136278  0  3.885735  0
C  C69  1  0.49891832  0.97160568  0.93533996  1  0  -0.141738  0  3.66054  0  0  -0.14115  0  3.896555  0  0  -0.148313  0  3.911992  0  0  -0.095602  -0.13625  0  3.88577  0
C  C70  1  0.49891778  0.47160421  0.56466026  1  0  -0.141819  0  3.660627  0  0  -0.141141  0  3.896506  0  0  -0.148298  0  3.911944  0  0  -0.095626  -0.136247  0  3.885728  0
C  C71  1  0.50108359  0.02839539  0.06465978  1  0  -0.141819  0  3.660595  0  0  -0.141179  0  3.896537  0  0  -0.148337  0  3.911976  0  0  -0.095632  -0.136282  0  3.885753  0
C  C72  1  0.57753496  0.64651809  0.48108980  1  0  -0.105009  0  3.654242  0  0  -0.149811  0  3.914848  0  0  -0.150077  0  3.927978  0  0  -0.160063  -0.149445  0  3.905691  0
C  C73  1  0.42246489  0.85348240  0.98108937  1  0  -0.105014  0  3.654174  0  0  -0.149812  0  3.914821  0  0  -0.150075  0  3.927948  0  0  -0.160083  -0.149447  0  3.905667  0
C  C74  1  0.42246659  0.35348195  0.51891038  1  0  -0.105046  0  3.654252  0  0  -0.14986  0  3.914838  0  0  -0.150125  0  3.927966  0  0  -0.160085  -0.149493  0  3.905682  0
C  C75  1  0.57753458  0.14651764  0.01891036  1  0  -0.104993  0  3.654228  0  0  -0.149796  0  3.91483  0  0  -0.150064  0  3.927963  0  0  -0.160064  -0.14943  0  3.905674  0
C  C76  1  0.30019043  0.40574110  0.46241135  1  0  -0.112585  0  3.670743  0  0  -0.159307  0  3.929419  0  0  -0.159499  0  3.943014  0  0  -0.167536  -0.158964  0  3.919957  0
C  C77  1  0.69981060  0.09425868  0.96241142  1  0  -0.112606  0  3.670808  0  0  -0.159337  0  3.929515  0  0  -0.159525  0  3.943108  0  0  -0.167544  -0.158993  0  3.920054  0
C  C78  1  0.69981112  0.59425893  0.53758883  1  0  -0.112613  0  3.670762  0  0  -0.159351  0  3.929426  0  0  -0.159542  0  3.94302  0  0  -0.167563  -0.159007  0  3.919964  0
C  C79  1  0.30018888  0.90574135  0.03758832  1  0  -0.112631  0  3.670785  0  0  -0.159373  0  3.929491  0  0  -0.15956  0  3.943082  0  0  -0.167539  -0.159029  0  3.920029  0
N  N80  1  0.01591546  0.55984148  0.24464966  1  0  -0.316159  0  3.270716  0  0  -0.245083  0  3.578398  0  0  -0.261822  0  3.589372  0  0  -0.240233  -0.23353  0  3.571033  0
N  N81  1  0.98408336  0.94015890  0.74464979  1  0  -0.316193  0  3.27083  0  0  -0.245115  0  3.578516  0  0  -0.261857  0  3.589489  0  0  -0.240234  -0.233564  0  3.571156  0
N  N82  1  0.98408401  0.44015855  0.75535052  1  0  -0.316216  0  3.270912  0  0  -0.24515  0  3.57859  0  0  -0.261889  0  3.589562  0  0  -0.240254  -0.233594  0  3.571219  0
N  N83  1  0.01591611  0.05984114  0.25535039  1  0  -0.31612  0  3.270727  0  0  -0.245041  0  3.578416  0  0  -0.261783  0  3.589394  0  0  -0.240207  -0.233487  0  3.571049  0
N  N84  1  0.90105165  0.42692933  0.23951593  1  0  -0.027387  0  2.961386  0  0  -0.021645  0  3.238556  0  0  -0.014252  0  3.250684  0  0  -0.085583  -0.02629  0  3.229966  0
N  N85  1  0.09894876  0.07307140  0.73951544  1  0  -0.027437  0  2.961363  0  0  -0.021704  0  3.238565  0  0  -0.014305  0  3.250683  0  0  -0.085638  -0.02635  0  3.229979  0
N  N86  1  0.09895026  0.57307175  0.76048425  1  0  -0.027372  0  2.961181  0  0  -0.021618  0  3.238354  0  0  -0.014232  0  3.250494  0  0  -0.085564  -0.02626  0  3.229761  0
N  N87  1  0.90105072  0.92692864  0.26048429  1  0  -0.027381  0  2.961307  0  0  -0.02164  0  3.238485  0  0  -0.014246  0  3.25061  0  0  -0.085568  -0.026285  0  3.229896  0
N  N88  1  0.02194821  0.36994863  0.19461665  1  0  -0.333783  0  3.262614  0  0  -0.262761  0  3.573474  0  0  -0.280107  0  3.583796  0  0  -0.246906  -0.250384  0  3.565986  0
N  N89  1  0.97804921  0.13005000  0.69461633  1  0  -0.333736  0  3.262607  0  0  -0.262744  0  3.573474  0  0  -0.280086  0  3.583785  0  0  -0.246888  -0.250366  0  3.565984  0
N  N90  1  0.97805126  0.63005141  0.80538353  1  0  -0.333803  0  3.262438  0  0  -0.262805  0  3.57333  0  0  -0.280149  0  3.583649  0  0  -0.246939  -0.250432  0  3.565845  0
N  N91  1  0.02194783  0.86994900  0.30538340  1  0  -0.3338  0  3.262543  0  0  -0.262803  0  3.573394  0  0  -0.280148  0  3.583712  0  0  -0.246942  -0.250427  0  3.565907  0
O  O92  1  0.11448142  0.59877361  0.38532108  1  0  -0.6296  0  2.07103  0  0  -0.550276  0  2.344171  0  0  -0.578546  0  2.329276  0  0  -0.313268  -0.531032  0  2.353955  0
O  O93  1  0.88552009  0.90122684  0.88532120  1  0  -0.629613  0  2.071038  0  0  -0.550273  0  2.344143  0  0  -0.578546  0  2.32925  0  0  -0.313284  -0.531029  0  2.353928  0
O  O94  1  0.88551805  0.40122643  0.61467865  1  0  -0.629582  0  2.071028  0  0  -0.550261  0  2.344173  0  0  -0.57853  0  2.32928  0  0  -0.313265  -0.531015  0  2.353954  0
O  O95  1  0.11448146  0.09877320  0.11467854  1  0  -0.629625  0  2.071038  0  0  -0.550276  0  2.344148  0  0  -0.578549  0  2.329255  0  0  -0.313267  -0.531034  0  2.353932  0
O  O96  1  0.51909557  0.62688063  0.33534808  1  0  -0.633732  0  2.075407  0  0  -0.562722  0  2.363225  0  0  -0.589837  0  2.346788  0  0  -0.317001  -0.543812  0  2.373274  0
O  O97  1  0.48090573  0.87311979  0.83534812  1  0  -0.633677  0  2.075375  0  0  -0.562719  0  2.363228  0  0  -0.589835  0  2.346793  0  0  -0.317014  -0.543808  0  2.373278  0
O  O98  1  0.48090390  0.37311941  0.66465209  1  0  -0.633699  0  2.075368  0  0  -0.562729  0  2.363224  0  0  -0.589842  0  2.346787  0  0  -0.317015  -0.54382  0  2.373273  0
O  O99  1  0.51909375  0.12688024  0.16465206  1  0  -0.633731  0  2.075375  0  0  -0.56273  0  2.363198  0  0  -0.589847  0  2.346763  0  0  -0.317023  -0.54382  0  2.373246  0
