# generated using pymatgen
data_Al4H15C36O20F
_symmetry_space_group_name_H-M   'P 1'
_cell_length_a   6.66511888
_cell_length_b   16.43299307
_cell_length_c   18.78490535
_cell_angle_alpha   74.06283546
_cell_angle_beta   89.72810462
_cell_angle_gamma   90.27633091
_symmetry_Int_Tables_number   1
_chemical_formula_structural   Al4H15C36O20F
_chemical_formula_sum   'Al4 H15 C36 O20 F1'
_cell_volume   1978.32576020
_cell_formula_units_Z   1
loop_
 _symmetry_equiv_pos_site_id
 _symmetry_equiv_pos_as_xyz
  1  'x, y, z'
loop_
 _atom_site_type_symbol
 _atom_site_label
 _atom_site_symmetry_multiplicity
 _atom_site_fract_x
 _atom_site_fract_y
 _atom_site_fract_z
 _atom_site_occupancy
 _atom_site_pbe_bader_charge
 _atom_site_pbe_bader_spin_density
 _atom_site_pbe_cm5_charge
 _atom_site_pbe_ddec_charge
 _atom_site_pbe_ddec_spin_density
 _atom_site_pbe_ddec_sum_bond_order
 _atom_site_pbe_magmom
Al  Al0  1  0.11032901  0.50475425  0.50357751  1  2.501016  0  0.403013  1.642596  0  2.577658  0
Al  Al1  1  0.61112021  0.50736494  0.50323662  1  2.501271  0  0.401597  1.644981  0  2.578877  0
Al  Al2  1  0.61705368  0.00493156  0.00341962  1  2.503039  0  0.401941  1.640341  0  2.579086  0
Al  Al3  1  0.11672943  0.00699024  0.00320508  1  2.49931  0  0.40142  1.640665  0  2.583699  0
H  H4  1  0.58889565  0.73942691  0.34373108  1  0.101546  0  0.110314  0.11482  0  0.993234  0
H  H5  1  0.58487562  0.85536485  0.22653738  1  0.074351  0  0.108617  0.112034  0  0.994656  0
H  H6  1  0.21518085  0.71880317  0.12582207  1  0.042198  0  0.098626  0.107478  0  0.97711  0
H  H7  1  0.34843788  0.66478502  0.28904739  1  0.070665  0  0.099025  0.114509  0  1.002784  0
H  H8  1  0.21259702  0.60030366  0.24347196  1  0.081088  0  0.101301  0.1112  0  0.974953  0
H  H9  1  0.08214086  0.35608734  0.73009245  1  0.069658  0  0.109881  0.112466  0  0.997586  0
H  H10  1  0.09257416  0.23869195  0.84641987  1  0.094214  0  0.112398  0.11654  0  0.989915  0
H  H11  1  0.70914810  0.10950378  0.73214941  1  0.085181  0  0.110168  0.137979  0  0.959855  0
H  H12  1  0.84996391  0.16039562  0.78891048  1  0.067417  0  0.101477  0.127623  0  0.996286  0
H  H13  1  0.84622805  0.29554068  0.68358278  1  0.097439  0  0.101723  0.056182  0  0.999925  0
H  H14  1  0.34693850  0.78446280  0.17185819  1  0.053424  0  0.094625  0.103459  0  1.018778  0
H  H15  1  0.35690115  0.60758983  0.51565907  1  0.626692  0  0.355906  0.436434  0  0.844833  0
H  H16  1  0.85352339  0.39326022  0.53077686  1  0.611678  0  0.354416  0.439634  0  0.846362  0
H  H17  1  0.36069373  0.89629730  0.04184344  1  0.642937  0  0.353719  0.431926  0  0.857241  0
H  H18  1  0.86367617  0.10440546  0.02116773  1  0.614057  0  0.355427  0.435912  0  0.847078  0
C  C19  1  0.36887616  0.42120231  0.41813718  1  1.711994  0  0.279839  0.698462  0  4.181388  0
C  C20  1  0.35389987  0.39283759  0.61658832  1  1.587682  0  0.271947  0.650909  0  4.099087  0
C  C21  1  0.85555886  0.59411133  0.58830958  1  1.686233  0  0.273451  0.699418  0  4.185868  0
C  C22  1  0.87192405  0.61912754  0.39167615  1  1.572647  0  0.272052  0.649208  0  4.103004  0
C  C23  1  0.02762920  0.69982857  0.26985246  1  -0.004701  0  0.001046  0.067465  0  3.875212  0
C  C24  1  0.87196277  0.68816553  0.32157630  1  -0.007268  0  -0.007328  -0.082277  0  3.974105  0
C  C25  1  0.71207877  0.74625312  0.30406813  1  -0.080243  0  -0.080408  -0.100558  0  3.986878  0
C  C26  1  0.70965283  0.81109907  0.23825614  1  -0.013927  0  -0.08148  -0.099588  0  3.988321  0
C  C27  1  0.86714646  0.82206904  0.18575699  1  0.014705  0  -0.01174  -0.088426  0  3.981456  0
C  C28  1  0.02579248  0.76520402  0.20400798  1  -0.019947  0  -0.002673  0.060998  0  3.879976  0
C  C29  1  0.22351131  0.73862845  0.17707362  1  -0.025627  0  -0.151322  -0.200211  0  3.874576  0
C  C30  1  0.22414311  0.66409442  0.25115984  1  -0.051425  0  -0.148914  -0.196009  0  3.857668  0
C  C31  1  0.87279030  0.87393661  0.86353752  1  0.203786  0  0.004514  -0.130779  0  3.819628  0
C  C32  1  0.87128175  0.83015013  0.82013865  1  -0.267489  0  -0.006031  0.028086  0  4.252305  0
C  C33  1  0.86972010  0.78189295  0.77302799  1  -0.070851  0  0.003279  0.001268  0  4.187003  0
C  C34  1  0.86858323  0.73711318  0.73000666  1  0.019578  0  0.001686  -0.001778  0  4.186446  0
C  C35  1  0.86585603  0.68868012  0.68305636  1  -0.303189  0  -0.007474  0.030183  0  4.257305  0
C  C36  1  0.86208097  0.64447909  0.64001507  1  0.209171  0  -0.001885  -0.14075  0  3.833252  0
C  C37  1  0.36658858  0.37157277  0.36572641  1  0.093298  0  0.007475  -0.126284  0  3.811928  0
C  C38  1  0.36702131  0.32796032  0.32219448  1  -0.169361  0  -0.004201  0.028319  0  4.247151  0
C  C39  1  0.36805964  0.27985314  0.27495881  1  -0.101725  0  0.0051  0.004596  0  4.184367  0
C  C40  1  0.36891492  0.23533379  0.23170027  1  0.082372  0  0.000793  -0.004388  0  4.186206  0
C  C41  1  0.36833162  0.18701345  0.18464092  1  -0.139633  0  -0.007095  0.031582  0  4.258117  0
C  C42  1  0.36620076  0.14296237  0.14143903  1  0.035842  0  -0.003868  -0.14362  0  3.835382  0
C  C43  1  0.52348515  0.26904892  0.70499785  1  -0.094903  0  -0.010228  -0.033061  0  3.892636  0
C  C44  1  0.36333435  0.32503820  0.68759563  1  0.051716  0  -0.001678  -0.047383  0  3.958097  0
C  C45  1  0.20819211  0.31249202  0.74075428  1  -0.033703  0  -0.078037  -0.101385  0  3.976822  0
C  C46  1  0.21471741  0.24698914  0.80620656  1  0.001414  0  -0.074725  -0.090376  0  3.970238  0
C  C47  1  0.37610483  0.18971966  0.82258703  1  -0.025167  0  -0.005266  -0.080475  0  3.957761  0
C  C48  1  0.52910613  0.20227229  0.76961844  1  0.015367  0  0.006777  0.090895  0  3.882236  0
C  C49  1  0.72622098  0.16787999  0.74936348  1  -0.023739  0  -0.149856  -0.28156  0  3.838323  0
C  C50  1  0.73016746  0.24876275  0.68104626  1  0.491715  0  0.032693  0.194591  0  3.847457  0
C  C51  1  0.37783387  0.12006528  0.89239939  1  1.578866  0  0.272684  0.648891  0  4.100912  0
C  C52  1  0.36120297  0.09265736  0.08968009  1  1.685359  0  0.273472  0.701266  0  4.181029  0
C  C53  1  0.85994175  0.88988009  0.11500214  1  1.554095  0  0.270263  0.654189  0  4.092408  0
C  C54  1  0.87499542  0.92351722  0.91596278  1  1.699521  0  0.277234  0.694889  0  4.188594  0
O  O55  1  0.51935285  0.41257570  0.58171218  1  -1.261546  0  -0.232257  -0.599113  0  2.357008  0
O  O56  1  0.20207713  0.42930427  0.44863472  1  -1.229816  0  -0.220361  -0.569678  0  2.285968  0
O  O57  1  0.03929737  0.58354533  0.41223261  1  -1.251836  0  -0.228053  -0.576791  0  2.326958  0
O  O58  1  0.18251192  0.42433052  0.59580464  1  -1.251402  0  -0.235012  -0.594327  0  2.329964  0
O  O59  1  0.02238633  0.58229997  0.55937560  1  -1.231787  0  -0.225839  -0.582714  0  2.288027  0
O  O60  1  0.53778416  0.45144476  0.42946315  1  -1.220562  0  -0.217991  -0.559587  0  2.277696  0
O  O61  1  0.36027588  0.55763720  0.49770079  1  -1.426477  0  -0.447599  -0.994481  0  2.187099  0
O  O62  1  0.68350733  0.56698275  0.57605961  1  -1.218471  0  -0.225859  -0.575176  0  2.276857  0
O  O63  1  0.70586486  0.60143119  0.42668451  1  -1.266103  0  -0.234719  -0.598084  0  2.350382  0
O  O64  1  0.85882151  0.45447636  0.51247733  1  -1.40844  0  -0.446593  -0.999543  0  2.19405  0
O  O65  1  0.18941239  0.06537709  0.07708472  1  -1.229026  0  -0.228391  -0.58051  0  2.273939  0
O  O66  1  0.54561300  0.08483124  0.91264308  1  -1.249172  0  -0.226278  -0.570589  0  2.319689  0
O  O67  1  0.70793364  0.93163903  0.94624074  1  -1.225127  0  -0.221342  -0.568615  0  2.291249  0
O  O68  1  0.52865566  0.08115045  0.06087668  1  -1.231695  0  -0.228949  -0.587038  0  2.283365  0
O  O69  1  0.68909749  0.92218701  0.09381217  1  -1.264993  0  -0.238445  -0.604925  0  2.337661  0
O  O70  1  0.21211578  0.10172846  0.92739016  1  -1.26562  0  -0.233018  -0.593509  0  2.349832  0
O  O71  1  0.36524748  0.95459171  0.01182495  1  -1.445289  0  -0.446712  -0.992462  0  2.196397  0
O  O72  1  0.02583580  0.90989925  0.07996411  1  -1.263849  0  -0.236819  -0.605137  0  2.334823  0
O  O73  1  0.04379909  0.95361534  0.92768376  1  -1.213877  0  -0.219841  -0.55995  0  2.278399  0
O  O74  1  0.86666805  0.05771467  0.99885176  1  -1.415366  0  -0.447995  -0.992853  0  2.182823  0
F  F75  1  0.74798341  0.23384432  0.61104930  1  -0.629191  0  -0.153618  -0.208005  0  1.223467  0
