# generated using pymatgen
data_CuH5(C2O)5
_symmetry_space_group_name_H-M   'P 1'
_cell_length_a   17.63318175
_cell_length_b   17.63276207
_cell_length_c   17.63346825
_cell_angle_alpha   63.98301116
_cell_angle_beta   63.96745925
_cell_angle_gamma   63.98730289
_symmetry_Int_Tables_number   1
_chemical_formula_structural   CuH5(C2O)5
_chemical_formula_sum   'Cu6 H30 C60 O30'
_cell_volume   4216.61639715
_cell_formula_units_Z   6
loop_
 _symmetry_equiv_pos_site_id
 _symmetry_equiv_pos_as_xyz
  1  'x, y, z'
loop_
 _atom_site_type_symbol
 _atom_site_label
 _atom_site_symmetry_multiplicity
 _atom_site_fract_x
 _atom_site_fract_y
 _atom_site_fract_z
 _atom_site_occupancy
 _atom_site_pbe_bader_charge
 _atom_site_pbe_bader_spin_density
 _atom_site_pbe_cm5_charge
 _atom_site_pbe_ddec_charge
 _atom_site_pbe_ddec_spin_density
 _atom_site_pbe_ddec_sum_bond_order
 _atom_site_pbe_magmom
Cu  Cu0  1  0.92991058  0.49949170  0.49752640  1  1.079156  -0.54771  0.673224  0.831571  -0.704715  2.310914  -0.545
Cu  Cu1  1  0.49768825  0.92982445  0.49932648  1  1.079611  0.547488  0.673237  0.831349  0.7045  2.311989  0.544
Cu  Cu2  1  0.49949829  0.49734169  0.92987436  1  1.078783  -0.54766  0.673234  0.830695  -0.70463  2.312135  -0.545
Cu  Cu3  1  0.50270859  0.07009569  0.50041772  1  1.079074  -0.547463  0.673143  0.830936  -0.704236  2.311511  -0.544
Cu  Cu4  1  0.07019804  0.50065707  0.50243471  1  1.079723  0.547715  0.673022  0.830618  0.704777  2.312814  0.545
Cu  Cu5  1  0.50049512  0.50244362  0.07012931  1  1.079214  0.547687  0.673454  0.831383  0.70457  2.31147  0.545
H  H6  1  0.00441476  0.48195232  0.77221054  1  0.114634  0.000347  0.114727  0.126602  0.000295  0.984175  0.0
H  H7  1  0.77221552  0.00447967  0.48196247  1  0.11413  -0.000347  0.114671  0.126706  -0.000295  0.984016  0.0
H  H8  1  0.48193716  0.77212451  0.00435565  1  0.117058  0.000347  0.114699  0.126547  0.000295  0.984124  0.0
H  H9  1  0.51855790  0.99444406  0.22545957  1  0.088611  0.000368  0.111783  0.121719  0.000301  0.989407  0.0
H  H10  1  0.99468638  0.22557914  0.51855131  1  0.126798  -0.000357  0.112161  0.12185  -0.000301  0.989055  0.0
H  H11  1  0.22550170  0.51855214  0.99450920  1  0.089624  -0.000365  0.111783  0.121616  -0.000301  0.989471  0.0
H  H12  1  0.99547915  0.51817181  0.22783830  1  0.115481  -0.000347  0.114599  0.126485  -0.000296  0.984292  0.0
H  H13  1  0.22801003  0.99567840  0.51794758  1  0.116458  0.000345  0.114663  0.126463  0.000294  0.984484  0.0
H  H14  1  0.51799884  0.22774823  0.99555572  1  0.113627  -0.000348  0.114806  0.126802  -0.000295  0.983894  0.0
H  H15  1  0.48149070  0.00536347  0.77437659  1  0.126444  -0.000357  0.11211  0.121788  -0.000301  0.989235  0.0
H  H16  1  0.00542345  0.77447174  0.48182016  1  0.090423  0.000369  0.111815  0.121803  0.000302  0.989863  0.0
H  H17  1  0.77441279  0.48137889  0.00552406  1  0.124672  0.000357  0.111728  0.121433  0.000302  0.989722  0.0
H  H18  1  0.76732877  0.48519668  0.57507900  1  0.61153  7.6e-05  0.32909  0.409651  5.9e-05  0.872338  0.0
H  H19  1  0.80590092  0.44177720  0.50103750  1  0.616672  8.9e-05  0.332374  0.408308  5.9e-05  0.870209  0.0
H  H20  1  0.57407683  0.76672122  0.48583676  1  0.628907  -7.3e-05  0.329439  0.409803  -5.7e-05  0.873378  0.0
H  H21  1  0.50013280  0.80595158  0.44219054  1  0.616236  -9e-05  0.331947  0.408286  -5.9e-05  0.870045  0.0
H  H22  1  0.48431276  0.57604921  0.76821148  1  0.625909  7.4e-05  0.329115  0.409878  5.9e-05  0.872592  0.0
H  H23  1  0.44086008  0.50220173  0.80600234  1  0.609269  8.9e-05  0.331608  0.407195  5.8e-05  0.871196  0.0
H  H24  1  0.42429287  0.23193215  0.51552631  1  0.604443  7.7e-05  0.329125  0.410354  5.9e-05  0.872179  0.0
H  H25  1  0.49821299  0.19399399  0.55889693  1  0.611457  8.9e-05  0.331833  0.407513  5.8e-05  0.870743  0.0
H  H26  1  0.23300194  0.51458552  0.42524575  1  0.618208  -7.5e-05  0.329152  0.409879  -5.8e-05  0.87282  0.0
H  H27  1  0.19415127  0.55821549  0.49916538  1  0.615172  -9e-05  0.332153  0.408058  -5.9e-05  0.87056  0.0
H  H28  1  0.51483939  0.42465776  0.23247966  1  0.609863  -7.6e-05  0.329391  0.410507  -5.9e-05  0.871542  0.0
H  H29  1  0.55844345  0.49852601  0.19408058  1  0.617809  -8.9e-05  0.332265  0.408216  -5.8e-05  0.870596  0.0
H  H30  1  0.76608627  0.47177163  0.77011079  1  0.104113  -0.000641  0.112181  0.126762  -0.000563  0.998428  0.0
H  H31  1  0.77024728  0.76611744  0.47169617  1  0.105444  7e-06  0.111944  0.126451  -1e-06  0.998615  0.0
H  H32  1  0.47232186  0.76982747  0.76584324  1  0.110888  -4e-06  0.111902  0.12634  3e-06  0.998364  0.0
H  H33  1  0.52821931  0.22980588  0.23388487  1  0.105817  5e-06  0.111836  0.126271  -3e-06  0.998784  0.0
H  H34  1  0.23022545  0.23422151  0.52762513  1  0.118753  -5e-06  0.111976  0.12629  3e-06  0.998151  0.0
H  H35  1  0.23389102  0.52823589  0.22986047  1  0.104639  0.00064  0.112132  0.126644  0.000562  0.998411  0.0
C  C36  1  0.93257011  0.47912404  0.66652272  1  1.546251  -2.8e-05  0.219272  0.586848  2.4e-05  4.154167  0.0
C  C37  1  0.89020129  0.47568480  0.76208000  1  -0.032137  0.001047  -0.011452  -0.023174  0.00074  3.980874  0.001
C  C38  1  0.93670488  0.47935125  0.80666360  1  -0.007461  -0.000692  -0.062447  -0.111595  -0.00041  3.858123  -0.001
C  C39  1  0.66666526  0.93256432  0.47898445  1  1.547828  0.000293  0.218593  0.586155  0.000169  4.154281  0.0
C  C40  1  0.76216194  0.89023005  0.47567181  1  -0.032572  0.000126  -0.011309  -0.02268  0.000105  3.98057  0.0
C  C41  1  0.80667912  0.93675991  0.47941068  1  -0.008848  0.000938  -0.062571  -0.112571  0.000574  3.857653  0.001
C  C42  1  0.47927751  0.66639300  0.93244839  1  1.54478  -0.000299  0.217754  0.58512  -0.000165  4.155659  0.0
C  C43  1  0.47596200  0.76189402  0.89004567  1  -0.03342  -0.000114  -0.011585  -0.023765  -9.3e-05  3.981319  0.0
C  C44  1  0.47946477  0.80653133  0.93661173  1  -0.006653  -0.000936  -0.062105  -0.111556  -0.000576  3.857405  -0.001
C  C45  1  0.52169870  0.06367229  0.33375102  1  1.54261  -0.000262  0.215069  0.581612  -0.000278  4.158621  0.0
C  C46  1  0.52475753  0.10717827  0.23840415  1  -0.041292  -0.000936  -0.013408  -0.022575  -0.000683  3.980259  -0.001
C  C47  1  0.52100564  0.06226381  0.19239608  1  -0.044697  -0.000828  -0.061758  -0.111794  -0.000492  3.865714  -0.001
C  C48  1  0.06397319  0.33398001  0.52134227  1  1.541915  0.000231  0.214893  0.581512  0.000262  4.159387  0.0
C  C49  1  0.10752133  0.23864176  0.52441315  1  0.054495  0.000966  -0.013299  -0.023203  0.000675  3.98013  0.001
C  C50  1  0.06253739  0.19255631  0.52089045  1  -0.03581  0.000797  -0.062718  -0.111574  0.00049  3.865527  0.001
C  C51  1  0.33382501  0.52154202  0.06375276  1  1.542084  -2.1e-05  0.214692  0.581003  7.2e-05  4.158026  0.0
C  C52  1  0.23843620  0.52474805  0.10723468  1  -0.036533  -0.000383  -0.013164  -0.022276  -0.000246  3.980598  0.0
C  C53  1  0.19240298  0.52104531  0.06232379  1  -0.045779  0.000824  -0.062084  -0.11188  0.000486  3.866557  0.001
C  C54  1  0.06740451  0.52101317  0.33345163  1  1.545044  4.3e-05  0.21823  0.585724  -1.3e-05  4.154291  0.0
C  C55  1  0.10974154  0.52439249  0.23790775  1  -0.03063  -0.001044  -0.011637  -0.022803  -0.000739  3.980373  -0.001
C  C56  1  0.06321024  0.52072161  0.19335788  1  -0.009772  0.000691  -0.062315  -0.111894  0.00041  3.857881  0.001
C  C57  1  0.33368837  0.06761386  0.52064916  1  1.543019  -0.00028  0.21716  0.584182  -0.00015  4.156514  0.0
C  C58  1  0.23820134  0.11000831  0.52393497  1  -0.03436  -0.000128  -0.011707  -0.023713  -0.000103  3.981633  0.0
C  C59  1  0.19357796  0.06342314  0.52042804  1  -0.002964  -0.000933  -0.061927  -0.111217  -0.000575  3.85802  -0.001
C  C60  1  0.52083016  0.33339720  0.06744387  1  1.547196  0.000301  0.219656  0.587369  0.000174  4.153068  0.0
C  C61  1  0.52426992  0.23786356  0.10977022  1  -0.032269  0.000113  -0.011399  -0.022941  9.6e-05  3.98038  0.0
C  C62  1  0.52060629  0.19329255  0.06325238  1  -0.00649  0.000933  -0.06264  -0.1124  0.000571  3.857134  0.001
C  C63  1  0.47867393  0.93606707  0.66601887  1  1.543364  0.000221  0.215009  0.581056  0.000257  4.159328  0.0
C  C64  1  0.47557152  0.89253822  0.76136497  1  0.057276  0.000968  -0.013116  -0.02256  0.000677  3.980284  0.001
C  C65  1  0.47911333  0.93752334  0.80742951  1  -0.052603  0.000796  -0.062841  -0.111974  0.000487  3.865466  0.001
C  C66  1  0.93627896  0.66619062  0.47854848  1  1.542963  -0.00027  0.215085  0.580873  -0.000276  4.158306  0.0
C  C67  1  0.89278387  0.76156201  0.47541619  1  -0.042103  -0.000932  -0.013214  -0.022385  -0.00068  3.980399  -0.001
C  C68  1  0.93765084  0.80756729  0.47925150  1  -0.044429  -0.000825  -0.061907  -0.112037  -0.000491  3.866613  -0.001
C  C69  1  0.66614789  0.47832446  0.93625204  1  1.542259  2.1e-05  0.214969  0.581788  -7.6e-05  4.158338  0.0
C  C70  1  0.76151700  0.47521835  0.89276701  1  -0.037115  0.000364  -0.012941  -0.022086  0.000237  3.980631  0.0
C  C71  1  0.80752247  0.47892415  0.93770034  1  -0.081487  -0.000811  -0.062512  -0.112117  -0.000484  3.866588  -0.001
C  C72  1  0.80279829  0.47337916  0.80506337  1  0.075382  0.001654  -0.067586  -0.09107  0.001029  3.897716  0.002
C  C73  1  0.89573007  0.48123970  0.89501557  1  0.144221  -0.001213  0.002371  0.122746  -0.000876  4.136044  -0.001
C  C74  1  0.94111556  0.48810488  0.93961168  1  -0.046734  0.000458  -0.022771  -0.07869  0.000255  4.039283  0.0
C  C75  1  0.97908820  0.49574084  0.97864265  1  -0.099809  -0.000745  -0.039359  -0.036828  -0.000466  4.308886  0.0
C  C76  1  0.80515022  0.80281810  0.47341723  1  0.081474  -7e-06  -0.067113  -0.09032  -5e-06  3.896885  0.0
C  C77  1  0.89495247  0.89578846  0.48148434  1  0.139375  -4.9e-05  0.002027  0.12371  -3.8e-05  4.134923  0.0
C  C78  1  0.93954515  0.94120097  0.48836169  1  -0.035976  5.2e-05  -0.023778  -0.080735  3.1e-05  4.039597  0.0
C  C79  1  0.97857963  0.97918092  0.49598292  1  -0.228029  -5.6e-05  -0.039052  -0.035881  -3.6e-05  4.308026  0.0
C  C80  1  0.47380605  0.80482061  0.80259910  1  -0.032693  -2.5e-05  -0.067112  -0.089988  3e-06  3.897058  0.0
C  C81  1  0.48132077  0.89488057  0.89565963  1  0.11794  5.9e-05  0.002717  0.123163  3.9e-05  4.135118  0.0
C  C82  1  0.48803401  0.93953682  0.94109057  1  -0.050875  -5e-05  -0.022341  -0.078544  -3.1e-05  4.038463  0.0
C  C83  1  0.49560449  0.97859118  0.97910019  1  -0.098132  5.6e-05  -0.039393  -0.036837  3.5e-05  4.308583  0.0
C  C84  1  0.52659004  0.19487715  0.19715794  1  0.08023  -8e-06  -0.067011  -0.09024  -6e-06  3.896894  0.0
C  C85  1  0.51867638  0.10495447  0.10420489  1  0.139245  -4.7e-05  0.001727  0.122923  -3.7e-05  4.135039  0.0
C  C86  1  0.51178423  0.06039561  0.05878795  1  -0.036973  5e-05  -0.023203  -0.079399  3.1e-05  4.039107  0.0
C  C87  1  0.50415494  0.02137910  0.02079345  1  -0.227073  -5.5e-05  -0.039364  -0.036779  -3.5e-05  4.308528  0.0
C  C88  1  0.19525074  0.19743730  0.52614001  1  -0.041636  -2.4e-05  -0.06707  -0.089601  4e-06  3.896297  0.0
C  C89  1  0.10521886  0.10434497  0.51862562  1  0.10306  6.3e-05  0.002429  0.122387  3.9e-05  4.135439  0.0
C  C90  1  0.06053963  0.05889398  0.51192923  1  -0.050221  -5.1e-05  -0.021944  -0.077911  -3.1e-05  4.038789  0.0
C  C91  1  0.02144607  0.02089480  0.50441862  1  -0.099213  5.6e-05  -0.039778  -0.037396  3.6e-05  4.308979  0.0
C  C92  1  0.19715930  0.52664407  0.19492160  1  0.075549  -0.001652  -0.067269  -0.090616  -0.001029  3.896763  -0.002
C  C93  1  0.10417007  0.51879091  0.10501687  1  0.140526  0.001213  0.002101  0.122857  0.000876  4.136179  0.001
C  C94  1  0.05877014  0.51193039  0.06043877  1  -0.039387  -0.000459  -0.022859  -0.078982  -0.000256  4.039851  0.0
C  C95  1  0.02077100  0.50428759  0.02143128  1  -0.228373  0.000745  -0.039503  -0.037167  0.000466  4.309358  0.0
O  O96  1  0.01184748  0.48287595  0.63097243  1  -1.101478  0.088749  -0.313277  -0.517018  0.057636  2.326704  0.08
O  O97  1  0.88525861  0.48011657  0.62799488  1  -1.10751  -0.084646  -0.318813  -0.540208  -0.055097  2.339564  -0.076
O  O98  1  0.63110697  0.01179983  0.48282700  1  -1.099099  -0.088778  -0.313209  -0.516618  -0.057667  2.327896  -0.08
O  O99  1  0.62819886  0.88526193  0.47984532  1  -1.108594  0.084644  -0.318205  -0.539742  0.055133  2.337691  0.076
O  O100  1  0.48297206  0.63088784  0.01173455  1  -1.099237  0.088734  -0.312875  -0.516077  0.057632  2.32668  0.08
O  O101  1  0.48020783  0.62785258  0.88517871  1  -1.109067  -0.084389  -0.318036  -0.539841  -0.054987  2.340124  -0.076
O  O102  1  0.51738738  0.98449178  0.36938375  1  -1.111139  0.086569  -0.320471  -0.540202  0.056303  2.337319  0.078
O  O103  1  0.52143700  0.11080067  0.37186894  1  -1.093928  -0.087315  -0.310312  -0.511486  -0.056826  2.338661  -0.079
O  O104  1  0.98469536  0.36950303  0.51730448  1  -1.110646  -0.086558  -0.320416  -0.540543  -0.056303  2.336313  -0.078
O  O105  1  0.11113079  0.37217929  0.52087891  1  -1.094522  0.087315  -0.310282  -0.510751  0.056728  2.339486  0.079
O  O106  1  0.36946807  0.51723422  0.98455804  1  -1.110749  -0.086691  -0.320512  -0.540523  -0.056385  2.336594  -0.078
O  O107  1  0.37197913  0.52116992  0.11090622  1  -1.093644  0.087423  -0.310145  -0.510738  0.056807  2.338591  0.079
O  O108  1  0.98817440  0.51712948  0.36905686  1  -1.100375  -0.088831  -0.313124  -0.516751  -0.057696  2.327434  -0.08
O  O109  1  0.11468366  0.52019147  0.37190881  1  -1.107813  0.084615  -0.317804  -0.539445  0.055084  2.338479  0.076
O  O110  1  0.36917466  0.98830902  0.51700791  1  -1.099393  0.08848  -0.312732  -0.516075  0.057473  2.326657  0.08
O  O111  1  0.37222967  0.11489791  0.51969819  1  -1.108441  -0.084444  -0.317623  -0.53898  -0.055016  2.339747  -0.076
O  O112  1  0.51709720  0.36892304  0.98816285  1  -1.099553  -0.088896  -0.313386  -0.516952  -0.057735  2.326808  -0.08
O  O113  1  0.51980898  0.37194621  0.11475279  1  -1.109272  0.084506  -0.318949  -0.540733  0.055036  2.338973  0.076
O  O114  1  0.48277682  0.01532441  0.63046859  1  -1.11114  -0.086406  -0.320736  -0.540852  -0.056205  2.336473  -0.078
O  O115  1  0.47913524  0.88890905  0.62782340  1  -1.095731  0.087257  -0.310213  -0.510459  0.056689  2.339333  0.079
O  O116  1  0.01547372  0.63059002  0.48282065  1  -1.111411  0.086665  -0.32065  -0.539928  0.056368  2.336485  0.078
O  O117  1  0.88915052  0.62803600  0.47888454  1  -1.093612  -0.087306  -0.310261  -0.511044  -0.056785  2.338611  -0.079
O  O118  1  0.63049743  0.48261060  0.01546151  1  -1.110802  0.086737  -0.320615  -0.540593  0.056396  2.336194  0.078
O  O119  1  0.62803655  0.47863719  0.88910203  1  -1.094393  -0.087428  -0.31011  -0.511073  -0.056835  2.338979  -0.079
O  O120  1  0.79448963  0.49631299  0.51123614  1  -1.179155  0.001657  -0.567891  -0.730673  0.000919  1.959377  0.0
O  O121  1  0.51034791  0.79462821  0.49668560  1  -1.196091  -0.001656  -0.567021  -0.730424  -0.000917  1.962076  0.0
O  O122  1  0.49564264  0.51210994  0.79431306  1  -1.185949  0.001657  -0.568152  -0.729917  0.000919  1.958553  0.0
O  O123  1  0.48821594  0.20559775  0.50419442  1  -1.166845  0.001656  -0.568157  -0.730803  0.000921  1.958094  0.0
O  O124  1  0.20553830  0.50364618  0.48904033  1  -1.184157  -0.001653  -0.567355  -0.730323  -0.000916  1.961218  0.0
O  O125  1  0.50378962  0.48850527  0.20555834  1  -1.17844  -0.001654  -0.568182  -0.731274  -0.000918  1.958915  0.0
