# generated using pymatgen
data_Zn4H18C30S6O13
_symmetry_space_group_name_H-M   'P 1'
_cell_length_a   20.07379130
_cell_length_b   20.19703653
_cell_length_c   21.29826787
_cell_angle_alpha   60.95873725
_cell_angle_beta   89.99404799
_cell_angle_gamma   61.03405198
_symmetry_Int_Tables_number   1
_chemical_formula_structural   Zn4H18C30S6O13
_chemical_formula_sum   'Zn8 H36 C60 S12 O26'
_cell_volume   6285.53544472
_cell_formula_units_Z   2
loop_
 _symmetry_equiv_pos_site_id
 _symmetry_equiv_pos_as_xyz
  1  'x, y, z'
loop_
 _atom_site_type_symbol
 _atom_site_label
 _atom_site_symmetry_multiplicity
 _atom_site_fract_x
 _atom_site_fract_y
 _atom_site_fract_z
 _atom_site_occupancy
 _atom_site_pbe_bader_charge
 _atom_site_pbe_bader_spin_density
 _atom_site_pbe_cm5_charge
 _atom_site_pbe_ddec_charge
 _atom_site_pbe_ddec_spin_density
 _atom_site_pbe_ddec_sum_bond_order
 _atom_site_pbe_magmom
Zn  Zn0  1  0.94745377  0.09882841  0.87950961  1  1.305897  0  0.671232  0.940183  0  2.430863  0
Zn  Zn1  1  0.93556020  0.11092375  0.02024387  1  1.318415  0  0.672519  0.959366  0  2.368975  0
Zn  Zn2  1  0.09767857  0.95205038  0.02555975  1  1.324818  0  0.673347  0.966923  0  2.372312  0
Zn  Zn3  1  0.94030004  0.94582569  0.02409409  1  1.317102  0  0.674652  0.981281  0  2.341689  0
Zn  Zn4  1  0.51716603  0.95138210  0.59727181  1  1.308404  0  0.672374  0.967373  0  2.399997  0
Zn  Zn5  1  0.51911312  0.94481960  0.45241307  1  1.324788  0  0.672758  0.966976  0  2.369351  0
Zn  Zn6  1  0.52139602  0.10488518  0.45033016  1  1.306005  0  0.671957  0.953976  0  2.36253  0
Zn  Zn7  1  0.36253958  0.10390893  0.45274225  1  1.321204  0  0.671844  0.959443  0  2.367334  0
H  H8  1  0.62930631  0.69682371  0.52467711  1  0.115451  0  0.098625  0.152844  0  1.016466  0
H  H9  1  0.72119169  0.59094225  0.55827579  1  0.050231  0  0.097055  0.131872  0  0.992472  0
H  H10  1  0.63278026  0.59378906  0.56904585  1  0.046031  0  0.097016  0.131792  0  0.991297  0
H  H11  1  0.80074196  0.42895347  0.64179570  1  0.034312  0  0.096161  0.12981  0  0.994351  0
H  H12  1  0.71329579  0.42965533  0.65302230  1  0.041974  0  0.096939  0.131343  0  0.991605  0
H  H13  1  0.80873312  0.32793736  0.71382199  1  0.036246  0  0.096063  0.147606  0  1.025737  0
H  H14  1  0.19886836  0.19449099  0.53470132  1  0.107997  0  0.096912  0.149418  0  1.018997  0
H  H15  1  0.11664800  0.19276962  0.56519361  1  0.059039  0  0.096324  0.13011  0  0.99283  0
H  H16  1  0.15831646  0.23989651  0.58942573  1  0.035988  0  0.097275  0.131451  0  0.98959  0
H  H17  1  0.03959044  0.19429492  0.65221068  1  0.046984  0  0.096051  0.130014  0  0.991552  0
H  H18  1  0.08276163  0.24014666  0.67659697  1  0.038109  0  0.097232  0.131867  0  0.991853  0
H  H19  1  0.02846586  0.20004164  0.73268362  1  0.087872  0  0.096351  0.14939  0  1.023832  0
H  H20  1  0.65935447  0.14562180  0.52354682  1  0.108562  0  0.096364  0.148307  0  1.020836  0
H  H21  1  0.67494267  0.19829133  0.56394183  1  0.045247  0  0.096144  0.130159  0  0.992504  0
H  H22  1  0.75794626  0.11099542  0.56172741  1  0.046656  0  0.09677  0.131405  0  0.991525  0
H  H23  1  0.76331871  0.18936742  0.64852726  1  0.040685  0  0.095745  0.129645  0  0.992865  0
H  H24  1  0.84628893  0.10095922  0.64740856  1  0.022449  0  0.096402  0.130875  0  0.992619  0
H  H25  1  0.85898403  0.12507150  0.71499861  1  0.103368  0  0.096323  0.148997  0  1.025038  0
H  H26  1  0.18787810  0.11108414  0.37374673  1  0.083749  0  0.097533  0.148199  0  1.010774  0
H  H27  1  0.13690508  0.19350838  0.27622390  1  0.058079  0  0.100146  0.136971  0  0.978289  0
H  H28  1  0.10983299  0.11549644  0.32781793  1  0.036728  0  0.094523  0.128263  0  1.006906  0
H  H29  1  0.04139854  0.19426047  0.19087723  1  0.036435  0  0.097374  0.133586  0  0.992151  0
H  H30  1  0.03125022  0.10426999  0.25363146  1  0.029321  0  0.097538  0.132177  0  0.98611  0
H  H31  1  0.00076016  0.15333622  0.15514993  1  0.109482  0  0.097306  0.149462  0  1.017388  0
H  H32  1  0.59148606  0.19602384  0.28400951  1  0.093631  0  0.096369  0.147992  0  1.019634  0
H  H33  1  0.68126179  0.18687224  0.26651679  1  0.057446  0  0.09701  0.131343  0  0.988504  0
H  H34  1  0.59785596  0.24222376  0.19011459  1  0.063219  0  0.096042  0.129952  0  0.99518  0
H  H35  1  0.75282883  0.19565946  0.17319428  1  0.042285  0  0.095842  0.130204  0  0.99382  0
H  H36  1  0.66911656  0.24571868  0.09959359  1  0.04455  0  0.097317  0.132329  0  0.989199  0
H  H37  1  0.76612616  0.20188517  0.08819111  1  0.090498  0  0.097067  0.15051  0  1.020473  0
H  H38  1  0.45117610  0.34865558  0.35395044  1  0.158225  0  0.095869  0.14787  0  1.022023  0
H  H39  1  0.42505868  0.44498783  0.26269379  1  0.041243  0  0.096773  0.131489  0  0.990391  0
H  H40  1  0.40530301  0.45881700  0.33773860  1  0.038166  0  0.096768  0.131488  0  0.993429  0
H  H41  1  0.34347471  0.60820537  0.18210440  1  0.045585  0  0.096691  0.131898  0  0.992431  0
H  H42  1  0.32153569  0.62244929  0.25669220  1  0.041975  0  0.096989  0.131567  0  0.990555  0
H  H43  1  0.26659415  0.71700413  0.16150572  1  0.147895  0  0.098447  0.152683  0  1.021358  0
C  C44  1  0.85455817  0.27258713  0.86458817  1  1.506032  0  0.215074  0.616921  0  4.204534  0
C  C45  1  0.80600398  0.37201717  0.81554764  1  -0.130942  0  -0.035712  -0.211623  0  3.946327  0
C  C46  1  0.73512835  0.53074693  0.77709414  1  -0.403982  0  -0.01729  -0.083938  0  4.113454  0
C  C47  1  0.65586332  0.67971719  0.65746718  1  -0.127627  0  -0.033472  -0.208777  0  3.941481  0
C  C48  1  0.60643450  0.77897342  0.60569983  1  1.54169  0  0.216033  0.61531  0  4.21593  0
C  C49  1  0.68234866  0.61080164  0.64511231  1  0.012305  0  0.002962  0.159737  0  3.929442  0
C  C50  1  0.66515374  0.62454333  0.56980723  1  -0.073358  0  -0.234503  -0.405521  0  3.96047  0
C  C51  1  0.72870798  0.52338855  0.71512298  1  0.053493  0  -0.033817  -0.078592  0  4.023527  0
C  C52  1  0.77011578  0.43044826  0.73781680  1  0.019355  0  0.001704  0.157643  0  3.928956  0
C  C53  1  0.77382772  0.40194662  0.68407423  1  0.01619  0  -0.234953  -0.401681  0  3.962694  0
C  C54  1  0.11160204  0.03258297  0.87360286  1  1.579286  0  0.214642  0.616038  0  4.207482  0
C  C55  1  0.16225077  0.03092364  0.82418697  1  -0.204983  0  -0.03576  -0.212106  0  3.943302  0
C  C56  1  0.27746319  0.97347525  0.78054439  1  -0.349964  0  -0.018139  -0.086812  0  4.112418  0
C  C57  1  0.30699102  0.02993981  0.66050760  1  -0.144174  0  -0.034783  -0.210799  0  3.941553  0
C  C58  1  0.35282165  0.03137526  0.60678510  1  1.548132  0  0.215556  0.616493  0  4.20532  0
C  C59  1  0.23018874  0.09383236  0.65245311  1  0.02222  0  0.001828  0.156935  0  3.923653  0
C  C60  1  0.17326753  0.18507658  0.58125005  1  -0.094108  0  -0.233355  -0.400255  0  3.955083  0
C  C61  1  0.21278355  0.06102740  0.72273455  1  0.021949  0  -0.032583  -0.07607  0  4.018552  0
C  C62  1  0.14569046  0.09478527  0.74859836  1  0.078311  0  0.003465  0.159012  0  3.92254  0
C  C63  1  0.06971412  0.18729750  0.70030042  1  -0.039048  0  -0.235452  -0.403318  0  3.959567  0
C  C64  1  0.87558907  0.00814326  0.86659048  1  1.542837  0  0.216452  0.618749  0  4.208088  0
C  C65  1  0.82695947  0.00617968  0.81696724  1  -0.16517  0  -0.035236  -0.212272  0  3.943004  0
C  C66  1  0.74071925  0.97058792  0.77752255  1  -0.379232  0  -0.017726  -0.085177  0  4.110971  0
C  C67  1  0.66251537  0.02168013  0.65660972  1  -0.186674  0  -0.034815  -0.21103  0  3.939529  0
C  C68  1  0.60756250  0.02959757  0.60401859  1  1.551186  0  0.215875  0.616723  0  4.204513  0
C  C69  1  0.70296814  0.06428487  0.64471118  1  0.096881  0  0.001321  0.156751  0  3.929564  0
C  C70  1  0.69822270  0.13353252  0.56906473  1  -0.080646  0  -0.234585  -0.402703  0  3.963064  0
C  C71  1  0.74891587  0.03446685  0.71539056  1  -0.000878  0  -0.033207  -0.077127  0  4.019183  0
C  C72  1  0.79969272  0.05486254  0.73867278  1  0.041276  0  0.001877  0.157552  0  3.925348  0
C  C73  1  0.81846009  0.12114000  0.68485693  1  -0.050678  0  -0.23579  -0.403912  0  3.96309  0
C  C74  1  0.09411425  0.03172341  0.11327868  1  1.562764  0  0.217015  0.618575  0  4.204825  0
C  C75  1  0.14569110  0.02334743  0.16915979  1  -0.194555  0  -0.035165  -0.209461  0  3.9376  0
C  C76  1  0.26939434  0.97394501  0.24898507  1  -0.351721  0  -0.018942  -0.085564  0  4.115104  0
C  C77  1  0.30333376  0.01145644  0.33238934  1  -0.133792  0  -0.035816  -0.212973  0  3.942806  0
C  C78  1  0.35252818  0.01507839  0.37998226  1  1.537738  0  0.21604  0.619265  0  4.204569  0
C  C79  1  0.22078313  0.05806066  0.30430546  1  0.025071  0  0.003027  0.159197  0  3.923595  0
C  C80  1  0.16075914  0.12249461  0.32203227  1  -0.051198  0  -0.235227  -0.403853  0  3.963691  0
C  C81  1  0.20058815  0.03688535  0.25485225  1  0.01963  0  -0.032573  -0.07674  0  4.009595  0
C  C82  1  0.12820944  0.06571967  0.20788377  1  0.059233  0  0.002789  0.157731  0  3.925849  0
C  C83  1  0.04568915  0.13337851  0.20096771  1  -0.058195  0  -0.234817  -0.40492  0  3.960909  0
C  C84  1  0.83925489  0.03931246  0.09266305  1  1.558312  0  0.217232  0.620094  0  4.205705  0
C  C85  1  0.78818193  0.03832368  0.14201571  1  -0.170006  0  -0.035193  -0.211406  0  3.936437  0
C  C86  1  0.72564821  0.98091896  0.23494665  1  -0.349513  0  -0.018116  -0.085147  0  4.110431  0
C  C87  1  0.64376134  0.03292735  0.30657955  1  -0.179297  0  -0.035871  -0.212467  0  3.941117  0
C  C88  1  0.59894728  0.03160321  0.36114331  1  1.568662  0  0.217034  0.619995  0  4.201069  0
C  C89  1  0.65971338  0.09656944  0.25809368  1  0.036887  0  0.00135  0.156895  0  3.924609  0
C  C90  1  0.63058829  0.18523588  0.24946471  1  -0.10449  0  -0.234564  -0.40156  0  3.959114  0
C  C91  1  0.70779421  0.06624789  0.21614921  1  0.05036  0  -0.033478  -0.0769  0  4.0171  0
C  C92  1  0.74387763  0.10004981  0.16122535  1  0.026984  0  0.001539  0.156766  0  3.925074  0
C  C93  1  0.73288088  0.19058718  0.12855526  1  -0.059612  0  -0.235135  -0.404242  0  3.959831  0
C  C94  1  0.10495630  0.78035075  0.11167491  1  1.572141  0  0.217374  0.618902  0  4.208743  0
C  C95  1  0.15319136  0.68086256  0.16288008  1  -0.207748  0  -0.035296  -0.211666  0  3.940974  0
C  C96  1  0.18605120  0.52493726  0.23633011  1  -0.363634  0  -0.017517  -0.083488  0  4.110407  0
C  C97  1  0.30831085  0.37280660  0.31976446  1  -0.222381  0  -0.035464  -0.2116  0  3.943989  0
C  C98  1  0.35992353  0.27335327  0.36958902  1  1.599738  0  0.214863  0.61638  0  4.208572  0
C  C99  1  0.32537594  0.43893710  0.29369435  1  0.042925  0  0.001439  0.156903  0  3.925273  0
C  C100  1  0.40652376  0.42113937  0.31353007  1  -0.111373  0  -0.234893  -0.403038  0  3.960377  0
C  C101  1  0.25400469  0.52801393  0.24465377  1  0.048717  0  -0.032507  -0.07622  0  4.016463  0
C  C102  1  0.23454166  0.61944521  0.20155569  1  0.064132  0  0.001698  0.157589  0  3.925683  0
C  C103  1  0.29443363  0.64381254  0.19990484  1  -0.114948  0  -0.23617  -0.406969  0  3.960513  0
S  S104  1  0.79048912  0.42819387  0.86143627  1  0.290815  0  0.069904  0.126941  0  2.814443  0
S  S105  1  0.68622958  0.64027653  0.75264937  1  0.298184  0  0.073153  0.132445  0  2.821144  0
S  S106  1  0.25858987  0.93153093  0.86471901  1  0.280745  0  0.073077  0.131871  0  2.807624  0
S  S107  1  0.35866597  0.93110461  0.75203307  1  0.293749  0  0.073775  0.134241  0  2.816583  0
S  S108  1  0.79222006  0.93574808  0.86269605  1  0.302861  0  0.074942  0.13463  0  2.810055  0
S  S109  1  0.67911296  0.94617620  0.75226446  1  0.293509  0  0.073893  0.133752  0  2.817529  0
S  S110  1  0.24848098  0.94897995  0.18877606  1  0.294304  0  0.069901  0.127889  0  2.825063  0
S  S111  1  0.35692809  0.94092658  0.30102402  1  0.284479  0  0.070497  0.128818  0  2.82243  0
S  S112  1  0.78491183  0.94111120  0.18804524  1  0.290182  0  0.072239  0.130777  0  2.810521  0
S  S113  1  0.68471128  0.93777698  0.30092475  1  0.285544  0  0.07047  0.129001  0  2.815391  0
S  S114  1  0.09980251  0.62954101  0.17836395  1  0.283005  0  0.071685  0.130615  0  2.812606  0
S  S115  1  0.20680532  0.41723613  0.28595540  1  0.280214  0  0.0661  0.122597  0  2.820637  0
O  O116  1  0.98044235  0.02504037  0.98952085  1  -1.225266  0  -0.57424  -1.02764  0  2.551436  0
O  O117  1  0.88420040  0.23822504  0.93456211  1  -1.168636  0  -0.32317  -0.553792  0  2.330788  0
O  O118  1  0.86409596  0.22716594  0.83558159  1  -1.169337  0  -0.316192  -0.539188  0  2.344698  0
O  O119  1  0.58163177  0.81497415  0.53490469  1  -1.167381  0  -0.310427  -0.534177  0  2.335554  0
O  O120  1  0.59200679  0.82239662  0.63765115  1  -1.165201  0  -0.323231  -0.550818  0  2.358167  0
O  O121  1  0.14540419  0.96517248  0.94304345  1  -1.177079  0  -0.3209  -0.547885  0  2.323262  0
O  O122  1  0.03803014  0.09906647  0.84491731  1  -1.183878  0  -0.318883  -0.546072  0  2.350453  0
O  O123  1  0.31869575  0.09710321  0.53714838  1  -1.175515  0  -0.311608  -0.536886  0  2.324755  0
O  O124  1  0.42609350  0.96338717  0.63561047  1  -1.175335  0  -0.325166  -0.554736  0  2.350073  0
O  O125  1  0.88299979  0.96262143  0.93702604  1  -1.16637  0  -0.320687  -0.551499  0  2.333665  0
O  O126  1  0.90623941  0.05459290  0.83680705  1  -1.165973  0  -0.316605  -0.539796  0  2.351399  0
O  O127  1  0.59595362  0.07740170  0.53294442  1  -1.167717  0  -0.313174  -0.538586  0  2.325731  0
O  O128  1  0.57488006  0.98582418  0.63561643  1  -1.175472  0  -0.322737  -0.55139  0  2.357869  0
O  O129  1  0.13180446  0.98610558  0.08496558  1  -1.17294  0  -0.324594  -0.556846  0  2.359069  0
O  O130  1  0.01798713  0.08214691  0.09660716  1  -1.174381  0  -0.312456  -0.535761  0  2.326839  0
O  O131  1  0.31765737  0.06800087  0.40259474  1  -1.177526  0  -0.313631  -0.539133  0  2.334396  0
O  O132  1  0.42839125  0.96410262  0.39414690  1  -1.170046  0  -0.324142  -0.555128  0  2.348961  0
O  O133  1  0.86947849  0.97304679  0.08388897  1  -1.1712  0  -0.322556  -0.552098  0  2.332544  0
O  O134  1  0.85082666  0.10365061  0.06340388  1  -1.174156  0  -0.315804  -0.543461  0  2.34623  0
O  O135  1  0.57520601  0.09263389  0.37553583  1  -1.174983  0  -0.314301  -0.54025  0  2.333072  0
O  O136  1  0.58816472  0.96635168  0.39112886  1  -1.177303  0  -0.324544  -0.555187  0  2.347307  0
O  O137  1  0.02942550  0.81730375  0.08790022  1  -1.16233  0  -0.322739  -0.552782  0  2.338492  0
O  O138  1  0.14037350  0.82218941  0.09442508  1  -1.172966  0  -0.312126  -0.536014  0  2.344638  0
O  O139  1  0.43491351  0.23488318  0.39709896  1  -1.18155  0  -0.314283  -0.540253  0  2.335925  0
O  O140  1  0.32389303  0.23229454  0.38143184  1  -1.179032  0  -0.32442  -0.554002  0  2.344903  0
O  O141  1  0.47977345  0.02751484  0.48667657  1  -1.218883  0  -0.573326  -1.026827  0  2.544499  0
