# generated using pymatgen
data_Cu3H50C40(N14O)2
_symmetry_space_group_name_H-M   'P 1'
_cell_length_a   13.09136284
_cell_length_b   14.66689995
_cell_length_c   15.66403277
_cell_angle_alpha   89.99921511
_cell_angle_beta   92.38552282
_cell_angle_gamma   89.99947658
_symmetry_Int_Tables_number   1
_chemical_formula_structural   Cu3H50C40(N14O)2
_chemical_formula_sum   'Cu6 H100 C80 N56 O4'
_cell_volume   3005.03988251
_cell_formula_units_Z   2
loop_
 _symmetry_equiv_pos_site_id
 _symmetry_equiv_pos_as_xyz
  1  'x, y, z'
loop_
 _atom_site_type_symbol
 _atom_site_label
 _atom_site_symmetry_multiplicity
 _atom_site_fract_x
 _atom_site_fract_y
 _atom_site_fract_z
 _atom_site_occupancy
 _atom_site_pbe_bader_charge
 _atom_site_pbe_bader_spin_density
 _atom_site_pbe_cm5_charge
 _atom_site_pbe_ddec_charge
 _atom_site_pbe_ddec_spin_density
 _atom_site_pbe_ddec_sum_bond_order
 _atom_site_pbe_magmom
Cu  Cu0  1  0.50000738  0.00000522  0.50000198  1  1.077105  0.589998  0.839279  0.590909  0.772264  2.561296  0.587
Cu  Cu1  1  0.00001178  0.50000137  0.00000234  1  1.077085  0.590006  0.839209  0.590822  0.772274  2.561387  0.587
Cu  Cu2  1  0.52038195  0.19615306  0.38735550  1  1.000637  0.505749  0.780664  0.56952  0.661652  2.510944  0.505
Cu  Cu3  1  0.97964607  0.69617094  0.11263331  1  1.000375  0.505722  0.780597  0.569465  0.661672  2.510719  0.505
Cu  Cu4  1  0.47963880  0.80384646  0.61264739  1  1.000762  0.505751  0.780642  0.569569  0.661658  2.510688  0.505
Cu  Cu5  1  0.02036781  0.30384154  0.88736614  1  1.000358  0.505721  0.780625  0.569439  0.661641  2.510903  0.505
H  H6  1  0.89297599  0.14740295  0.86113712  1  0.181526  0.002242  0.121247  0.101061  0.000948  1.037956  0.002
H  H7  1  0.60699893  0.64739142  0.63889011  1  0.180816  0.002244  0.121147  0.100921  0.000948  1.038161  0.002
H  H8  1  0.10702335  0.85261499  0.13886882  1  0.180369  0.002243  0.12129  0.101083  0.000948  1.038244  0.002
H  H9  1  0.39300039  0.35259310  0.36112158  1  0.182098  0.002241  0.121176  0.100803  0.000948  1.038197  0.002
H  H10  1  0.76728390  0.08778979  0.74729075  1  0.126409  0.001208  0.11693  0.124731  0.000633  1.005137  0.001
H  H11  1  0.73271156  0.58777693  0.75273096  1  0.126402  0.001209  0.116943  0.124773  0.000634  1.004994  0.001
H  H12  1  0.23272540  0.91222951  0.25270789  1  0.125942  0.001208  0.116969  0.124804  0.000633  1.005002  0.001
H  H13  1  0.26729389  0.41220964  0.24727456  1  0.126643  0.001208  0.116969  0.124839  0.000634  1.004903  0.001
H  H14  1  0.81740110  0.33519805  0.60557150  1  0.096577  0.00135  0.116505  0.123183  0.000722  1.006498  0.001
H  H15  1  0.68265749  0.83521148  0.89441808  1  0.096253  0.001351  0.116386  0.12306  0.000722  1.006549  0.001
H  H16  1  0.18261967  0.66481716  0.39442820  1  0.096698  0.00135  0.116444  0.123042  0.000722  1.006639  0.001
H  H17  1  0.31735331  0.16477713  0.10559147  1  0.096246  0.00135  0.116409  0.123148  0.000722  1.006589  0.001
H  H18  1  0.94244709  0.38297160  0.72337542  1  0.156726  0.002566  0.122633  0.089568  0.001204  1.020378  0.002
H  H19  1  0.55759721  0.88298914  0.77661812  1  0.156525  0.002567  0.122635  0.089472  0.001205  1.020457  0.002
H  H20  1  0.05755682  0.61705111  0.27663707  1  0.156898  0.002568  0.122648  0.089523  0.001205  1.020214  0.002
H  H21  1  0.44239981  0.11699130  0.22339858  1  0.156099  0.002568  0.122572  0.089315  0.001205  1.020573  0.002
H  H22  1  0.14638857  0.31771894  0.73859390  1  0.120173  0.001889  0.116314  0.080906  0.000848  1.063844  0.001
H  H23  1  0.35361103  0.81772885  0.76141153  1  0.120173  0.001889  0.116285  0.080885  0.000848  1.063921  0.001
H  H24  1  0.85362534  0.68228467  0.26139406  1  0.120062  0.001889  0.116283  0.08098  0.000848  1.063943  0.001
H  H25  1  0.64638298  0.18228227  0.23858400  1  0.11987  0.00189  0.116286  0.080819  0.000848  1.063918  0.001
H  H26  1  0.26803044  0.22050011  0.66075910  1  0.109281  0.000971  0.114709  0.122276  0.000505  1.010488  0.001
H  H27  1  0.23197329  0.72049623  0.83924772  1  0.109148  0.000971  0.114662  0.122184  0.000505  1.010563  0.001
H  H28  1  0.73197659  0.77949464  0.33923052  1  0.109518  0.000971  0.114698  0.122309  0.000505  1.010599  0.001
H  H29  1  0.76800469  0.27950876  0.16074020  1  0.108949  0.000971  0.1147  0.122234  0.000505  1.010565  0.001
H  H30  1  0.24371054  0.01963490  0.86070715  1  0.116325  0.001158  0.114362  0.125197  0.000635  1.00757  0.001
H  H31  1  0.25627782  0.51965829  0.63928828  1  0.115805  0.001159  0.114387  0.125179  0.000635  1.007639  0.001
H  H32  1  0.75627965  0.98036531  0.13928888  1  0.116306  0.001158  0.114347  0.125145  0.000635  1.007601  0.001
H  H33  1  0.74371467  0.48035215  0.36070464  1  0.116646  0.001158  0.114379  0.12513  0.000635  1.007666  0.001
H  H34  1  0.11909037  0.12384233  0.92924764  1  0.152402  0.002149  0.120901  0.096557  0.000993  1.020219  0.002
H  H35  1  0.38089534  0.62387253  0.57074125  1  0.153219  0.002148  0.120807  0.096511  0.000993  1.020292  0.002
H  H36  1  0.88090899  0.87616810  0.07074809  1  0.152481  0.00215  0.12088  0.096521  0.000993  1.020217  0.002
H  H37  1  0.61910098  0.37613518  0.42924862  1  0.152932  0.002148  0.120838  0.096519  0.000993  1.020213  0.002
H  H38  1  0.42161549  0.25962091  0.56723518  1  0.094873  -1.6e-05  0.112187  0.035152  -9.5e-05  1.039504  0.0
H  H39  1  0.07843986  0.75966668  0.93274622  1  0.095335  -1.6e-05  0.112182  0.035103  -9.5e-05  1.039449  0.0
H  H40  1  0.57839994  0.74034043  0.43275475  1  0.095985  -1.6e-05  0.112109  0.035006  -9.5e-05  1.039587  0.0
H  H41  1  0.92155491  0.24033898  0.06725189  1  0.095201  -1.6e-05  0.112175  0.035092  -9.5e-05  1.03935  0.0
H  H42  1  0.46623058  0.33512061  0.76146955  1  0.053558  2e-06  0.103419  0.117777  -1.1e-05  0.976777  0.0
H  H43  1  0.03377424  0.83512526  0.73851350  1  0.053379  2e-06  0.103408  0.117719  -1.1e-05  0.976833  0.0
H  H44  1  0.53375122  0.66486528  0.23851723  1  0.05328  2e-06  0.103431  0.117744  -1.1e-05  0.976905  0.0
H  H45  1  0.96622512  0.16487563  0.26148414  1  0.053398  2e-06  0.103388  0.117689  -1.1e-05  0.976871  0.0
H  H46  1  0.58648553  0.28889582  0.73514657  1  0.066432  0.000194  0.10156  0.114793  0.000173  1.008951  0.0
H  H47  1  0.91352765  0.78890177  0.76486046  1  0.06602  0.000194  0.101562  0.114735  0.000173  1.009066  0.0
H  H48  1  0.41350387  0.71108871  0.26485901  1  0.066057  0.000194  0.10159  0.114801  0.000173  1.008907  0.0
H  H49  1  0.08647019  0.21110048  0.23513394  1  0.066045  0.000194  0.101548  0.114681  0.000173  1.009083  0.0
H  H50  1  0.47123830  0.23461380  0.69659513  1  0.090318  1.8e-05  0.104955  0.116849  -2e-06  1.032765  0.0
H  H51  1  0.02878057  0.73462709  0.80340823  1  0.090931  1.8e-05  0.104945  0.116855  -2e-06  1.032677  0.0
H  H52  1  0.52875722  0.76536596  0.30340747  1  0.090549  1.8e-05  0.104914  0.11677  -2e-06  1.032763  0.0
H  H53  1  0.97121574  0.26537380  0.19658802  1  0.09087  1.8e-05  0.104981  0.116924  -2e-06  1.032559  0.0
H  H54  1  0.53494948  0.48508030  0.68735438  1  0.075656  -1e-06  0.100762  0.111275  -1.5e-05  0.989663  0.0
H  H55  1  0.96505557  0.98509332  0.81260004  1  0.075278  -1e-06  0.100767  0.111293  -1.5e-05  0.989938  0.0
H  H56  1  0.46504231  0.51490081  0.31261553  1  0.075133  -1e-06  0.100783  0.111293  -1.5e-05  0.98982  0.0
H  H57  1  0.03494382  0.01490620  0.18738611  1  0.075555  -1e-06  0.100772  0.111345  -1.5e-05  0.989899  0.0
H  H58  1  0.55567873  0.47514029  0.57549210  1  0.116634  8e-06  0.108694  0.133163  5.2e-05  1.026967  0.0
H  H59  1  0.94432564  0.97517843  0.92447072  1  0.116476  8e-06  0.108714  0.133265  5.2e-05  1.026937  0.0
H  H60  1  0.44431839  0.52481833  0.42448311  1  0.1163  8e-06  0.108666  0.133255  5.2e-05  1.027013  0.0
H  H61  1  0.05567145  0.02482928  0.07551854  1  0.116355  8e-06  0.108684  0.133331  5.2e-05  1.026844  0.0
H  H62  1  0.64530828  0.42652649  0.65290800  1  0.078311  3.9e-05  0.099554  0.10795  2.2e-05  1.000885  0.0
H  H63  1  0.85470655  0.92653786  0.84706093  1  0.078834  3.9e-05  0.099556  0.108003  2.2e-05  1.00077  0.0
H  H64  1  0.35469035  0.57345394  0.34707621  1  0.078684  3.9e-05  0.099546  0.107997  2.2e-05  1.000746  0.0
H  H65  1  0.14529360  0.07346439  0.15292908  1  0.078872  3.9e-05  0.09958  0.108064  2.2e-05  1.000738  0.0
H  H66  1  0.25723495  0.95165425  0.06457131  1  0.030893  1e-05  0.08146  0.074366  1.4e-05  1.015007  0.0
H  H67  1  0.24277774  0.45164273  0.43543082  1  0.030662  1e-05  0.081499  0.074461  1.4e-05  1.014922  0.0
H  H68  1  0.74274988  0.04834664  0.93542899  1  0.031184  1e-05  0.081491  0.074362  1.4e-05  1.014985  0.0
H  H69  1  0.75719944  0.54834929  0.56456664  1  0.030295  1e-05  0.081526  0.074575  1.4e-05  1.014896  0.0
H  H70  1  0.34801398  0.01606462  0.01029713  1  -0.023687  3.4e-05  0.078913  0.063914  1.6e-05  1.020544  0.0
H  H71  1  0.15200350  0.51606395  0.48969990  1  -0.023644  3.4e-05  0.07895  0.063955  1.6e-05  1.02054  0.0
H  H72  1  0.65196397  0.98393968  0.98970228  1  -0.023738  3.4e-05  0.078859  0.063931  1.6e-05  1.020433  0.0
H  H73  1  0.84797216  0.48393080  0.51029560  1  -0.024162  3.4e-05  0.078852  0.063941  1.6e-05  1.020577  0.0
H  H74  1  0.28951939  0.81752359  0.98775057  1  0.015762  -1.2e-05  0.084625  0.082012  -4.5e-05  0.997374  0.0
H  H75  1  0.21049013  0.31752398  0.51226479  1  0.015492  -1.2e-05  0.084617  0.081965  -4.5e-05  0.997565  0.0
H  H76  1  0.71046239  0.18247798  0.01224515  1  0.015471  -1.2e-05  0.084524  0.081886  -4.5e-05  0.997607  0.0
H  H77  1  0.78948246  0.68246805  0.48773697  1  0.015233  -1.2e-05  0.084656  0.082062  -4.5e-05  0.997207  0.0
H  H78  1  0.33479591  0.89330618  0.90923713  1  0.036314  8.7e-05  0.078458  0.063743  8.5e-05  1.039427  0.0
H  H79  1  0.16521433  0.39331193  0.59077283  1  0.03604  8.7e-05  0.078481  0.063783  8.5e-05  1.039465  0.0
H  H80  1  0.66518740  0.10669812  0.09076120  1  0.03656  8.7e-05  0.078445  0.063634  8.5e-05  1.039411  0.0
H  H81  1  0.83476362  0.60668487  0.40922658  1  0.035941  8.7e-05  0.078554  0.06385  8.5e-05  1.039629  0.0
H  H82  1  0.46414396  0.76333977  0.97106882  1  0.032008  2.4e-05  0.085505  0.0805  1.3e-05  0.991295  0.0
H  H83  1  0.03586692  0.26334611  0.52894730  1  0.032092  2.4e-05  0.085527  0.080539  1.3e-05  0.991276  0.0
H  H84  1  0.53583553  0.23665907  0.02892618  1  0.031518  2.4e-05  0.085504  0.080553  1.3e-05  0.991403  0.0
H  H85  1  0.96410643  0.73665342  0.47105514  1  0.032233  2.4e-05  0.085511  0.080435  1.3e-05  0.991377  0.0
H  H86  1  0.51142549  0.87688235  0.96697342  1  0.008412  3.3e-05  0.07972  0.065989  1.3e-05  1.022166  0.0
H  H87  1  0.98858365  0.37688904  0.53303616  1  0.008547  3.4e-05  0.079649  0.065893  1.3e-05  1.022082  0.0
H  H88  1  0.48855857  0.12311513  0.03302558  1  0.008175  3.3e-05  0.079723  0.065915  1.3e-05  1.022293  0.0
H  H89  1  0.01139506  0.62310776  0.46696264  1  0.00856  3.3e-05  0.079706  0.065979  1.3e-05  1.022045  0.0
H  H90  1  0.54329004  0.83143370  0.11865988  1  0.041585  6e-06  0.080666  0.073077  -1e-05  1.00719  0.0
H  H91  1  0.95671656  0.33143487  0.38135451  1  0.041793  7e-06  0.080638  0.073033  -1e-05  1.007291  0.0
H  H92  1  0.45668791  0.16856037  0.88133825  1  0.041144  6e-06  0.08062  0.073047  -1e-05  1.007186  0.0
H  H93  1  0.04325526  0.66856398  0.61864978  1  0.042343  6e-06  0.080694  0.073174  -1e-05  1.007147  0.0
H  H94  1  0.41853244  0.78342064  0.12040112  1  0.028671  0.000108  0.08518  0.082471  6.2e-05  1.009375  0.0
H  H95  1  0.08147519  0.28341534  0.37961129  1  0.028826  0.000108  0.085242  0.082563  6.3e-05  1.009259  0.0
H  H96  1  0.58144170  0.21658025  0.87959050  1  0.029092  0.000108  0.085178  0.082482  6.2e-05  1.009523  0.0
H  H97  1  0.91849052  0.71657260  0.62038959  1  0.032162  0.000108  0.085233  0.082481  6.2e-05  1.009467  0.0
H  H98  1  0.38561525  0.93387546  0.17741645  1  0.03656  3.6e-05  0.079976  0.070379  2.5e-05  1.018676  0.0
H  H99  1  0.11439763  0.43386936  0.32258847  1  0.036555  3.6e-05  0.079999  0.070352  2.5e-05  1.018563  0.0
H  H100  1  0.61437494  0.06613020  0.82258149  1  0.036624  3.6e-05  0.080013  0.070393  2.5e-05  1.018647  0.0
H  H101  1  0.88558338  0.56611244  0.67740978  1  0.036419  3.6e-05  0.080025  0.070429  2.5e-05  1.018412  0.0
H  H102  1  0.47702325  0.98485907  0.11296488  1  0.011373  3.2e-05  0.080051  0.070041  1.7e-05  1.016043  0.0
H  H103  1  0.02298983  0.48485686  0.38704067  1  0.011599  3.2e-05  0.080087  0.070079  1.7e-05  1.015951  0.0
H  H104  1  0.52296466  0.01513909  0.88702532  1  0.011099  3.2e-05  0.080004  0.069935  1.7e-05  1.016109  0.0
H  H105  1  0.97698966  0.51513653  0.61295369  1  0.0116  3.2e-05  0.080147  0.070194  1.7e-05  1.015932  0.0
C  C106  1  0.87433870  0.18492195  0.80228276  1  0.38298  -0.001134  0.046625  0.08386  -0.001757  3.919326  -0.001
C  C107  1  0.62565035  0.68491418  0.69773620  1  0.38394  -0.001138  0.046632  0.08372  -0.001759  3.919446  -0.001
C  C108  1  0.12565911  0.81510008  0.19772185  1  0.384635  -0.001138  0.046474  0.083388  -0.001757  3.91955  -0.001
C  C109  1  0.37434592  0.31507444  0.30227154  1  0.382433  -0.001135  0.04677  0.084269  -0.001758  3.919398  -0.001
C  C110  1  0.80478971  0.15341160  0.74013086  1  0.009214  0.00604  -0.071219  -0.148683  0.004234  3.916241  0.005
C  C111  1  0.69521270  0.65340372  0.75988389  1  0.009223  0.006042  -0.071184  -0.148492  0.004235  3.915871  0.005
C  C112  1  0.19521805  0.84661316  0.25987220  1  0.00982  0.006041  -0.071112  -0.148258  0.004234  3.915531  0.005
C  C113  1  0.30479658  0.34658217  0.24012178  1  0.009503  0.00604  -0.071274  -0.148812  0.004234  3.91612  0.005
C  C114  1  0.78286686  0.20732136  0.66769358  1  0.012904  -0.002575  0.023512  0.083873  -0.003108  4.00074  -0.002
C  C115  1  0.71715488  0.70732315  0.83230778  1  0.012939  -0.002573  0.023305  0.083265  -0.003106  4.001095  -0.002
C  C116  1  0.21714855  0.79269999  0.33231039  1  0.012355  -0.002574  0.023129  0.082962  -0.003108  4.00092  -0.002
C  C117  1  0.28285746  0.29266547  0.16769736  1  0.0121  -0.002577  0.023453  0.083549  -0.00311  4.001043  -0.002
C  C118  1  0.83257088  0.29150805  0.66084218  1  -0.017335  0.006364  -0.07427  -0.159163  0.004354  3.931691  0.005
C  C119  1  0.66746064  0.79151628  0.83915718  1  -0.017131  0.006367  -0.074072  -0.158762  0.004356  3.931813  0.005
C  C120  1  0.16743534  0.70851125  0.33916210  1  -0.01808  0.006365  -0.074137  -0.158669  0.004354  3.931988  0.005
C  C121  1  0.33254634  0.20846893  0.16085287  1  -0.016351  0.006365  -0.074086  -0.158964  0.004356  3.931658  0.005
C  C122  1  0.90182861  0.31816801  0.72540302  1  0.479717  -0.000992  0.051497  0.092587  -0.001265  3.934234  -0.001
C  C123  1  0.59819496  0.81817638  0.77460081  1  0.480203  -0.000994  0.051363  0.092465  -0.001265  3.934788  -0.001
C  C124  1  0.09817378  0.68185947  0.27460813  1  0.480109  -0.000992  0.051487  0.092517  -0.001263  3.934697  -0.001
C  C125  1  0.40180129  0.18180746  0.22541459  1  0.479929  -0.000994  0.051515  0.092724  -0.001265  3.934591  -0.001
C  C126  1  0.70881068  0.17647990  0.60248112  1  0.925723  0.006095  0.212051  0.214188  0.004907  4.062772  0.007
C  C127  1  0.79123359  0.67649104  0.89750869  1  0.924835  0.006096  0.212304  0.214545  0.004907  4.062142  0.007
C  C128  1  0.29121851  0.82353463  0.39751315  1  0.925767  0.006095  0.212252  0.214717  0.004908  4.061646  0.007
C  C129  1  0.20878947  0.32350303  0.10248982  1  0.925908  0.006094  0.212028  0.214346  0.004907  4.062714  0.007
C  C130  1  0.16937690  0.25093632  0.76318587  1  0.436426  -0.001044  0.042846  0.089547  -0.001588  3.940537  -0.001
C  C131  1  0.33062344  0.75094404  0.73682107  1  0.436377  -0.001046  0.042781  0.089443  -0.001588  3.940735  -0.001
C  C132  1  0.83063394  0.74906729  0.23680772  1  0.436367  -0.001043  0.042757  0.089238  -0.001588  3.940918  -0.001
C  C133  1  0.66936829  0.24906844  0.26317054  1  0.436804  -0.001047  0.042936  0.089685  -0.001589  3.940774  -0.001
C  C134  1  0.23806767  0.19748743  0.72085405  1  0.000666  0.005078  -0.077271  -0.154958  0.003492  3.927359  0.004
C  C135  1  0.26193707  0.69749236  0.77915247  1  0.000976  0.005076  -0.07724  -0.154892  0.003491  3.927223  0.004
C  C136  1  0.76193858  0.80251278  0.27913874  1  0.0005  0.005076  -0.077247  -0.15498  0.003492  3.927581  0.004
C  C137  1  0.73805314  0.30252012  0.22083590  1  0.001473  0.005077  -0.077296  -0.154928  0.003492  3.927118  0.004
C  C138  1  0.26706067  0.11257478  0.75532919  1  0.073002  -0.00289  0.021038  0.080821  -0.003388  4.012319  -0.002
C  C139  1  0.23294960  0.61258181  0.74467606  1  0.072251  -0.002889  0.02094  0.080895  -0.003388  4.01208  -0.002
C  C140  1  0.73294634  0.88742543  0.24466746  1  0.073444  -0.002889  0.020985  0.080787  -0.003388  4.01229  -0.002
C  C141  1  0.76704520  0.38743067  0.25531375  1  0.072517  -0.00289  0.020896  0.080898  -0.003389  4.011964  -0.002
C  C142  1  0.22419444  0.08519233  0.83180964  1  -0.116195  0.006236  -0.077101  -0.159275  0.004265  3.917208  0.005
C  C143  1  0.27580161  0.58520900  0.66818842  1  -0.114801  0.006234  -0.077051  -0.159245  0.004264  3.917361  0.005
C  C144  1  0.77580492  0.91480993  0.16818545  1  -0.116362  0.006237  -0.077076  -0.159165  0.004265  3.917241  0.005
C  C145  1  0.72419242  0.41480144  0.33180072  1  -0.116489  0.006237  -0.077118  -0.159384  0.004265  3.917416  0.005
C  C146  1  0.15544425  0.14260800  0.87042182  1  0.470678  -0.000307  0.049285  0.09422  -0.000689  3.937919  0.0
C  C147  1  0.34454583  0.64262604  0.62957464  1  0.46976  -0.000305  0.049341  0.094235  -0.000689  3.937978  0.0
C  C148  1  0.84455665  0.85739834  0.12957459  1  0.470769  -0.000305  0.049264  0.094179  -0.000688  3.938063  0.0
C  C149  1  0.65544820  0.35738371  0.37041642  1  0.470385  -0.000307  0.04947  0.094514  -0.00069  3.937815  0.0
C  C150  1  0.33739712  0.05546255  0.70987763  1  0.951332  0.003885  0.206755  0.21452  0.002983  4.073418  0.004
C  C151  1  0.16261912  0.55546336  0.79012729  1  0.951192  0.003884  0.206801  0.214346  0.002982  4.073806  0.004
C  C152  1  0.66260988  0.94454175  0.29012284  1  0.951192  0.003885  0.206818  0.214482  0.002983  4.073369  0.004
C  C153  1  0.83737948  0.44454640  0.20986649  1  0.951086  0.003885  0.206898  0.21455  0.002983  4.073526  0.004
C  C154  1  0.45918542  0.32687497  0.56071730  1  1.369982  -0.000161  0.160061  0.287912  -0.000313  4.15435  0.0
C  C155  1  0.04085160  0.82691412  0.93926704  1  1.370346  -0.000161  0.159837  0.287833  -0.000313  4.154921  0.0
C  C156  1  0.54082466  0.67308706  0.43927371  1  1.369685  -0.000161  0.16002  0.288033  -0.000313  4.154465  0.0
C  C157  1  0.95914394  0.17308949  0.06073110  1  1.370187  -0.000161  0.15984  0.287872  -0.000313  4.154966  0.0
C  C158  1  0.50750612  0.30056341  0.71092280  1  0.262188  8.2e-05  -0.133664  -0.281294  5.3e-05  3.933353  0.0
C  C159  1  0.99251001  0.80057518  0.78907332  1  0.263053  8.2e-05  -0.133724  -0.281267  5.3e-05  3.933357  0.0
C  C160  1  0.49248789  0.69941771  0.28907464  1  0.263904  8.2e-05  -0.133652  -0.281205  5.3e-05  3.933536  0.0
C  C161  1  0.00748705  0.19942571  0.21092487  1  0.263131  8.1e-05  -0.133714  -0.281159  5.3e-05  3.933256  0.0
C  C162  1  0.56401013  0.44051763  0.63733032  1  0.190881  1.8e-05  -0.135302  -0.268794  3.6e-05  3.903414  0.0
C  C163  1  0.93600454  0.94054106  0.86263843  1  0.190981  1.8e-05  -0.135353  -0.26903  3.6e-05  3.903886  0.0
C  C164  1  0.43598851  0.55945395  0.36265070  1  0.191073  1.8e-05  -0.135343  -0.269052  3.6e-05  3.90382  0.0
C  C165  1  0.06399560  0.05946324  0.13735222  1  0.190435  1.8e-05  -0.135377  -0.26922  3.6e-05  3.903717  0.0
C  C166  1  0.33498086  0.94972460  0.04083623  1  -0.033519  2.8e-05  -0.169718  -0.141085  2.3e-05  3.881351  0.0
C  C167  1  0.16503337  0.44972086  0.45917046  1  -0.033151  2.8e-05  -0.169707  -0.141124  2.3e-05  3.88154  0.0
C  C168  1  0.66500244  0.05027834  0.95916338  1  -0.033179  2.8e-05  -0.169693  -0.141091  2.3e-05  3.881144  0.0
C  C169  1  0.83494305  0.55027185  0.54082698  1  -0.032383  2.8e-05  -0.169618  -0.141194  2.3e-05  3.881343  0.0
C  C170  1  0.34624585  0.87099078  0.97597219  1  -0.036756  6.5e-05  -0.171675  -0.147453  4.5e-05  3.910047  0.0
C  C171  1  0.15376462  0.37099418  0.52403933  1  -0.036302  6.5e-05  -0.171717  -0.147564  4.5e-05  3.910477  0.0
C  C172  1  0.65373592  0.12901148  0.02402608  1  -0.037666  6.5e-05  -0.171573  -0.147234  4.5e-05  3.909877  0.0
C  C173  1  0.84621332  0.62899989  0.47596072  1  -0.035604  6.5e-05  -0.171874  -0.147843  4.5e-05  3.91024  0.0
C  C174  1  0.45382978  0.83277080  0.99560965  1  -0.029307  2.2e-05  -0.169334  -0.142785  -0.0  3.941402  0.0
C  C175  1  0.04617882  0.33277469  0.50440229  1  -0.029468  2.2e-05  -0.169283  -0.142669  -0.0  3.941129  0.0
C  C176  1  0.54614895  0.16722941  0.00438532  1  -0.028227  2.2e-05  -0.16935  -0.14281  -0.0  3.941481  0.0
C  C177  1  0.95379912  0.66722211  0.49559903  1  -0.030306  2.2e-05  -0.169235  -0.142382  -0.0  3.941236  0.0
C  C178  1  0.46411703  0.83858296  0.09329973  1  -0.059675  0.000101  -0.171002  -0.143817  5.8e-05  3.916212  0.0
C  C179  1  0.03589382  0.33858172  0.40671208  1  -0.060782  0.000102  -0.17106  -0.143882  5.9e-05  3.916127  0.0
C  C180  1  0.53586246  0.16141725  0.90669718  1  -0.059615  0.000102  -0.170956  -0.14379  5.8e-05  3.916432  0.0
C  C181  1  0.96408030  0.66141031  0.59328974  1  -0.064113  0.000102  -0.171012  -0.14391  5.8e-05  3.916382  0.0
C  C182  1  0.41724842  0.93211197  0.11353888  1  -0.056075  5.5e-05  -0.171445  -0.144323  4.1e-05  3.895882  0.0
C  C183  1  0.08276600  0.43210928  0.38646868  1  -0.055711  5.5e-05  -0.171574  -0.144372  4.1e-05  3.895836  0.0
C  C184  1  0.58273641  0.06788892  0.88645823  1  -0.055913  5.5e-05  -0.17141  -0.144223  4.1e-05  3.895848  0.0
C  C185  1  0.91721043  0.56788070  0.61352749  1  -0.055678  5.5e-05  -0.171777  -0.144762  4.1e-05  3.895662  0.0
N  N186  1  0.92244753  0.26553871  0.79433247  1  -1.224782  0.09721  -0.35234  -0.206345  0.065239  3.661238  0.085
N  N187  1  0.57755824  0.76553872  0.70568288  1  -1.22507  0.097241  -0.352145  -0.20593  0.065259  3.66127  0.085
N  N188  1  0.07755486  0.73448263  0.20567805  1  -1.225117  0.097209  -0.352236  -0.206096  0.065236  3.661409  0.085
N  N189  1  0.42243879  0.23444581  0.29433000  1  -1.224785  0.097232  -0.352325  -0.206345  0.065253  3.661246  0.085
N  N190  1  0.67882822  0.22504090  0.53247910  1  -0.58758  0.009379  -0.202511  -0.237729  0.005374  3.168296  0.007
N  N191  1  0.82122165  0.72505691  0.96750454  1  -0.587484  0.009379  -0.20252  -0.237595  0.005374  3.168406  0.007
N  N192  1  0.32120250  0.77496885  0.46751521  1  -0.587074  0.009379  -0.202404  -0.237605  0.005375  3.168049  0.007
N  N193  1  0.17879835  0.27493989  0.03249577  1  -0.587692  0.00938  -0.202505  -0.237483  0.005374  3.168249  0.007
N  N194  1  0.60967314  0.17256412  0.49296878  1  -0.186358  0.059632  -0.131689  -0.038664  0.042254  3.575629  0.055
N  N195  1  0.89038039  0.67258018  0.00701361  1  -0.186174  0.059624  -0.13178  -0.038902  0.04225  3.576255  0.055
N  N196  1  0.39036447  0.82744086  0.50702323  1  -0.186613  0.059613  -0.13189  -0.039062  0.042241  3.575729  0.055
N  N197  1  0.10964114  0.32741867  0.99298740  1  -0.186416  0.059617  -0.131775  -0.038997  0.042247  3.57615  0.055
N  N198  1  0.59892550  0.09549916  0.53712827  1  -0.181207  0.083989  -0.13258  -0.020777  0.058896  3.611674  0.076
N  N199  1  0.90112042  0.59551118  0.96286199  1  -0.182253  0.08401  -0.132753  -0.021049  0.058904  3.612096  0.076
N  N200  1  0.40110980  0.90450787  0.46286685  1  -0.181666  0.084009  -0.132567  -0.020741  0.058906  3.611763  0.076
N  N201  1  0.09890645  0.40448767  0.03714112  1  -0.181708  0.084  -0.132594  -0.020831  0.058897  3.611912  0.076
N  N202  1  0.65963979  0.09562318  0.60622060  1  -0.596245  0.007251  -0.200575  -0.229581  0.003688  3.15626  0.005
N  N203  1  0.84040230  0.59563193  0.89377080  1  -0.594766  0.007241  -0.200423  -0.229354  0.003687  3.155211  0.005
N  N204  1  0.34039092  0.90439271  0.39377500  1  -0.595545  0.007243  -0.200553  -0.229626  0.003685  3.155468  0.005
N  N205  1  0.15962763  0.40436419  0.10623051  1  -0.595725  0.007244  -0.200506  -0.229532  0.003686  3.155696  0.005
N  N206  1  0.12879039  0.22415456  0.83676638  1  -1.216501  0.085103  -0.348324  -0.222112  0.057319  3.626991  0.075
N  N207  1  0.37120490  0.72416575  0.66323690  1  -1.216849  0.085089  -0.348279  -0.222099  0.057308  3.627029  0.075
N  N208  1  0.87121587  0.77585451  0.16322577  1  -1.216832  0.085105  -0.348202  -0.221836  0.057323  3.627105  0.075
N  N209  1  0.62879065  0.27584195  0.33675613  1  -1.216796  0.085095  -0.348444  -0.222375  0.057311  3.62725  0.075
N  N210  1  0.37888458  0.08224158  0.63649796  1  -0.61111  0.004813  -0.206006  -0.238395  0.002273  3.198298  0.003
N  N211  1  0.12113366  0.58223688  0.86350669  1  -0.610871  0.004814  -0.206039  -0.23832  0.002274  3.198391  0.003
N  N212  1  0.62112700  0.91776476  0.36350332  1  -0.610656  0.004817  -0.206004  -0.238377  0.002276  3.198423  0.003
N  N213  1  0.87887182  0.41777083  0.13648798  1  -0.61066  0.004813  -0.206011  -0.238386  0.002273  3.198548  0.003
N  N214  1  0.43264457  0.01078744  0.61345324  1  -0.195304  0.088505  -0.12955  -0.032625  0.062133  3.617848  0.08
N  N215  1  0.06738133  0.51078011  0.88655452  1  -0.195336  0.088519  -0.12935  -0.032354  0.062143  3.617783  0.08
N  N216  1  0.56737388  0.98921890  0.38655340  1  -0.195356  0.088528  -0.12943  -0.032441  0.062151  3.617986  0.08
N  N217  1  0.93263713  0.48922419  0.11344892  1  -0.19515  0.088515  -0.129538  -0.03266  0.062141  3.617754  0.08
N  N218  1  0.42573274  0.94287360  0.66968979  1  -0.162585  0.001212  -0.111781  -0.093082  -0.000429  3.41722  0.003
N  N219  1  0.07429455  0.44286976  0.83031760  1  -0.162332  0.001212  -0.111875  -0.093226  -0.000429  3.417229  0.003
N  N220  1  0.57428266  0.05713138  0.33031546  1  -0.162712  0.001213  -0.111849  -0.093182  -0.000429  3.41726  0.003
N  N221  1  0.92572467  0.55713454  0.16968843  1  -0.162847  0.001214  -0.111754  -0.093041  -0.000429  3.416956  0.003
N  N222  1  0.36594357  0.96963773  0.73163023  1  -0.646415  0.007687  -0.21107  -0.25622  0.004534  3.20618  0.006
N  N223  1  0.13407732  0.46964045  0.76837403  1  -0.646496  0.007689  -0.211087  -0.256168  0.004535  3.206314  0.006
N  N224  1  0.63406420  0.03036520  0.26837091  1  -0.646538  0.007688  -0.211091  -0.256146  0.004535  3.206108  0.006
N  N225  1  0.86592816  0.53036794  0.23162511  1  -0.646517  0.00769  -0.211178  -0.256299  0.004536  3.206137  0.006
N  N226  1  0.40740837  0.13054210  0.44467123  1  -0.296524  0.092888  -0.334698  -0.554925  0.062676  3.163661  0.081
N  N227  1  0.09263229  0.63053942  0.05533923  1  -0.298983  0.092977  -0.334643  -0.555092  0.062694  3.163638  0.081
N  N228  1  0.59263834  0.86944174  0.55534985  1  -0.298987  0.093058  -0.334839  -0.555253  0.062755  3.1624  0.081
N  N229  1  0.90739074  0.36947375  0.94467077  1  -0.297985  0.092954  -0.334693  -0.555189  0.062701  3.163265  0.081
N  N230  1  0.31852880  0.13563301  0.42084215  1  -0.317014  0.000867  0.082664  0.43096  -0.008777  4.459495  -0.012
N  N231  1  0.18150019  0.63559175  0.07922527  1  -0.314217  0.000821  0.08284  0.43135  -0.008777  4.460063  -0.012
N  N232  1  0.68152390  0.86438697  0.57922766  1  -0.314099  0.000851  0.083022  0.43147  -0.008748  4.459784  -0.012
N  N233  1  0.81851899  0.36441323  0.92079735  1  -0.315522  0.000856  0.082707  0.431285  -0.008775  4.460153  -0.012
N  N234  1  0.23198821  0.13978981  0.40000205  1  0.006537  0.121238  -0.196707  -0.374027  0.077833  2.486541  0.086
N  N235  1  0.26801917  0.63971891  0.10012646  1  0.006578  0.121227  -0.196874  -0.374277  0.077829  2.487102  0.086
N  N236  1  0.76803305  0.86026971  0.60010492  1  0.006262  0.121091  -0.196828  -0.374224  0.077737  2.488014  0.086
N  N237  1  0.73199691  0.36027652  0.89990882  1  0.006734  0.121228  -0.196735  -0.374117  0.077836  2.487578  0.086
N  N238  1  0.50698851  0.35560628  0.63378337  1  -1.217584  3.1e-05  -0.290709  0.0181  3.8e-05  3.721375  0.0
N  N239  1  0.99303700  0.85563533  0.86619899  1  -1.218333  3.1e-05  -0.290647  0.018151  3.8e-05  3.721714  0.0
N  N240  1  0.49301623  0.64436257  0.36620489  1  -1.218361  3.1e-05  -0.29076  0.018085  3.8e-05  3.721784  0.0
N  N241  1  0.00696160  0.14436965  0.13379544  1  -1.21803  3.1e-05  -0.290625  0.018035  3.8e-05  3.721803  0.0
O  O242  1  0.45736704  0.36890549  0.49153538  1  -1.176661  0.000316  -0.315353  -0.486273  -5.4e-05  2.253252  0.001
O  O243  1  0.04266650  0.86894413  0.00844240  1  -1.177638  0.000315  -0.315093  -0.486053  -5.4e-05  2.253614  0.001
O  O244  1  0.54263694  0.63105449  0.50845093  1  -1.177613  0.000317  -0.315177  -0.486123  -5.3e-05  2.253258  0.001
O  O245  1  0.95732368  0.13105881  0.99155491  1  -1.177329  0.000315  -0.315092  -0.486011  -5.4e-05  2.253588  0.001
