# generated using pymatgen
data_MoH12C15S2N2O3
_symmetry_space_group_name_H-M   'P 1'
_cell_length_a   7.81292768
_cell_length_b   13.39934022
_cell_length_c   16.41700000
_cell_angle_alpha   111.52563935
_cell_angle_beta   90.00000000
_cell_angle_gamma   90.00000000
_symmetry_Int_Tables_number   1
_chemical_formula_structural   MoH12C15S2N2O3
_chemical_formula_sum   'Mo4 H48 C60 S8 N8 O12'
_cell_volume   1598.79328276
_cell_formula_units_Z   4
loop_
 _symmetry_equiv_pos_site_id
 _symmetry_equiv_pos_as_xyz
  1  'x, y, z'
loop_
 _atom_site_type_symbol
 _atom_site_label
 _atom_site_symmetry_multiplicity
 _atom_site_fract_x
 _atom_site_fract_y
 _atom_site_fract_z
 _atom_site_occupancy
 _atom_site_hle17_bader_spin_density
 _atom_site_hle17_ddec_charge
 _atom_site_hle17_ddec_spin_density
 _atom_site_hle17_ddec_sum_bond_order
 _atom_site_hle17_magmom
 _atom_site_hse06_10hf_bader_spin_density
 _atom_site_hse06_10hf_ddec_charge
 _atom_site_hse06_10hf_ddec_spin_density
 _atom_site_hse06_10hf_ddec_sum_bond_order
 _atom_site_hse06_10hf_magmom
 _atom_site_hse06_bader_spin_density
 _atom_site_hse06_ddec_charge
 _atom_site_hse06_ddec_spin_density
 _atom_site_hse06_ddec_sum_bond_order
 _atom_site_hse06_magmom
 _atom_site_pbe_bader_charge
 _atom_site_pbe_bader_spin_density
 _atom_site_pbe_cm5_charge
 _atom_site_pbe_ddec_charge
 _atom_site_pbe_ddec_spin_density
 _atom_site_pbe_ddec_sum_bond_order
 _atom_site_pbe_magmom
Mo  Mo0  1  0.53757441  0.75948536  0.00043395  1  0  1.879059  0  4.160697  0  0  1.871718  0  4.696627  0  0  1.971933  0  4.664343  0  2.442824  0  1.472591  1.805  0  4.717579  0
Mo  Mo1  1  0.96242539  0.25948387  0.00043432  1  0  1.879012  0  4.160704  0  0  1.871721  0  4.696577  0  0  1.971938  0  4.664293  0  2.442851  0  1.472604  1.80499  0  4.717571  0
Mo  Mo2  1  0.46242589  0.24051362  0.99956593  1  0  1.879038  0  4.160686  0  0  1.871731  0  4.696565  0  0  1.97196  0  4.66425  0  2.442847  0  1.472616  1.805012  0  4.717524  0
Mo  Mo3  1  0.03757490  0.74051511  0.99956617  1  0  1.879109  0  4.160735  0  0  1.871765  0  4.696644  0  0  1.971978  0  4.664365  0  2.442781  0  1.472639  1.805032  0  4.717641  0
H  H4  1  0.62432422  0.59973368  0.71411235  1  0  0.110054  0  0.941222  0  0  0.123381  0  0.996799  0  0  0.127212  0  0.994705  0  0.065859  0  0.105445  0.120619  0  0.998462  0
H  H5  1  0.87566790  0.09973620  0.71411332  1  0  0.110027  0  0.941256  0  0  0.123355  0  0.996838  0  0  0.127185  0  0.994746  0  0.065838  0  0.105435  0.120595  0  0.998499  0
H  H6  1  0.37567351  0.40026530  0.28588814  1  0  0.110014  0  0.94123  0  0  0.123345  0  0.996811  0  0  0.127175  0  0.994719  0  0.065834  0  0.10543  0.120585  0  0.998473  0
H  H7  1  0.12432727  0.90026680  0.28588715  1  0  0.110032  0  0.941255  0  0  0.123355  0  0.996849  0  0  0.127188  0  0.994748  0  0.065889  0  0.10543  0.120592  0  0.998511  0
H  H8  1  0.71538612  0.41299717  0.62141324  1  0  0.086836  0  0.949883  0  0  0.099771  0  1.008006  0  0  0.102166  0  1.006755  0  0.089092  0  0.101762  0.098035  0  1.008891  0
H  H9  1  0.78460985  0.91299786  0.62141141  1  0  0.08673  0  0.949904  0  0  0.099683  0  1.008012  0  0  0.102081  0  1.006764  0  0.089094  0  0.10173  0.097944  0  1.0089  0
H  H10  1  0.28461546  0.58700341  0.37858773  1  0  0.08678  0  0.949878  0  0  0.099716  0  1.008006  0  0  0.102106  0  1.006768  0  0.089086  0  0.101738  0.097979  0  1.008892  0
H  H11  1  0.21538661  0.08700432  0.37858760  1  0  0.08675  0  0.949877  0  0  0.099708  0  1.007982  0  0  0.102104  0  1.006728  0  0.089104  0  0.101747  0.097971  0  1.008868  0
H  H12  1  0.78446138  0.28188859  0.69151075  1  0  0.084089  0  0.970271  0  0  0.09443  0  1.036061  0  0  0.097315  0  1.035212  0  0.04539  0  0.09645  0.092273  0  1.036926  0
H  H13  1  0.71554099  0.78188848  0.69150929  1  0  0.084065  0  0.970314  0  0  0.094407  0  1.036107  0  0  0.097291  0  1.035259  0  0.045419  0  0.096432  0.092253  0  1.036964  0
H  H14  1  0.21554532  0.71811119  0.30848876  1  0  0.084058  0  0.970274  0  0  0.094396  0  1.036065  0  0  0.09728  0  1.035217  0  0.045389  0  0.096452  0.092238  0  1.03693  0
H  H15  1  0.28445675  0.21811291  0.30848827  1  0  0.084073  0  0.970279  0  0  0.094436  0  1.036039  0  0  0.097309  0  1.035203  0  0.04536  0  0.096445  0.092279  0  1.036904  0
H  H16  1  0.77353973  0.33843350  0.85350748  1  0  0.106686  0  0.952118  0  0  0.112607  0  1.019372  0  0  0.115889  0  1.017173  0  0.09067  0  0.105113  0.110227  0  1.021011  0
H  H17  1  0.72646647  0.83843098  0.85350530  1  0  0.106654  0  0.952137  0  0  0.112569  0  1.019399  0  0  0.115852  0  1.017195  0  0.090642  0  0.105119  0.110191  0  1.021035  0
H  H18  1  0.22646824  0.66156709  0.14649226  1  0  0.106632  0  0.951965  0  0  0.112588  0  1.019187  0  0  0.115871  0  1.016985  0  0.090678  0  0.105116  0.110211  0  1.020823  0
H  H19  1  0.27353511  0.16156800  0.14649275  1  0  0.106675  0  0.952159  0  0  0.112636  0  1.019355  0  0  0.115918  0  1.017158  0  0.090593  0  0.10516  0.110259  0  1.020994  0
H  H20  1  0.74513937  0.46646060  0.99213691  1  0  0.112452  0  0.942015  0  0  0.121722  0  1.004519  0  0  0.125515  0  0.997856  0  0.196212  0  0.128683  0.11895  0  1.009238  0
H  H21  1  0.75486044  0.96645969  0.99213703  1  0  0.112454  0  0.94205  0  0  0.121738  0  1.004537  0  0  0.125522  0  0.997889  0  0.19619  0  0.128685  0.118965  0  1.009256  0
H  H22  1  0.25485965  0.53353838  0.00786297  1  0  0.112431  0  0.941972  0  0  0.121717  0  1.004484  0  0  0.125512  0  0.997824  0  0.196241  0  0.128665  0.118945  0  1.009203  0
H  H23  1  0.24513858  0.03353929  0.00786224  1  0  0.112441  0  0.942084  0  0  0.121717  0  1.004572  0  0  0.125501  0  0.997925  0  0.196158  0  0.128675  0.118946  0  1.009291  0
H  H24  1  0.69118136  0.54797425  0.24035327  1  0  0.10969  0  0.944095  0  0  0.120651  0  1.010867  0  0  0.121627  0  1.011109  0  0.110657  0  0.099736  0.119998  0  1.010728  0
H  H25  1  0.80881972  0.04797516  0.24035193  1  0  0.109686  0  0.944089  0  0  0.120651  0  1.010856  0  0  0.121628  0  1.011097  0  0.110749  0  0.099732  0.119998  0  1.010716  0
H  H26  1  0.30881893  0.45202553  0.75964745  1  0  0.109691  0  0.944089  0  0  0.120655  0  1.010855  0  0  0.121631  0  1.011098  0  0.110655  0  0.099733  0.120001  0  1.010716  0
H  H27  1  0.19117289  0.95202382  0.75964734  1  0  0.109682  0  0.944092  0  0  0.120634  0  1.010905  0  0  0.121611  0  1.011148  0  0.110747  0  0.099757  0.119978  0  1.010763  0
H  H28  1  0.90343086  0.59562932  0.24006296  1  0  0.110325  0  0.936241  0  0  0.124944  0  0.996964  0  0  0.125191  0  0.997957  0  0.104332  0  0.100169  0.124823  0  0.996292  0
H  H29  1  0.59657022  0.09562862  0.24006357  1  0  0.110298  0  0.936286  0  0  0.124916  0  0.997013  0  0  0.125163  0  0.998006  0  0.104311  0  0.10016  0.124795  0  0.996341  0
H  H30  1  0.09657071  0.40436966  0.75993692  1  0  0.110318  0  0.936274  0  0  0.124939  0  0.996992  0  0  0.125186  0  0.997986  0  0.104333  0  0.100166  0.124819  0  0.996318  0
H  H31  1  0.40342880  0.90437196  0.75993740  1  0  0.110251  0  0.936297  0  0  0.124877  0  0.997041  0  0  0.125125  0  0.998036  0  0.104353  0  0.100153  0.124753  0  0.996369  0
H  H32  1  0.97823253  0.75030269  0.40896558  1  0  0.08445  0  0.963535  0  0  0.094989  0  1.027168  0  0  0.097721  0  1.026329  0  0.048007  0  0.09378  0.093093  0  1.027735  0
H  H33  1  0.52176984  0.25030280  0.40896278  1  0  0.084319  0  0.963478  0  0  0.094852  0  1.027141  0  0  0.097585  0  1.026301  0  0.047972  0  0.093715  0.092957  0  1.027707  0
H  H34  1  0.02177033  0.24969549  0.59103467  1  0  0.084483  0  0.963549  0  0  0.095014  0  1.027179  0  0  0.097748  0  1.026339  0  0.047995  0  0.093797  0.093119  0  1.027746  0
H  H35  1  0.47822918  0.74969939  0.59103684  1  0  0.084329  0  0.96349  0  0  0.094877  0  1.027137  0  0  0.09761  0  1.026297  0  0.048017  0  0.093711  0.09298  0  1.027704  0
H  H36  1  0.02226566  0.75122529  0.55836351  1  0  0.07774  0  0.993557  0  0  0.082965  0  1.065269  0  0  0.085037  0  1.065985  0  0.061361  0  0.089234  0.081512  0  1.0648  0
H  H37  1  0.47774153  0.25123101  0.55836240  1  0  0.077712  0  0.993618  0  0  0.082935  0  1.06534  0  0  0.085003  0  1.066069  0  0.061404  0  0.089245  0.081484  0  1.064866  0
H  H38  1  0.97774232  0.24876888  0.44163614  1  0  0.077684  0  0.993601  0  0  0.082931  0  1.0653  0  0  0.084999  0  1.066028  0  0.061423  0  0.089245  0.081479  0  1.064828  0
H  H39  1  0.52226261  0.74877438  0.44163879  1  0  0.077715  0  0.993609  0  0  0.082961  0  1.0653  0  0  0.08503  0  1.066026  0  0.061468  0  0.08924  0.081509  0  1.064829  0
H  H40  1  0.88060843  0.61456506  0.60478164  1  0  0.083378  0  0.95986  0  0  0.090903  0  1.027479  0  0  0.093611  0  1.02675  0  0.060006  0  0.094694  0.088991  0  1.028009  0
H  H41  1  0.61939649  0.11457400  0.60478392  1  0  0.083418  0  0.959721  0  0  0.090912  0  1.027385  0  0  0.093638  0  1.026636  0  0.059984  0  0.094688  0.088997  0  1.02792  0
H  H42  1  0.11939698  0.38542750  0.39521570  1  0  0.083367  0  0.959802  0  0  0.09088  0  1.027439  0  0  0.093606  0  1.02669  0  0.059986  0  0.094673  0.088966  0  1.027972  0
H  H43  1  0.38060764  0.88543300  0.39521836  1  0  0.083373  0  0.959844  0  0  0.090898  0  1.027457  0  0  0.093606  0  1.026727  0  0.060042  0  0.094688  0.088984  0  1.027991  0
H  H44  1  0.68823112  0.47760800  0.49992735  1  0  0.081643  0  0.955726  0  0  0.094877  0  1.012758  0  0  0.097438  0  1.011914  0  0.060068  0  0.095761  0.092941  0  1.013522  0
H  H45  1  0.81177124  0.97761271  0.49993159  1  0  0.081524  0  0.955686  0  0  0.094808  0  1.012679  0  0  0.097349  0  1.011858  0  0.059821  0  0.095754  0.092879  0  1.013433  0
H  H46  1  0.31177045  0.52238857  0.50007059  1  0  0.08164  0  0.955782  0  0  0.094872  0  1.012808  0  0  0.097425  0  1.011973  0  0.059854  0  0.095773  0.092939  0  1.013569  0
H  H47  1  0.18822778  0.02239028  0.50007010  1  0  0.081602  0  0.955738  0  0  0.094842  0  1.012767  0  0  0.097395  0  1.011931  0  0.059829  0  0.095768  0.092912  0  1.013518  0
H  H48  1  0.64470071  0.47705444  0.35012583  1  0  0.079938  0  0.990025  0  0  0.085131  0  1.064962  0  0  0.08773  0  1.064402  0  0.07514  0  0.09002  0.083341  0  1.065315  0
H  H49  1  0.85529910  0.97705434  0.35012863  1  0  0.080013  0  0.990042  0  0  0.085205  0  1.064975  0  0  0.087803  0  1.064418  0  0.075134  0  0.090042  0.083414  0  1.06533  0
H  H50  1  0.35529831  0.52294453  0.64987344  1  0  0.079979  0  0.989999  0  0  0.085163  0  1.064941  0  0  0.087762  0  1.064382  0  0.075166  0  0.09004  0.083373  0  1.065293  0
H  H51  1  0.14469608  0.02294625  0.64987295  1  0  0.079974  0  0.990021  0  0  0.085203  0  1.064925  0  0  0.087803  0  1.064365  0  0.075104  0  0.090053  0.083412  0  1.065279  0
C  C52  1  0.68886981  0.49961882  0.87560470  1  0  -0.083491  0  3.779279  0  0  -0.071719  0  4.027172  0  0  -0.084713  0  4.051641  0  0.01355  0  -0.022672  -0.063465  0  4.010827  0
C  C53  1  0.81113128  0.99961791  0.87560361  1  0  -0.083533  0  3.779322  0  0  -0.071756  0  4.027215  0  0  -0.084742  0  4.051683  0  0.013534  0  -0.022706  -0.063504  0  4.010866  0
C  C54  1  0.31113561  0.50037936  0.12439493  1  0  -0.083356  0  3.779007  0  0  -0.07156  0  4.026941  0  0  -0.084542  0  4.051412  0  0.013586  0  -0.022662  -0.06331  0  4.010592  0
C  C55  1  0.18886646  0.00038188  0.12439590  1  0  -0.083529  0  3.779288  0  0  -0.071722  0  4.02719  0  0  -0.08471  0  4.051654  0  0.013525  0  -0.022706  -0.063468  0  4.010846  0
C  C56  1  0.64465335  0.57251299  0.83448457  1  0  0.333448  0  3.806789  0  0  0.320491  0  4.070014  0  0  0.338728  0  4.08291  0  0.584688  0  0.092988  0.308306  0  4.061158  0
C  C57  1  0.85534518  0.07251229  0.83448640  1  0  0.333365  0  3.806965  0  0  0.320431  0  4.070197  0  0  0.338667  0  4.083094  0  0.584675  0  0.092998  0.308255  0  4.061327  0
C  C58  1  0.35534823  0.42748519  0.16551568  1  0  0.333458  0  3.806711  0  0  0.32048  0  4.069996  0  0  0.338714  0  4.082893  0  0.58468  0  0.093013  0.308299  0  4.061132  0
C  C59  1  0.14465256  0.92748909  0.16551419  1  0  0.333527  0  3.806821  0  0  0.320476  0  4.07015  0  0  0.338722  0  4.083034  0  0.584671  0  0.093053  0.308289  0  4.061293  0
C  C60  1  0.65621240  0.54088869  0.74321032  1  0  -0.191338  0  3.731834  0  0  -0.210423  0  3.982695  0  0  -0.218563  0  3.999753  0  -0.06369  0  -0.101495  -0.20528  0  3.971361  0
C  C61  1  0.84378357  0.04089040  0.74321044  1  0  -0.191291  0  3.731939  0  0  -0.210385  0  3.982809  0  0  -0.218525  0  3.999869  0  -0.063677  0  -0.101495  -0.205245  0  3.971469  0
C  C62  1  0.34378790  0.45911029  0.25679017  1  0  -0.191261  0  3.731853  0  0  -0.210346  0  3.98273  0  0  -0.218486  0  3.99979  0  -0.063729  0  -0.101472  -0.205205  0  3.971392  0
C  C63  1  0.15621161  0.95911259  0.25679003  1  0  -0.191334  0  3.73191  0  0  -0.210403  0  3.982809  0  0  -0.218547  0  3.999868  0  -0.063723  0  -0.101493  -0.205258  0  3.971472  0
C  C64  1  0.70695650  0.43711713  0.69233147  1  0  -0.022165  0  3.761918  0  0  -0.038595  0  4.014363  0  0  -0.033846  0  4.032403  0  -0.042661  0  -0.080716  -0.041426  0  4.002021  0
C  C65  1  0.79304203  0.93711942  0.69233317  1  0  -0.022013  0  3.761985  0  0  -0.038438  0  4.014392  0  0  -0.033693  0  4.032439  0  -0.042638  0  -0.080668  -0.041269  0  4.002048  0
C  C66  1  0.29304636  0.56288105  0.30766816  1  0  -0.022155  0  3.761842  0  0  -0.038576  0  4.014281  0  0  -0.033826  0  4.032319  0  -0.042648  0  -0.080705  -0.041406  0  4.001937  0
C  C67  1  0.20695443  0.06288357  0.30766669  1  0  -0.021993  0  3.761981  0  0  -0.038429  0  4.014399  0  0  -0.033679  0  4.032439  0  -0.042587  0  -0.08067  -0.04126  0  4.002055  0
C  C68  1  0.74753284  0.36346241  0.73179362  1  0  -0.101428  0  3.796554  0  0  -0.121795  0  4.06012  0  0  -0.127618  0  4.081668  0  0.087948  0  -0.101971  -0.11813  0  4.045661  0
C  C69  1  0.75246697  0.86346070  0.73179168  1  0  -0.10151  0  3.796548  0  0  -0.121889  0  4.060126  0  0  -0.127712  0  4.081674  0  0.087906  0  -0.101985  -0.118223  0  4.045666  0
C  C70  1  0.25247258  0.63653897  0.26820576  1  0  -0.101292  0  3.796447  0  0  -0.121657  0  4.060011  0  0  -0.12748  0  4.08156  0  0.087995  0  -0.101935  -0.117993  0  4.04555  0
C  C71  1  0.24752949  0.13654069  0.26820770  1  0  -0.10148  0  3.796361  0  0  -0.121873  0  4.059964  0  0  -0.127686  0  4.081515  0  0.08794  0  -0.101985  -0.118208  0  4.045504  0
C  C72  1  0.74008109  0.39484844  0.82218760  1  0  -0.044443  0  3.685078  0  0  -0.06829  0  3.938395  0  0  -0.064963  0  3.957678  0  -0.09761  0  -0.073437  -0.070118  0  3.925173  0
C  C73  1  0.75992128  0.89484673  0.82218870  1  0  -0.044355  0  3.685016  0  0  -0.068191  0  3.938316  0  0  -0.064874  0  3.957616  0  -0.097587  0  -0.07344  -0.070021  0  3.925097  0
C  C74  1  0.25992689  0.60515134  0.17781374  1  0  -0.044612  0  3.684981  0  0  -0.068483  0  3.938315  0  0  -0.065167  0  3.957611  0  -0.097578  0  -0.07353  -0.07031  0  3.925092  0
C  C75  1  0.24007646  0.10515386  0.17780983  1  0  -0.044451  0  3.684925  0  0  -0.068336  0  3.938247  0  0  -0.065016  0  3.957533  0  -0.09757  0  -0.073508  -0.070167  0  3.925026  0
C  C76  1  0.69388073  0.52695824  0.96873883  1  0  0.178181  0  3.595233  0  0  0.130456  0  3.868232  0  0  0.152656  0  3.87111  0  0.512874  0  0.082137  0.116001  0  3.86608  0
C  C77  1  0.80611779  0.02695595  0.96873775  1  0  0.178206  0  3.595138  0  0  0.13046  0  3.868138  0  0  0.152653  0  3.871037  0  0.512808  0  0.082156  0.116006  0  3.865986  0
C  C78  1  0.30612212  0.47303913  0.03126056  1  0  0.178222  0  3.595318  0  0  0.130421  0  3.868398  0  0  0.152602  0  3.8713  0  0.512835  0  0.082171  0.115967  0  3.866246  0
C  C79  1  0.19388123  0.97304544  0.03126224  1  0  0.178203  0  3.595118  0  0  0.130477  0  3.868096  0  0  0.152671  0  3.870995  0  0.512801  0  0.082158  0.116021  0  3.865946  0
C  C80  1  0.65993059  0.71751592  0.17327425  1  0  0.162407  0  3.856485  0  0  0.158031  0  4.173659  0  0  0.175707  0  4.182585  0  0.407131  0  0.122785  0.145964  0  4.167  0
C  C81  1  0.84006537  0.21751603  0.17327510  1  0  0.162341  0  3.856618  0  0  0.157953  0  4.173841  0  0  0.175627  0  4.182769  0  0.407595  0  0.122765  0.145889  0  4.167174  0
C  C82  1  0.34007098  0.28248226  0.82672478  1  0  0.162315  0  3.856564  0  0  0.157949  0  4.173744  0  0  0.175619  0  4.182677  0  0.407096  0  0.122717  0.145883  0  4.16708  0
C  C83  1  0.15993108  0.78248376  0.82672502  1  0  0.162385  0  3.856601  0  0  0.15803  0  4.173748  0  0  0.175702  0  4.182677  0  0.407128  0  0.122753  0.145966  0  4.167084  0
C  C84  1  0.78289090  0.61002427  0.27710030  1  0  -0.185198  0  3.658655  0  0  -0.226197  0  3.906746  0  0  -0.224119  0  3.916302  0  -0.143165  0  -0.142843  -0.227643  0  3.900183  0
C  C85  1  0.71711018  0.11002358  0.27709848  1  0  -0.185146  0  3.658755  0  0  -0.226178  0  3.906819  0  0  -0.224101  0  3.916376  0  -0.143516  0  -0.142844  -0.227613  0  3.900255  0
C  C86  1  0.21710939  0.38997471  0.72290079  1  0  -0.185262  0  3.658698  0  0  -0.226273  0  3.906785  0  0  -0.224196  0  3.916343  0  -0.14342  0  -0.142871  -0.227712  0  3.900213  0
C  C87  1  0.28288243  0.88997460  0.72289933  1  0  -0.185099  0  3.658637  0  0  -0.226194  0  3.906885  0  0  -0.224126  0  3.916457  0  -0.143492  0  -0.142883  -0.227618  0  3.900301  0
C  C88  1  0.80796729  0.61326540  0.36892858  1  0  0.094212  0  3.760664  0  0  0.118802  0  3.991297  0  0  0.118596  0  4.015586  0  -0.052854  0  -0.017451  0.118969  0  3.974838  0
C  C89  1  0.69203380  0.11326712  0.36892870  1  0  0.094  0  3.760759  0  0  0.118675  0  3.99127  0  0  0.118471  0  4.015558  0  -0.052599  0  -0.017513  0.118818  0  3.974843  0
C  C90  1  0.19203685  0.38673598  0.63107141  1  0  0.094231  0  3.760551  0  0  0.118852  0  3.991135  0  0  0.118647  0  4.015424  0  -0.052664  0  -0.017435  0.119018  0  3.974676  0
C  C91  1  0.30796138  0.88673587  0.63107116  1  0  0.094152  0  3.760696  0  0  0.118787  0  3.991287  0  0  0.118585  0  4.015578  0  -0.052199  0  -0.01746  0.118933  0  3.974849  0
C  C92  1  0.91388277  0.69043482  0.42866786  1  0  -0.128534  0  3.745492  0  0  -0.145638  0  3.984263  0  0  -0.149013  0  4.006272  0  -0.032471  0  -0.097801  -0.143278  0  3.969277  0
C  C93  1  0.58612343  0.19043413  0.42866665  1  0  -0.128294  0  3.745531  0  0  -0.145398  0  3.984259  0  0  -0.148776  0  4.006274  0  -0.032695  0  -0.097662  -0.14303  0  3.969276  0
C  C94  1  0.08611881  0.30956175  0.57133129  1  0  -0.128532  0  3.745432  0  0  -0.145627  0  3.984216  0  0  -0.149004  0  4.006227  0  -0.03302  0  -0.097768  -0.143267  0  3.969231  0
C  C95  1  0.41387814  0.80956646  0.57133310  1  0  -0.128293  0  3.745383  0  0  -0.145396  0  3.984119  0  0  -0.148772  0  4.006131  0  -0.033114  0  -0.097657  -0.14303  0  3.969137  0
C  C96  1  0.93836399  0.69133335  0.51310763  1  0  -0.072652  0  3.791298  0  0  -0.081554  0  4.036329  0  0  -0.08382  0  4.059553  0  -0.061858  0  -0.096718  -0.079911  0  4.020478  0
C  C97  1  0.56163837  0.19134068  0.51310821  1  0  -0.072568  0  3.791105  0  0  -0.081496  0  4.036149  0  0  -0.083765  0  4.059377  0  -0.061896  0  -0.096718  -0.079854  0  4.020298  0
C  C98  1  0.06164143  0.30866162  0.48689288  1  0  -0.072587  0  3.791269  0  0  -0.081534  0  4.036321  0  0  -0.083804  0  4.05955  0  -0.061606  0  -0.09677  -0.079891  0  4.020469  0
C  C99  1  0.43836064  0.80866552  0.48689322  1  0  -0.072626  0  3.791266  0  0  -0.081555  0  4.036299  0  0  -0.083822  0  4.05952  0  -0.061914  0  -0.096729  -0.079912  0  4.020448  0
C  C100  1  0.85745322  0.61502235  0.53935972  1  0  -0.078698  0  3.78775  0  0  -0.092878  0  4.034567  0  0  -0.095529  0  4.057483  0  -0.046935  0  -0.09616  -0.090953  0  4.018841  0
C  C101  1  0.64255426  0.11502487  0.53936068  1  0  -0.078746  0  3.787455  0  0  -0.092896  0  4.034303  0  0  -0.09556  0  4.057205  0  -0.046758  0  -0.096159  -0.090971  0  4.01858  0
C  C102  1  0.14255092  0.38497342  0.46063981  1  0  -0.078658  0  3.787456  0  0  -0.092815  0  4.034271  0  0  -0.09548  0  4.057176  0  -0.046848  0  -0.096096  -0.090889  0  4.018545  0
C  C103  1  0.35744987  0.88497812  0.46064100  1  0  -0.078753  0  3.787851  0  0  -0.09293  0  4.034674  0  0  -0.09558  0  4.057587  0  -0.046982  0  -0.096173  -0.091006  0  4.01895  0
C  C104  1  0.75090417  0.53834873  0.48066128  1  0  -0.072909  0  3.79659  0  0  -0.082579  0  4.039104  0  0  -0.08471  0  4.06192  0  -0.069389  0  -0.095981  -0.080939  0  4.02349  0
C  C105  1  0.74909563  0.03835687  0.48066576  1  0  -0.072826  0  3.796582  0  0  -0.082535  0  4.039116  0  0  -0.084653  0  4.061945  0  -0.069288  0  -0.096015  -0.0809  0  4.023496  0
C  C106  1  0.24909996  0.46164944  0.51933714  1  0  -0.072951  0  3.796575  0  0  -0.082617  0  4.039092  0  0  -0.084741  0  4.061914  0  -0.069269  0  -0.096047  -0.080981  0  4.023475  0
C  C107  1  0.25090082  0.96164933  0.51933628  1  0  -0.072813  0  3.79672  0  0  -0.082491  0  4.03924  0  0  -0.084616  0  4.062059  0  -0.069297  0  -0.096002  -0.080853  0  4.023624  0
C  C108  1  0.72619769  0.53774062  0.39619337  1  0  -0.125336  0  3.753543  0  0  -0.14462  0  3.997563  0  0  -0.148091  0  4.020297  0  -0.027188  0  -0.097206  -0.142167  0  3.981988  0
C  C109  1  0.77380852  0.03773913  0.39619435  1  0  -0.12537  0  3.75341  0  0  -0.144684  0  3.997416  0  0  -0.148152  0  4.020143  0  -0.027161  0  -0.097211  -0.142226  0  3.981853  0
C  C110  1  0.27380389  0.46225675  0.60380603  1  0  -0.125373  0  3.753658  0  0  -0.144658  0  3.997666  0  0  -0.148129  0  4.020398  0  -0.027211  0  -0.097203  -0.142205  0  3.982092  0
C  C111  1  0.22619178  0.96225985  0.60380675  1  0  -0.125438  0  3.753642  0  0  -0.144764  0  3.997655  0  0  -0.148234  0  4.020389  0  -0.027193  0  -0.097246  -0.142306  0  3.982087  0
S  S112  1  0.58663541  0.83201851  0.15730584  1  0  -0.278396  0  2.082768  0  0  -0.303153  0  2.423672  0  0  -0.31796  0  2.420766  0  -0.198675  0  -0.138398  -0.292924  0  2.425481  0
S  S113  1  0.91336056  0.33201943  0.15730632  1  0  -0.278401  0  2.08275  0  0  -0.30316  0  2.423657  0  0  -0.317964  0  2.42075  0  -0.198643  0  -0.138419  -0.29293  0  2.425467  0
S  S114  1  0.41336489  0.16797966  0.84269319  1  0  -0.278334  0  2.082722  0  0  -0.303088  0  2.423613  0  0  -0.317894  0  2.420706  0  -0.198715  0  -0.138386  -0.292856  0  2.42542  0
S  S115  1  0.08663718  0.66797955  0.84269416  1  0  -0.278424  0  2.082726  0  0  -0.303188  0  2.423618  0  0  -0.317992  0  2.420713  0  -0.198674  0  -0.138422  -0.292958  0  2.42543  0
S  S116  1  0.70089987  0.74011639  0.28271228  1  0  0.030321  0  2.406108  0  0  0.04633  0  2.737754  0  0  0.03561  0  2.739613  0  0.118037  0  0.048114  0.053672  0  2.736912  0
S  S117  1  0.79909610  0.24011570  0.28271106  1  0  0.0304  0  2.406226  0  0  0.046421  0  2.737875  0  0  0.035702  0  2.739738  0  0.11828  0  0.048142  0.053755  0  2.737037  0
S  S118  1  0.29910299  0.25988339  0.71728784  1  0  0.030362  0  2.406181  0  0  0.046373  0  2.73782  0  0  0.035657  0  2.739681  0  0.11828  0  0.048128  0.053708  0  2.736982  0
S  S119  1  0.20090036  0.75988408  0.71728844  1  0  0.030388  0  2.406172  0  0  0.04643  0  2.737832  0  0  0.035715  0  2.739695  0  0.118247  0  0.048171  0.05376  0  2.736992  0
N  N120  1  0.65043991  0.61878255  0.02896055  1  0  -0.277512  0  3.327123  0  0  -0.235932  0  3.62607  0  0  -0.259291  0  3.651782  0  -0.855714  0  -0.261829  -0.221012  0  3.608785  0
N  N121  1  0.84955861  0.11878266  0.02896018  1  0  -0.277483  0  3.326996  0  0  -0.235876  0  3.625915  0  0  -0.259233  0  3.651629  0  -0.855591  0  -0.261802  -0.220956  0  3.608632  0
N  N122  1  0.34956038  0.38121723  0.97104079  1  0  -0.277533  0  3.327244  0  0  -0.235893  0  3.626163  0  0  -0.259249  0  3.65188  0  -0.85573  0  -0.261806  -0.220973  0  3.608878  0
N  N123  1  0.15043784  0.88121472  0.97103799  1  0  -0.277454  0  3.326935  0  0  -0.235877  0  3.625891  0  0  -0.259234  0  3.651607  0  -0.855597  0  -0.261787  -0.220956  0  3.608611  0
N  N124  1  0.68656466  0.62390177  0.11277784  1  0  -0.22697  0  3.045952  0  0  -0.213743  0  3.340644  0  0  -0.224829  0  3.359155  0  -0.710182  0  -0.229932  -0.205542  0  3.32765  0
N  N125  1  0.81343003  0.12390268  0.11277832  1  0  -0.226968  0  3.045949  0  0  -0.213758  0  3.340653  0  0  -0.224846  0  3.359163  0  -0.710676  0  -0.229938  -0.205555  0  3.327656  0
N  N126  1  0.31343436  0.37609641  0.88722180  1  0  -0.226959  0  3.045953  0  0  -0.213762  0  3.340657  0  0  -0.224848  0  3.359167  0  -0.710096  0  -0.229925  -0.205561  0  3.327663  0
N  N127  1  0.18656515  0.87609710  0.88722119  1  0  -0.227048  0  3.046033  0  0  -0.213835  0  3.340739  0  0  -0.224919  0  3.359248  0  -0.710153  0  -0.229968  -0.205633  0  3.327745  0
O  O128  1  0.52220373  0.88806281  0.00355419  1  0  -0.575113  0  1.529076  0  0  -0.554847  0  1.773129  0  0  -0.580436  0  1.766438  0  -0.765404  0  -0.473288  -0.53814  0  1.777636  0
O  O129  1  0.97779735  0.38806372  0.00355589  1  0  -0.575119  0  1.529029  0  0  -0.554866  0  1.773078  0  0  -0.580456  0  1.766389  0  -0.765453  0  -0.4733  -0.538152  0  1.7776  0
O  O130  1  0.47779656  0.11193536  0.99644362  1  0  -0.575102  0  1.529108  0  0  -0.55485  0  1.773171  0  0  -0.580437  0  1.766467  0  -0.765438  0  -0.473295  -0.538147  0  1.777687  0
O  O131  1  0.02220550  0.61193766  0.99644653  1  0  -0.575119  0  1.529125  0  0  -0.554843  0  1.773158  0  0  -0.580436  0  1.766477  0  -0.765391  0  -0.473296  -0.53813  0  1.777681  0
O  O132  1  0.32524939  0.71713244  0.00094280  1  0  -0.793223  0  1.828987  0  0  -0.79179  0  2.133516  0  0  -0.831497  0  2.133875  0  -0.917315  0  -0.539839  -0.765484  0  2.133009  0
O  O133  1  0.17474755  0.21713094  0.00094256  1  0  -0.793208  0  1.829007  0  0  -0.791781  0  2.133525  0  0  -0.831487  0  2.133876  0  -0.917305  0  -0.539845  -0.765472  0  2.133031  0
O  O134  1  0.67474834  0.28286815  0.99905817  1  0  -0.793233  0  1.828985  0  0  -0.791809  0  2.133514  0  0  -0.831522  0  2.133876  0  -0.917294  0  -0.53985  -0.7655  0  2.133004  0
O  O135  1  0.82525018  0.78286724  0.99905646  1  0  -0.793264  0  1.828937  0  0  -0.791841  0  2.13348  0  0  -0.831548  0  2.133839  0  -0.917308  0  -0.539879  -0.765532  0  2.132985  0
O  O136  1  0.59173977  0.67247542  0.88035291  1  0  -0.547492  0  2.184363  0  0  -0.508439  0  2.4506  0  0  -0.540662  0  2.449536  0  -1.088683  0  -0.351721  -0.486292  0  2.450569  0
O  O137  1  0.90825492  0.17247393  0.88035268  1  0  -0.547395  0  2.184515  0  0  -0.508404  0  2.450792  0  0  -0.540627  0  2.449731  0  -1.088661  0  -0.351699  -0.486265  0  2.450778  0
O  O138  1  0.40825541  0.32752436  0.11964781  1  0  -0.547487  0  2.184446  0  0  -0.508456  0  2.450719  0  0  -0.54068  0  2.449653  0  -1.088725  0  -0.351698  -0.486315  0  2.450704  0
O  O139  1  0.09174154  0.82752586  0.11964744  1  0  -0.547563  0  2.184485  0  0  -0.508458  0  2.450733  0  0  -0.540684  0  2.449669  0  -1.088651  0  -0.351747  -0.48631  0  2.450714  0
