# generated using pymatgen
data_AgH11C10N3O2
_symmetry_space_group_name_H-M   'P 1'
_cell_length_a   11.18054736
_cell_length_b   11.17810946
_cell_length_c   11.68880785
_cell_angle_alpha   96.99830462
_cell_angle_beta   112.24289252
_cell_angle_gamma   118.44025512
_symmetry_Int_Tables_number   1
_chemical_formula_structural   AgH11C10N3O2
_chemical_formula_sum   'Ag4 H44 C40 N12 O8'
_cell_volume   1104.00162195
_cell_formula_units_Z   4
loop_
 _symmetry_equiv_pos_site_id
 _symmetry_equiv_pos_as_xyz
  1  'x, y, z'
loop_
 _atom_site_type_symbol
 _atom_site_label
 _atom_site_symmetry_multiplicity
 _atom_site_fract_x
 _atom_site_fract_y
 _atom_site_fract_z
 _atom_site_occupancy
 _atom_site_hle17_bader_spin_density
 _atom_site_hle17_ddec_charge
 _atom_site_hle17_ddec_spin_density
 _atom_site_hle17_ddec_sum_bond_order
 _atom_site_hle17_magmom
 _atom_site_hse06_10hf_bader_spin_density
 _atom_site_hse06_10hf_ddec_charge
 _atom_site_hse06_10hf_ddec_spin_density
 _atom_site_hse06_10hf_ddec_sum_bond_order
 _atom_site_hse06_10hf_magmom
 _atom_site_hse06_bader_spin_density
 _atom_site_hse06_ddec_charge
 _atom_site_hse06_ddec_spin_density
 _atom_site_hse06_ddec_sum_bond_order
 _atom_site_hse06_magmom
 _atom_site_pbe_bader_spin_density
 _atom_site_pbe_cm5_charge
 _atom_site_pbe_ddec_charge
 _atom_site_pbe_ddec_spin_density
 _atom_site_pbe_ddec_sum_bond_order
 _atom_site_pbe_magmom
Ag  Ag0  1  0.23845200  0.02675250  0.38426516  1  0  0.524862  0  1.436002  0  0  0.399286  0  1.865317  0  0  0.434231  0  1.81305  0  0  0.438698  0.372497  0  1.902442  0
Ag  Ag1  1  0.14264737  0.85420916  0.11552260  1  0  0.524338  0  1.437204  0  0  0.399034  0  1.866371  0  0  0.433958  0  1.814071  0  0  0.438644  0.372264  0  1.903512  0
Ag  Ag2  1  0.76154446  0.97324688  0.61573138  1  0  0.524823  0  1.436036  0  0  0.399247  0  1.865341  0  0  0.434194  0  1.81307  0  0  0.438668  0.372456  0  1.902463  0
Ag  Ag3  1  0.85734899  0.14578693  0.88447440  1  0  0.524361  0  1.437146  0  0  0.399058  0  1.866317  0  0  0.433984  0  1.814014  0  0  0.43864  0.37229  0  1.903456  0
H  H4  1  0.29285558  0.52727640  0.39646692  1  0  0.131569  0  0.956934  0  0  0.142409  0  1.017001  0  0  0.146099  0  1.017036  0  0  0.105233  0.139715  0  1.017306  0
H  H5  1  0.63111656  0.89660911  0.10358710  1  0  0.132463  0  0.954969  0  0  0.143358  0  1.01497  0  0  0.146963  0  1.015123  0  0  0.105698  0.140697  0  1.015212  0
H  H6  1  0.70714250  0.47272406  0.60352947  1  0  0.131621  0  0.956875  0  0  0.142397  0  1.017011  0  0  0.146087  0  1.017047  0  0  0.105231  0.139705  0  1.017315  0
H  H7  1  0.36888455  0.10339469  0.89641588  1  0  0.1325  0  0.955024  0  0  0.143373  0  1.015053  0  0  0.146972  0  1.015213  0  0  0.105704  0.140721  0  1.015285  0
H  H8  1  0.34040346  0.26396086  0.55582539  1  0  0.113717  0  0.99543  0  0  0.130479  0  1.06306  0  0  0.132586  0  1.061702  0  0  0.085765  0.129015  0  1.063967  0
H  H9  1  0.20856690  0.78448515  0.94410361  1  0  0.114139  0  0.995729  0  0  0.131067  0  1.063164  0  0  0.133145  0  1.061854  0  0  0.086427  0.129597  0  1.064078  0
H  H10  1  0.65959501  0.73604180  0.44417138  1  0  0.113794  0  0.995398  0  0  0.130525  0  1.063051  0  0  0.132633  0  1.061692  0  0  0.085764  0.12906  0  1.063957  0
H  H11  1  0.79143188  0.21551644  0.05589658  1  0  0.114131  0  0.995781  0  0  0.131062  0  1.063211  0  0  0.13314  0  1.061898  0  0  0.086408  0.129594  0  1.064124  0
H  H12  1  0.46862064  0.43797866  0.55753628  1  0  0.119357  0  0.965525  0  0  0.140329  0  1.027958  0  0  0.141846  0  1.028062  0  0  0.094464  0.139128  0  1.027998  0
H  H13  1  0.38071269  0.91099575  0.94224166  1  0  0.118743  0  0.966659  0  0  0.140162  0  1.028785  0  0  0.141695  0  1.028892  0  0  0.094429  0.138938  0  1.028838  0
H  H14  1  0.53137813  0.56202293  0.44246305  1  0  0.119361  0  0.965549  0  0  0.14035  0  1.027959  0  0  0.141867  0  1.028063  0  0  0.09448  0.139149  0  1.028  0
H  H15  1  0.61928837  0.08900799  0.05775531  1  0  0.118754  0  0.966709  0  0  0.140184  0  1.028809  0  0  0.141715  0  1.028917  0  0  0.09445  0.13896  0  1.028861  0
H  H16  1  0.31994050  0.41082827  0.59304073  1  0  0.120744  0  0.988217  0  0  0.139907  0  1.050669  0  0  0.139877  0  1.054449  0  0  0.092173  0.139892  0  1.048127  0
H  H17  1  0.31835160  0.72683141  0.90711290  1  0  0.120845  0  0.986936  0  0  0.139963  0  1.049534  0  0  0.139934  0  1.053315  0  0  0.092142  0.139947  0  1.046995  0
H  H18  1  0.68005608  0.58917445  0.40695964  1  0  0.120753  0  0.988235  0  0  0.139895  0  1.05071  0  0  0.139864  0  1.054491  0  0  0.092164  0.139879  0  1.048167  0
H  H19  1  0.68164938  0.27316904  0.09288539  1  0  0.120848  0  0.986971  0  0  0.139969  0  1.049562  0  0  0.139939  0  1.053341  0  0  0.092142  0.139952  0  1.047025  0
H  H20  1  0.02082479  0.40665675  0.02657569  1  0  0.105333  0  0.994515  0  0  0.12198  0  1.069904  0  0  0.124424  0  1.067418  0  0  0.084096  0.120042  0  1.072052  0
H  H21  1  0.88017021  0.99461972  0.47362660  1  0  0.105744  0  0.994513  0  0  0.122967  0  1.068982  0  0  0.125435  0  1.066464  0  0  0.084279  0.121028  0  1.071129  0
H  H22  1  0.97917332  0.59334375  0.97342414  1  0  0.105384  0  0.994519  0  0  0.122027  0  1.069899  0  0  0.124477  0  1.06741  0  0  0.084116  0.120092  0  1.072045  0
H  H23  1  0.11982845  0.00537853  0.52636976  1  0  0.105748  0  0.994453  0  0  0.122987  0  1.068913  0  0  0.125461  0  1.066387  0  0  0.084281  0.121045  0  1.071061  0
H  H24  1  0.08150964  0.53052736  0.18109204  1  0  0.123808  0  0.934616  0  0  0.146718  0  0.99198  0  0  0.148274  0  0.991973  0  0  0.098098  0.145363  0  0.992368  0
H  H25  1  0.84954424  0.90079659  0.31907978  1  0  0.124736  0  0.934195  0  0  0.147614  0  0.991486  0  0  0.149211  0  0.99142  0  0  0.098165  0.146207  0  0.991953  0
H  H26  1  0.91848605  0.46946765  0.81890545  1  0  0.123795  0  0.934662  0  0  0.146723  0  0.991999  0  0  0.148281  0  0.991992  0  0  0.098089  0.14537  0  0.992384  0
H  H27  1  0.15045414  0.09920278  0.68091745  1  0  0.124701  0  0.934179  0  0  0.147573  0  0.991486  0  0  0.149169  0  0.991421  0  0  0.098148  0.146168  0  0.991948  0
H  H28  1  0.22333413  0.54403443  0.14065223  1  0  0.135556  0  0.924973  0  0  0.159053  0  0.97602  0  0  0.161105  0  0.975851  0  0  0.101861  0.157562  0  0.976181  0
H  H29  1  0.90350583  0.08307230  0.35939444  1  0  0.137123  0  0.923208  0  0  0.160561  0  0.974393  0  0  0.162649  0  0.974188  0  0  0.102101  0.159058  0  0.974557  0
H  H30  1  0.77665973  0.45596387  0.85934325  1  0  0.135564  0  0.924958  0  0  0.159046  0  0.976017  0  0  0.161098  0  0.975848  0  0  0.101868  0.157556  0  0.976175  0
H  H31  1  0.09649737  0.91692705  0.64060625  1  0  0.137128  0  0.923193  0  0  0.16058  0  0.974368  0  0  0.162666  0  0.974165  0  0  0.102112  0.159076  0  0.97453  0
H  H32  1  0.96989494  0.56368007  0.42689591  1  0  0.100277  0  0.955099  0  0  0.109783  0  1.017672  0  0  0.112944  0  1.015938  0  0  0.103193  0.107194  0  1.019543  0
H  H33  1  0.63652994  0.54318903  0.07246260  1  0  0.099274  0  0.956844  0  0  0.108969  0  1.019448  0  0  0.112063  0  1.017826  0  0  0.102633  0.106393  0  1.021304  0
H  H34  1  0.03011033  0.43632264  0.57311188  1  0  0.100284  0  0.955091  0  0  0.109765  0  1.017701  0  0  0.112925  0  1.015968  0  0  0.103182  0.107178  0  1.019572  0
H  H35  1  0.36347281  0.45680486  0.92754075  1  0  0.099222  0  0.956866  0  0  0.108944  0  1.01944  0  0  0.112036  0  1.017818  0  0  0.10263  0.106384  0  1.021276  0
H  H36  1  0.75015836  0.34169751  0.42571138  1  0  0.102528  0  0.944625  0  0  0.113882  0  1.002949  0  0  0.117579  0  1.000588  0  0  0.105485  0.110818  0  1.005486  0
H  H37  1  0.41564188  0.32495790  0.07388027  1  0  0.104222  0  0.945857  0  0  0.11552  0  1.004004  0  0  0.119282  0  1.001537  0  0  0.105756  0.112408  0  1.006585  0
H  H38  1  0.24984239  0.65830413  0.57429465  1  0  0.102549  0  0.944697  0  0  0.113908  0  1.003001  0  0  0.117605  0  1.000641  0  0  0.105516  0.110846  0  1.005536  0
H  H39  1  0.58436094  0.67503926  0.92612089  1  0  0.10425  0  0.945933  0  0  0.115551  0  1.004045  0  0  0.119315  0  1.00158  0  0  0.105786  0.11244  0  1.006619  0
H  H40  1  0.84794419  0.94352555  0.01351964  1  0  0.357748  0  0.923561  0  0  0.336234  0  0.990172  0  0  0.344992  0  0.982231  0  0  0.299843  0.329848  0  0.995971  0
H  H41  1  0.43020149  0.83467530  0.48663887  1  0  0.357929  0  0.9236  0  0  0.336063  0  0.99055  0  0  0.344874  0  0.982548  0  0  0.299981  0.329635  0  0.9964  0
H  H42  1  0.15205478  0.05647164  0.98648013  1  0  0.357741  0  0.923502  0  0  0.336228  0  0.990121  0  0  0.344986  0  0.982178  0  0  0.299844  0.329842  0  0.995921  0
H  H43  1  0.56980113  0.16532625  0.51336099  1  0  0.35792  0  0.923643  0  0  0.336061  0  0.990569  0  0  0.34487  0  0.982569  0  0  0.29998  0.329632  0  0.996419  0
H  H44  1  0.94247755  0.90444198  0.14656972  1  0  0.326816  0  0.948047  0  0  0.304615  0  1.022816  0  0  0.312937  0  1.014778  0  0  0.288575  0.298731  0  1.028524  0
H  H45  1  0.25800496  0.79578348  0.35348068  1  0  0.326749  0  0.948748  0  0  0.304456  0  1.023584  0  0  0.312781  0  1.015584  0  0  0.288639  0.29854  0  1.029323  0
H  H46  1  0.05752085  0.09555742  0.85343095  1  0  0.326767  0  0.948116  0  0  0.304589  0  1.022839  0  0  0.312906  0  1.01481  0  0  0.288559  0.298706  0  1.028555  0
H  H47  1  0.74199505  0.20421696  0.64651640  1  0  0.326761  0  0.948871  0  0  0.304468  0  1.023701  0  0  0.312793  0  1.015702  0  0  0.288661  0.298551  0  1.029437  0
C  C48  1  0.22275013  0.41178038  0.33423328  1  0  -0.355022  0  3.692145  0  0  -0.378753  0  3.939255  0  0  -0.396419  0  3.95981  0  0  -0.121932  -0.366889  0  3.925523  0
C  C49  1  0.57785765  0.88874675  0.16586264  1  0  -0.356881  0  3.691348  0  0  -0.379918  0  3.93912  0  0  -0.397526  0  3.959675  0  0  -0.122384  -0.368059  0  3.925414  0
C  C50  1  0.77724702  0.58822013  0.66576620  1  0  -0.355041  0  3.692252  0  0  -0.378663  0  3.939399  0  0  -0.39633  0  3.959957  0  0  -0.121878  -0.366802  0  3.92567  0
C  C51  1  0.42214316  0.11125814  0.83413950  1  0  -0.35701  0  3.691457  0  0  -0.380033  0  3.939259  0  0  -0.397634  0  3.959814  0  0  -0.12243  -0.368182  0  3.925551  0
C  C52  1  0.12061478  0.36174490  0.19798217  1  0  0.388827  0  3.750092  0  0  0.390735  0  3.995062  0  0  0.407909  0  4.010562  0  0  0.133867  0.379304  0  3.98381  0
C  C53  1  0.66402783  0.92303638  0.30217241  1  0  0.390837  0  3.750052  0  0  0.391619  0  3.996193  0  0  0.408875  0  4.01157  0  0  0.133066  0.380131  0  3.985023  0
C  C54  1  0.87938551  0.63825443  0.80201403  1  0  0.388913  0  3.750139  0  0  0.390731  0  3.995212  0  0  0.407905  0  4.010713  0  0  0.133859  0.379297  0  3.983963  0
C  C55  1  0.33597588  0.07696850  0.69783163  1  0  0.390871  0  3.749994  0  0  0.391723  0  3.996058  0  0  0.408979  0  4.011431  0  0  0.133112  0.380233  0  3.984894  0
C  C56  1  0.34695546  0.35744145  0.53116266  1  0  -0.375752  0  3.676493  0  0  -0.453369  0  3.904613  0  0  -0.457408  0  3.91007  0  0  -0.245455  -0.450193  0  3.900759  0
C  C57  1  0.32669145  0.81574592  0.96879311  1  0  -0.375205  0  3.675451  0  0  -0.453045  0  3.903628  0  0  -0.457054  0  3.909123  0  0  -0.245711  -0.449868  0  3.899771  0
C  C58  1  0.65304111  0.64256125  0.46883599  1  0  -0.375869  0  3.676573  0  0  -0.453441  0  3.904722  0  0  -0.457479  0  3.910178  0  0  -0.245485  -0.450266  0  3.900869  0
C  C59  1  0.67330896  0.18425675  0.03120607  1  0  -0.375239  0  3.675617  0  0  -0.453077  0  3.903799  0  0  -0.457093  0  3.909318  0  0  -0.245701  -0.449897  0  3.899935  0
C  C60  1  0.23550562  0.31038606  0.38744669  1  0  0.392382  0  3.748094  0  0  0.391968  0  3.996819  0  0  0.409644  0  4.011593  0  0  0.131729  0.379904  0  3.986816  0
C  C61  1  0.42327887  0.84819895  0.11259872  1  0  0.392064  0  3.747001  0  0  0.390505  0  3.997243  0  0  0.408093  0  4.01218  0  0  0.131601  0.3785  0  3.987136  0
C  C62  1  0.76449344  0.68961442  0.61255176  1  0  0.392379  0  3.748169  0  0  0.391916  0  3.996952  0  0  0.409592  0  4.011725  0  0  0.131701  0.379851  0  3.986948  0
C  C63  1  0.57672288  0.15180590  0.88740033  1  0  0.39227  0  3.747004  0  0  0.390642  0  3.997332  0  0  0.408232  0  4.012263  0  0  0.131653  0.378638  0  3.987228  0
C  C64  1  0.11032675  0.46594352  0.13250882  1  0  -0.364194  0  3.675183  0  0  -0.444667  0  3.90973  0  0  -0.449041  0  3.91506  0  0  -0.236549  -0.441173  0  3.905946  0
C  C65  1  0.83362090  0.97825217  0.36766737  1  0  -0.368683  0  3.676124  0  0  -0.449172  0  3.91054  0  0  -0.45366  0  3.915732  0  0  -0.237387  -0.445625  0  3.9069  0
C  C66  1  0.88967000  0.53405477  0.86748856  1  0  -0.364292  0  3.675194  0  0  -0.444744  0  3.909776  0  0  -0.449118  0  3.915091  0  0  -0.23657  -0.441252  0  3.905991  0
C  C67  1  0.16638172  0.02174938  0.63233249  1  0  -0.368683  0  3.676013  0  0  -0.449206  0  3.910424  0  0  -0.453698  0  3.915607  0  0  -0.237388  -0.445656  0  3.906782  0
C  C68  1  0.84806688  0.50932764  0.34948648  1  0  -0.080726  0  3.739417  0  0  -0.102032  0  3.985391  0  0  -0.102795  0  4.00547  0  0  -0.085125  -0.101356  0  3.972221  0
C  C69  1  0.65940093  0.49873451  0.14995303  1  0  -0.08071  0  3.740059  0  0  -0.102175  0  3.986168  0  0  -0.102916  0  4.006341  0  0  -0.085742  -0.101512  0  3.972943  0
C  C70  1  0.15193579  0.49067397  0.65051939  1  0  -0.080764  0  3.73957  0  0  -0.10203  0  3.985547  0  0  -0.102796  0  4.00563  0  0  -0.085136  -0.101359  0  3.972382  0
C  C71  1  0.34060000  0.50126271  0.85005087  1  0  -0.080644  0  3.740014  0  0  -0.102117  0  3.986144  0  0  -0.102858  0  4.006319  0  0  -0.085759  -0.101465  0  3.972915  0
C  C72  1  0.03797952  0.12374400  0.18154386  1  0  0.65162  0  3.815576  0  0  0.605534  0  4.088035  0  0  0.633361  0  4.095735  0  0  0.343264  0.586269  0  4.082687  0
C  C73  1  0.44246258  0.85676772  0.31855857  1  0  0.651299  0  3.814514  0  0  0.604641  0  4.087202  0  0  0.63247  0  4.09494  0  0  0.343327  0.585379  0  4.081827  0
C  C74  1  0.96201944  0.87625317  0.81845420  1  0  0.65141  0  3.815903  0  0  0.605394  0  4.08828  0  0  0.633221  0  4.095982  0  0  0.343188  0.586129  0  4.082929  0
C  C75  1  0.55753453  0.14323272  0.68143490  1  0  0.65128  0  3.814647  0  0  0.604658  0  4.087297  0  0  0.632485  0  4.095039  0  0  0.343325  0.585396  0  4.081921  0
C  C76  1  0.94709203  0.69702894  0.24951530  1  0  0.62295  0  3.948856  0  0  0.569554  0  4.242768  0  0  0.603892  0  4.237363  0  0  0.195046  0.546984  0  4.244532  0
C  C77  1  0.05290766  0.30296940  0.75048913  1  0  0.623093  0  3.948632  0  0  0.569718  0  4.242519  0  0  0.604057  0  4.23711  0  0  0.195153  0.547148  0  4.244287  0
C  C78  1  0.81561831  0.56580195  0.24964854  1  0  -0.057003  0  3.753571  0  0  -0.031565  0  3.982557  0  0  -0.038526  0  4.005359  0  0  -0.016872  -0.027162  0  3.966781  0
C  C79  1  0.18438137  0.43419638  0.75035589  1  0  -0.056933  0  3.753323  0  0  -0.031539  0  3.982353  0  0  -0.038498  0  4.005155  0  0  -0.016801  -0.027137  0  3.966586  0
C  C80  1  0.57013919  0.32050937  0.24978633  1  0  -0.056724  0  3.746225  0  0  -0.033099  0  3.977033  0  0  -0.038345  0  3.997157  0  0  -0.014355  -0.029638  0  3.963048  0
C  C81  1  0.42986185  0.67949117  0.75021969  1  0  -0.056704  0  3.746093  0  0  -0.033086  0  3.976913  0  0  -0.038331  0  3.997038  0  0  -0.014336  -0.029624  0  3.962928  0
C  C82  1  0.43872184  0.18888860  0.24984788  1  0  0.654161  0  3.915837  0  0  0.599938  0  4.208836  0  0  0.634104  0  4.20321  0  0  0.203627  0.577741  0  4.20969  0
C  C83  1  0.56127743  0.81110749  0.75015187  1  0  0.654203  0  3.915874  0  0  0.599995  0  4.20885  0  0  0.634162  0  4.203219  0  0  0.203684  0.577797  0  4.209705  0
C  C84  1  0.72637189  0.38715271  0.34911820  1  0  -0.080929  0  3.742938  0  0  -0.102303  0  3.991061  0  0  -0.103177  0  4.009833  0  0  -0.083796  -0.101736  0  3.978989  0
C  C85  1  0.53754677  0.37757256  0.15047019  1  0  -0.082851  0  3.741918  0  0  -0.104258  0  3.989979  0  0  -0.10517  0  4.00866  0  0  -0.083567  -0.103641  0  3.977951  0
C  C86  1  0.27362682  0.61284562  0.65088503  1  0  -0.080953  0  3.743026  0  0  -0.10233  0  3.991143  0  0  -0.103203  0  4.009916  0  0  -0.083838  -0.101763  0  3.979074  0
C  C87  1  0.46245636  0.62242353  0.84953354  1  0  -0.082957  0  3.74213  0  0  -0.104357  0  3.990183  0  0  -0.105275  0  4.008868  0  0  -0.08362  -0.103739  0  3.978156  0
N  N88  1  0.14669403  0.16706270  0.31081110  1  0  -0.52793  0  3.120458  0  0  -0.456636  0  3.394201  0  0  -0.484978  0  3.404738  0  0  -0.347807  -0.437228  0  3.386909  0
N  N89  1  0.35654850  0.83608640  0.18924056  1  0  -0.526449  0  3.118784  0  0  -0.454482  0  3.392626  0  0  -0.482764  0  3.403211  0  0  -0.34686  -0.435099  0  3.385262  0
N  N90  1  0.85330695  0.83293775  0.68918719  1  0  -0.5279  0  3.120515  0  0  -0.456622  0  3.394258  0  0  -0.48496  0  3.40479  0  0  -0.347771  -0.43721  0  3.386959  0
N  N91  1  0.64345064  0.16391736  0.81075657  1  0  -0.526484  0  3.118838  0  0  -0.454483  0  3.392673  0  0  -0.482769  0  3.403269  0  0  -0.346823  -0.435101  0  3.385309  0
N  N92  1  0.93400434  0.98036118  0.10988257  1  0  -0.708335  0  3.114729  0  0  -0.673275  0  3.362082  0  0  -0.695807  0  3.355288  0  0  -0.578089  -0.656895  0  3.36656  0
N  N93  1  0.37072766  0.82444236  0.39027439  1  0  -0.707372  0  3.11414  0  0  -0.671816  0  3.36212  0  0  -0.694418  0  3.35525  0  0  -0.577659  -0.655356  0  3.366703  0
N  N94  1  0.06599463  0.01963601  0.89011635  1  0  -0.708176  0  3.114817  0  0  -0.673149  0  3.362127  0  0  -0.69568  0  3.355336  0  0  -0.57804  -0.656776  0  3.366607  0
N  N95  1  0.62927658  0.17556025  0.60972360  1  0  -0.707419  0  3.11426  0  0  -0.671873  0  3.362239  0  0  -0.694474  0  3.355368  0  0  -0.57772  -0.655412  0  3.36682  0
N  N96  1  0.02764017  0.21837569  0.12164077  1  0  -0.50737  0  3.057802  0  0  -0.436515  0  3.313675  0  0  -0.462858  0  3.323328  0  0  -0.339002  -0.418345  0  3.307051  0
N  N97  1  0.59697528  0.90649080  0.37852687  1  0  -0.508937  0  3.055289  0  0  -0.437169  0  3.311232  0  0  -0.463546  0  3.320884  0  0  -0.339459  -0.418971  0  3.304594  0
N  N98  1  0.97235686  0.78162149  0.87835573  1  0  -0.507327  0  3.057896  0  0  -0.436452  0  3.313753  0  0  -0.462797  0  3.323409  0  0  -0.339003  -0.418282  0  3.307127  0
N  N99  1  0.40302155  0.09351078  0.62146919  1  0  -0.508964  0  3.055323  0  0  -0.437267  0  3.311286  0  0  -0.463646  0  3.320945  0  0  -0.339521  -0.419069  0  3.304651  0
O  O100  1  0.46705248  0.16511688  0.35753200  1  0  -0.638899  0  2.06275  0  0  -0.5707  0  2.312772  0  0  -0.599999  0  2.303526  0  0  -0.323968  -0.548891  0  2.317152  0
O  O101  1  0.30734668  0.10945102  0.14222158  1  0  -0.641117  0  2.063988  0  0  -0.573103  0  2.314399  0  0  -0.60233  0  2.305  0  0  -0.325423  -0.551291  0  2.318781  0
O  O102  1  0.53294621  0.83488143  0.64246865  1  0  -0.638892  0  2.062651  0  0  -0.570716  0  2.312687  0  0  -0.600014  0  2.303441  0  0  -0.323987  -0.548908  0  2.317064  0
O  O103  1  0.69265363  0.89054834  0.85777635  1  0  -0.64115  0  2.06408  0  0  -0.57315  0  2.314493  0  0  -0.602375  0  2.305085  0  0  -0.32547  -0.551338  0  2.318877  0
O  O104  1  0.08109756  0.77158247  0.35551636  1  0  -0.636787  0  2.037476  0  0  -0.566369  0  2.280809  0  0  -0.595176  0  2.270597  0  0  -0.327797  -0.545843  0  2.287084  0
O  O105  1  0.91583545  0.72504539  0.14344825  1  0  -0.634873  0  2.03918  0  0  -0.564451  0  2.282478  0  0  -0.593288  0  2.27232  0  0  -0.326941  -0.543927  0  2.288745  0
O  O106  1  0.91890585  0.22841250  0.64448563  1  0  -0.636813  0  2.037512  0  0  -0.566399  0  2.280859  0  0  -0.595201  0  2.27063  0  0  -0.327828  -0.545872  0  2.287135  0
O  O107  1  0.08416384  0.27495074  0.85655495  1  0  -0.634984  0  2.03907  0  0  -0.564581  0  2.282363  0  0  -0.593417  0  2.272205  0  0  -0.327016  -0.544059  0  2.288637  0
