# generated using pymatgen
data_CoHC3N3Cl
_symmetry_space_group_name_H-M   'P 1'
_cell_length_a   8.03851462
_cell_length_b   14.60884502
_cell_length_c   14.60721328
_cell_angle_alpha   116.70539510
_cell_angle_beta   100.56832870
_cell_angle_gamma   100.57488225
_symmetry_Int_Tables_number   1
_chemical_formula_structural   CoHC3N3Cl
_chemical_formula_sum   'Co6 H6 C18 N18 Cl6'
_cell_volume   1435.66283559
_cell_formula_units_Z   6
loop_
 _symmetry_equiv_pos_site_id
 _symmetry_equiv_pos_as_xyz
  1  'x, y, z'
loop_
 _atom_site_type_symbol
 _atom_site_label
 _atom_site_symmetry_multiplicity
 _atom_site_fract_x
 _atom_site_fract_y
 _atom_site_fract_z
 _atom_site_occupancy
 _atom_site_pbe_bader_charge
 _atom_site_pbe_bader_spin_density
 _atom_site_pbe_cm5_charge
 _atom_site_pbe_ddec_charge
 _atom_site_pbe_ddec_spin_density
 _atom_site_pbe_ddec_sum_bond_order
 _atom_site_pbe_magmom
Co  Co0  1  0.28977718  0.58326065  0.28935306  1  1.129735  2.514973  0.608927  0.589329  2.742717  2.802442  2.461
Co  Co1  1  0.70668757  0.70628375  0.41669740  1  1.133272  2.5154  0.607926  0.589787  2.742942  2.803133  2.461
Co  Co2  1  0.00024382  0.71056684  0.29373354  1  1.126708  2.515301  0.607526  0.587443  2.741283  2.806891  2.461
Co  Co3  1  0.70669987  0.41670049  0.70626238  1  1.132551  2.515137  0.607954  0.589653  2.74252  2.802825  2.461
Co  Co4  1  0.28973103  0.28934831  0.58316030  1  1.129407  2.515273  0.608467  0.589345  2.743005  2.803664  2.461
Co  Co5  1  0.00026795  0.29377404  0.71053503  1  1.126601  2.515264  0.607774  0.587292  2.741266  2.80719  2.461
H  H6  1  0.18603317  0.99995799  0.42375903  1  0.110899  0.003516  0.105303  0.145354  0.001841  1.00903  0.001
H  H7  1  0.81389591  0.57627432  0.99993779  1  0.112131  0.003845  0.105597  0.147297  0.001972  1.006521  0.001
H  H8  1  0.18587514  0.42365234  0.99986896  1  0.109762  0.003518  0.105254  0.1452  0.00184  1.009127  0.001
H  H9  1  0.76253315  0.57639420  0.57632839  1  0.119955  0.003472  0.105986  0.146256  0.001836  1.009163  0.001
H  H10  1  0.23759814  0.42371314  0.42370004  1  0.123671  0.003807  0.105839  0.147609  0.001972  1.007032  0.001
H  H11  1  0.81395563  0.99997001  0.57642842  1  0.110406  0.003843  0.10539  0.146724  0.001966  1.006706  0.001
C  C12  1  0.36505720  0.90579040  0.43111701  1  0.363837  0.007028  0.100731  0.144782  0.003939  4.021824  0.006
C  C13  1  0.63496453  0.56815821  0.09400660  1  0.421497  0.01049  0.100735  0.143317  0.006199  4.021594  0.009
C  C14  1  0.45909307  0.52511794  0.09406993  1  0.371923  0.006989  0.098575  0.141498  0.003908  4.02149  0.006
C  C15  1  0.93423661  0.56910608  0.47487734  1  0.396136  0.006874  0.097677  0.141505  0.003874  4.021938  0.006
C  C16  1  0.06693284  0.52591626  0.43177085  1  0.390102  0.010657  0.098758  0.141539  0.006228  4.021281  0.009
C  C17  1  0.54099045  0.90589277  0.47423604  1  0.368581  0.010655  0.099164  0.140178  0.006217  4.022969  0.009
C  C18  1  0.63506661  0.09404762  0.56833040  1  0.361206  0.010612  0.100486  0.142767  0.006199  4.021622  0.009
C  C19  1  0.36496495  0.43098511  0.90572663  1  0.36665  0.006939  0.100578  0.145329  0.003883  4.020776  0.006
C  C20  1  0.54091216  0.47411220  0.90584556  1  0.370943  0.010654  0.099244  0.140485  0.006217  4.022015  0.009
C  C21  1  0.06695424  0.43186476  0.52593652  1  0.389856  0.010659  0.098771  0.142052  0.006226  4.021437  0.009
C  C22  1  0.93426497  0.47497336  0.56913050  1  0.39727  0.006893  0.097432  0.141341  0.003894  4.022575  0.006
C  C23  1  0.45921078  0.09411007  0.52528095  1  0.370298  0.00703  0.098305  0.141691  0.003939  4.021226  0.006
C  C24  1  0.31937052  0.99995204  0.45528091  1  0.130757  0.025675  -0.085417  -0.204895  0.013962  3.905681  0.016
C  C25  1  0.68060459  0.54443770  0.99993670  1  0.066516  0.018566  -0.084782  -0.204026  0.010128  3.905987  0.011
C  C26  1  0.31926379  0.45513841  0.99989379  1  0.131682  0.025792  -0.085536  -0.205041  0.014026  3.905567  0.016
C  C27  1  0.86451318  0.54496983  0.54493333  1  0.062539  0.025982  -0.083991  -0.203222  0.014039  3.905262  0.016
C  C28  1  0.13616289  0.45556040  0.45553022  1  0.068357  0.018541  -0.083363  -0.203258  0.010116  3.90446  0.011
C  C29  1  0.68069368  0.99998482  0.54459372  1  0.133409  0.018389  -0.084701  -0.203242  0.010109  3.906256  0.011
N  N30  1  0.26395411  0.79968147  0.36649659  1  -0.676216  0.06992  -0.236639  -0.212089  0.037193  3.481436  0.055
N  N31  1  0.73604103  0.63306763  0.20010039  1  -0.66515  0.066788  -0.231217  -0.204693  0.035599  3.474115  0.05
N  N32  1  0.46410622  0.56664850  0.20021794  1  -0.67653  0.07014  -0.236715  -0.213035  0.037279  3.478683  0.055
N  N33  1  0.89764862  0.63366210  0.43329448  1  -0.669607  0.070064  -0.237916  -0.215  0.037244  3.479432  0.055
N  N34  1  0.10302977  0.56702650  0.36678496  1  -0.663912  0.066629  -0.230572  -0.204473  0.035471  3.473762  0.05
N  N35  1  0.53603712  0.79981908  0.43298322  1  -0.655072  0.066613  -0.229708  -0.203288  0.03553  3.472676  0.05
N  N36  1  0.73613903  0.20013804  0.63322007  1  -0.665573  0.066702  -0.231377  -0.204569  0.035555  3.474151  0.05
N  N37  1  0.26388000  0.36639891  0.79959838  1  -0.679233  0.069989  -0.236524  -0.212027  0.037221  3.482507  0.055
N  N38  1  0.53597365  0.43290727  0.79976029  1  -0.654012  0.066637  -0.230011  -0.20361  0.035542  3.472955  0.05
N  N39  1  0.10307145  0.36691719  0.56707852  1  -0.662338  0.066669  -0.230392  -0.204788  0.035512  3.473863  0.05
N  N40  1  0.89770275  0.43342494  0.63372703  1  -0.670678  0.070056  -0.237785  -0.214767  0.037238  3.480781  0.055
N  N41  1  0.46419693  0.20023118  0.56680143  1  -0.674562  0.070099  -0.236476  -0.213093  0.037273  3.478161  0.055
N  N42  1  0.37144563  0.74141225  0.37065357  1  -0.206741  0.065752  -0.131582  0.005614  0.033647  3.677712  0.061
N  N43  1  0.62987397  0.62914645  0.25850988  1  -0.199292  0.06567  -0.130335  0.006984  0.033607  3.676319  0.061
N  N44  1  0.00080195  0.62937340  0.37072616  1  -0.201935  0.065695  -0.128272  0.008896  0.033626  3.674894  0.061
N  N45  1  0.62994732  0.25853191  0.62928879  1  -0.200856  0.06571  -0.130212  0.007153  0.03363  3.675864  0.061
N  N46  1  0.37139204  0.37058947  0.74133288  1  -0.206696  0.06566  -0.13146  0.005423  0.033604  3.678624  0.061
N  N47  1  0.00087422  0.37087127  0.62944847  1  -0.201278  0.065729  -0.128286  0.008957  0.033635  3.675284  0.061
Cl  Cl48  1  0.07635930  0.57752794  0.15269290  1  -0.565286  0.239065  -0.229928  -0.405063  0.127318  1.508569  0.182
Cl  Cl49  1  0.92332043  0.84735002  0.42419963  1  -0.566939  0.238872  -0.229646  -0.405052  0.12718  1.508663  0.182
Cl  Cl50  1  0.49916666  0.57574238  0.42294783  1  -0.568395  0.239014  -0.230112  -0.405788  0.127155  1.506065  0.182
Cl  Cl51  1  0.92335357  0.42423726  0.84737018  1  -0.56672  0.238841  -0.229817  -0.405385  0.12716  1.508714  0.182
Cl  Cl52  1  0.07602512  0.15270335  0.57710993  1  -0.565204  0.238972  -0.229806  -0.405076  0.127265  1.508529  0.182
Cl  Cl53  1  0.49910931  0.42258248  0.57539951  1  -0.564429  0.238939  -0.229825  -0.405315  0.127256  1.50712  0.182
