# generated using pymatgen
data_MgH8(CO2)4
_symmetry_space_group_name_H-M   'P 1'
_cell_length_a   5.70107975
_cell_length_b   9.49917308
_cell_length_c   14.29404280
_cell_angle_alpha   90.00025662
_cell_angle_beta   90.44449567
_cell_angle_gamma   89.99919768
_symmetry_Int_Tables_number   1
_chemical_formula_structural   MgH8(CO2)4
_chemical_formula_sum   'Mg4 H32 C16 O32'
_cell_volume   774.07835887
_cell_formula_units_Z   4
loop_
 _symmetry_equiv_pos_site_id
 _symmetry_equiv_pos_as_xyz
  1  'x, y, z'
loop_
 _atom_site_type_symbol
 _atom_site_label
 _atom_site_symmetry_multiplicity
 _atom_site_fract_x
 _atom_site_fract_y
 _atom_site_fract_z
 _atom_site_occupancy
 _atom_site_hle17_bader_spin_density
 _atom_site_hle17_ddec_charge
 _atom_site_hle17_ddec_spin_density
 _atom_site_hle17_ddec_sum_bond_order
 _atom_site_hle17_magmom
 _atom_site_hse06_10hf_bader_spin_density
 _atom_site_hse06_10hf_ddec_charge
 _atom_site_hse06_10hf_ddec_spin_density
 _atom_site_hse06_10hf_ddec_sum_bond_order
 _atom_site_hse06_10hf_magmom
 _atom_site_hse06_bader_spin_density
 _atom_site_hse06_ddec_charge
 _atom_site_hse06_ddec_spin_density
 _atom_site_hse06_ddec_sum_bond_order
 _atom_site_hse06_magmom
 _atom_site_pbe_bader_spin_density
 _atom_site_pbe_cm5_charge
 _atom_site_pbe_ddec_charge
 _atom_site_pbe_ddec_spin_density
 _atom_site_pbe_ddec_sum_bond_order
 _atom_site_pbe_magmom
Mg  Mg0  1  0.13751619  0.69269541  0.84300074  1  0  1.499743  0  1.124171  0  0  1.385623  0  1.385248  0  0  1.407793  0  1.350563  0  0  0.830397  1.369779  0  1.409941  0
Mg  Mg1  1  0.36249388  0.19269552  0.65699774  1  0  1.499744  0  1.124203  0  0  1.385573  0  1.385376  0  0  1.407737  0  1.350697  0  0  0.83037  1.369728  0  1.410068  0
Mg  Mg2  1  0.86249198  0.30729946  0.15699843  1  0  1.499761  0  1.1242  0  0  1.385578  0  1.385392  0  0  1.407745  0  1.350711  0  0  0.830357  1.369735  0  1.410088  0
Mg  Mg3  1  0.63750547  0.80730461  0.34300275  1  0  1.499738  0  1.124183  0  0  1.385544  0  1.385397  0  0  1.407709  0  1.350719  0  0  0.830383  1.369701  0  1.41009  0
H  H4  1  0.52669367  0.74748205  0.65329449  1  0  0.092994  0  0.888618  0  0  0.103128  0  0.94253  0  0  0.105767  0  0.940657  0  0  0.126567  0.101184  0  0.94405  0
H  H5  1  0.97331471  0.24748156  0.84670526  1  0  0.092992  0  0.888604  0  0  0.103086  0  0.942553  0  0  0.105765  0  0.940624  0  0  0.126581  0.101144  0  0.944068  0
H  H6  1  0.47329888  0.25251808  0.34670034  1  0  0.092938  0  0.888669  0  0  0.103101  0  0.942561  0  0  0.105756  0  0.940665  0  0  0.126555  0.101156  0  0.944079  0
H  H7  1  0.02667932  0.75252174  0.15329658  1  0  0.09302  0  0.888579  0  0  0.103092  0  0.942525  0  0  0.105772  0  0.940596  0  0  0.12658  0.101151  0  0.944038  0
H  H8  1  0.29634834  0.85028307  0.51846645  1  0  0.071494  0  0.950606  0  0  0.072407  0  1.026776  0  0  0.07566  0  1.023532  0  0  0.119031  0.070002  0  1.029474  0
H  H9  1  0.20365962  0.35028373  0.98153807  1  0  0.071534  0  0.950623  0  0  0.072355  0  1.026843  0  0  0.075606  0  1.023601  0  0  0.119028  0.069951  0  1.029543  0
H  H10  1  0.70364229  0.14972128  0.48153257  1  0  0.071469  0  0.950667  0  0  0.072452  0  1.026809  0  0  0.075705  0  1.023565  0  0  0.119063  0.070044  0  1.029508  0
H  H11  1  0.79635195  0.64971536  0.01846394  1  0  0.071495  0  0.95063  0  0  0.072384  0  1.026802  0  0  0.075637  0  1.023557  0  0  0.119037  0.069981  0  1.029503  0
H  H12  1  0.36974446  0.92151091  0.76637700  1  0  0.413836  0  0.866356  0  0  0.382727  0  0.94233  0  0  0.394369  0  0.928842  0  0  0.314589  0.374511  0  0.951814  0
H  H13  1  0.13027071  0.42151460  0.73362569  1  0  0.413757  0  0.866401  0  0  0.382763  0  0.942177  0  0  0.3944  0  0.9287  0  0  0.314613  0.37455  0  0.951663  0
H  H14  1  0.63025502  0.07848712  0.23361999  1  0  0.413814  0  0.866214  0  0  0.382714  0  0.942191  0  0  0.394355  0  0.928702  0  0  0.314592  0.374499  0  0.951685  0
H  H15  1  0.86972518  0.57849080  0.26637337  1  0  0.413813  0  0.866316  0  0  0.382675  0  0.942321  0  0  0.394308  0  0.928855  0  0  0.314574  0.374464  0  0.951808  0
H  H16  1  0.62601241  0.96122950  0.59491055  1  0  0.398413  0  0.891401  0  0  0.366109  0  0.969472  0  0  0.377834  0  0.956781  0  0  0.305527  0.357449  0  0.978767  0
H  H17  1  0.87399972  0.46123027  0.90509195  1  0  0.398293  0  0.891623  0  0  0.36604  0  0.969616  0  0  0.377764  0  0.956927  0  0  0.30554  0.357383  0  0.9789  0
H  H18  1  0.37397463  0.03877274  0.40509053  1  0  0.39833  0  0.891445  0  0  0.366043  0  0.969496  0  0  0.377769  0  0.956804  0  0  0.305506  0.357379  0  0.978791  0
H  H19  1  0.12601369  0.53877092  0.09490797  1  0  0.398436  0  0.891396  0  0  0.366168  0  0.969418  0  0  0.377893  0  0.956725  0  0  0.305563  0.357506  0  0.978707  0
H  H20  1  0.27958416  0.91466507  0.95564364  1  0  0.449263  0  0.842909  0  0  0.41471  0  0.910426  0  0  0.426072  0  0.89383  0  0  0.296639  0.406531  0  0.922385  0
H  H21  1  0.22042953  0.41466135  0.54435622  1  0  0.449292  0  0.842901  0  0  0.414747  0  0.910398  0  0  0.426109  0  0.893803  0  0  0.296664  0.406569  0  0.922357  0
H  H22  1  0.72042045  0.08533507  0.04435690  1  0  0.44921  0  0.842998  0  0  0.414655  0  0.910521  0  0  0.426017  0  0.893923  0  0  0.296606  0.406474  0  0.922482  0
H  H23  1  0.77956637  0.58533562  0.45564284  1  0  0.449216  0  0.842987  0  0  0.414725  0  0.9104  0  0  0.426086  0  0.893805  0  0  0.29663  0.406548  0  0.922358  0
H  H24  1  0.32331000  0.76460205  0.00746897  1  0  0.438841  0  0.854627  0  0  0.402866  0  0.926383  0  0  0.41335  0  0.910992  0  0  0.300689  0.3954  0  0.937372  0
H  H25  1  0.17669426  0.26459776  0.49252753  1  0  0.438877  0  0.854569  0  0  0.402857  0  0.926383  0  0  0.41334  0  0.910996  0  0  0.30065  0.395392  0  0.93737  0
H  H26  1  0.67669831  0.23539808  0.99252671  1  0  0.438922  0  0.854511  0  0  0.402888  0  0.926338  0  0  0.413372  0  0.910949  0  0  0.300694  0.395425  0  0.937322  0
H  H27  1  0.82330687  0.73539816  0.50747228  1  0  0.438876  0  0.854576  0  0  0.402826  0  0.926425  0  0  0.413308  0  0.91104  0  0  0.300654  0.395361  0  0.937412  0
H  H28  1  0.67204101  0.70486584  0.85802134  1  0  0.444017  0  0.852873  0  0  0.40788  0  0.923912  0  0  0.419173  0  0.907254  0  0  0.303595  0.399898  0  0.935701  0
H  H29  1  0.82796827  0.20486614  0.64198039  1  0  0.444031  0  0.852844  0  0  0.407849  0  0.923943  0  0  0.419135  0  0.907298  0  0  0.303545  0.399873  0  0.935726  0
H  H30  1  0.32796880  0.29513219  0.14198065  1  0  0.444046  0  0.852814  0  0  0.407863  0  0.923916  0  0  0.419154  0  0.90726  0  0  0.303592  0.399884  0  0.935703  0
H  H31  1  0.17203102  0.79513189  0.35802150  1  0  0.443974  0  0.852925  0  0  0.407832  0  0.923971  0  0  0.419123  0  0.907317  0  0  0.303588  0.399853  0  0.935758  0
H  H32  1  0.78209609  0.82869743  0.91867695  1  0  0.449495  0  0.814016  0  0  0.420535  0  0.881975  0  0  0.430378  0  0.86716  0  0  0.318241  0.413481  0  0.892627  0
H  H33  1  0.71790857  0.32870032  0.58132510  1  0  0.449521  0  0.813937  0  0  0.420513  0  0.881995  0  0  0.430356  0  0.867178  0  0  0.318201  0.413461  0  0.892644  0
H  H34  1  0.21791545  0.17129744  0.08132576  1  0  0.4495  0  0.814012  0  0  0.420481  0  0.882051  0  0  0.430325  0  0.867237  0  0  0.318201  0.413428  0  0.892702  0
H  H35  1  0.28208891  0.67130087  0.41867818  1  0  0.449448  0  0.814044  0  0  0.420484  0  0.88204  0  0  0.430329  0  0.867222  0  0  0.31821  0.413431  0  0.892691  0
C  C36  1  0.19838572  0.64409440  0.64108854  1  0  0.66727  0  3.847772  0  0  0.609209  0  4.163198  0  0  0.641984  0  4.15507  0  0  0.221791  0.587086  0  4.167695  0
C  C37  1  0.30163041  0.14408597  0.85891826  1  0  0.66728  0  3.847927  0  0  0.609192  0  4.1633  0  0  0.641958  0  4.155187  0  0  0.22181  0.58707  0  4.167798  0
C  C38  1  0.80159570  0.35591310  0.35892159  1  0  0.667212  0  3.847692  0  0  0.609076  0  4.16325  0  0  0.641844  0  4.155126  0  0  0.221678  0.586954  0  4.16775  0
C  C39  1  0.69836001  0.85591311  0.14108635  1  0  0.66726  0  3.848134  0  0  0.60913  0  4.163571  0  0  0.641895  0  4.155462  0  0  0.22184  0.587009  0  4.168062  0
C  C40  1  0.34074813  0.77830555  0.66009761  1  0  0.070281  0  3.625931  0  0  0.042254  0  3.879932  0  0  0.043813  0  3.885547  0  0  0.003303  0.041288  0  3.875875  0
C  C41  1  0.15926150  0.27830555  0.83990671  1  0  0.070376  0  3.625708  0  0  0.04238  0  3.879617  0  0  0.043925  0  3.885239  0  0  0.003325  0.041412  0  3.87556  0
C  C42  1  0.65924418  0.22169459  0.33990351  1  0  0.070495  0  3.62556  0  0  0.042449  0  3.879714  0  0  0.044004  0  3.885332  0  0  0.003367  0.041486  0  3.875651  0
C  C43  1  0.84073946  0.72168721  0.16009729  1  0  0.070242  0  3.625934  0  0  0.042348  0  3.879728  0  0  0.043892  0  3.88535  0  0  0.003246  0.041382  0  3.875667  0
C  C44  1  0.29167013  0.89534621  0.58920157  1  0  0.063104  0  3.65478  0  0  0.033654  0  3.909077  0  0  0.035137  0  3.915348  0  0  -0.004133  0.032203  0  3.905279  0
C  C45  1  0.20833509  0.39534527  0.91080166  1  0  0.063041  0  3.655055  0  0  0.033746  0  3.909082  0  0  0.035224  0  3.915361  0  0  -0.004135  0.032296  0  3.905288  0
C  C46  1  0.70832919  0.10465919  0.41079963  1  0  0.063217  0  3.654543  0  0  0.033595  0  3.909042  0  0  0.03507  0  3.915318  0  0  -0.004123  0.032146  0  3.905237  0
C  C47  1  0.79166253  0.60465276  0.08919812  1  0  0.063074  0  3.654955  0  0  0.033684  0  3.909027  0  0  0.035162  0  3.9153  0  0  -0.004134  0.032236  0  3.905235  0
C  C48  1  0.04932564  0.95933813  0.60597126  1  0  0.679448  0  3.817742  0  0  0.616429  0  4.133788  0  0  0.649462  0  4.125291  0  0  0.226572  0.59382  0  4.13931  0
C  C49  1  0.45068685  0.45933606  0.89403292  1  0  0.679153  0  3.818141  0  0  0.616321  0  4.133855  0  0  0.649369  0  4.125336  0  0  0.226593  0.59371  0  4.139375  0
C  C50  1  0.95066485  0.04066200  0.39403125  1  0  0.679278  0  3.817864  0  0  0.616399  0  4.13376  0  0  0.649443  0  4.125238  0  0  0.226554  0.59379  0  4.139283  0
C  C51  1  0.54932837  0.54066196  0.10596563  1  0  0.679031  0  3.818056  0  0  0.616173  0  4.133813  0  0  0.649218  0  4.125296  0  0  0.226561  0.593565  0  4.13933  0
O  O52  1  0.08925770  0.59274433  0.71151156  1  0  -0.700107  0  2.00696  0  0  -0.640493  0  2.239281  0  0  -0.663806  0  2.226  0  0  -0.344627  -0.623646  0  2.247642  0
O  O53  1  0.41075997  0.09273657  0.78848601  1  0  -0.700262  0  2.006494  0  0  -0.640559  0  2.238805  0  0  -0.66388  0  2.225525  0  0  -0.344715  -0.623706  0  2.247163  0
O  O54  1  0.91075584  0.40725370  0.28848487  1  0  -0.700316  0  2.006248  0  0  -0.640588  0  2.238595  0  0  -0.663905  0  2.225317  0  0  -0.344686  -0.623742  0  2.24696  0
O  O55  1  0.58924839  0.90725725  0.21150827  1  0  -0.7002  0  2.00712  0  0  -0.640504  0  2.239479  0  0  -0.663819  0  2.226199  0  0  -0.344681  -0.623654  0  2.247837  0
O  O56  1  0.20837351  0.59190215  0.56035694  1  0  -0.616929  0  1.947973  0  0  -0.562692  0  2.169995  0  0  -0.586427  0  2.15853  0  0  -0.306971  -0.546168  0  2.177609  0
O  O57  1  0.29165473  0.09191018  0.93964002  1  0  -0.616862  0  1.948819  0  0  -0.562568  0  2.170785  0  0  -0.586297  0  2.159323  0  0  -0.306903  -0.546047  0  2.178401  0
O  O58  1  0.79160868  0.40809482  0.43963360  1  0  -0.616711  0  1.94878  0  0  -0.562467  0  2.170828  0  0  -0.586193  0  2.159361  0  0  -0.306827  -0.54595  0  2.178445  0
O  O59  1  0.70835536  0.90809205  0.06035497  1  0  -0.616822  0  1.94838  0  0  -0.562552  0  2.17042  0  0  -0.586285  0  2.158957  0  0  -0.306913  -0.546028  0  2.178036  0
O  O60  1  0.29713296  0.82690925  0.75292515  1  0  -0.652698  0  2.186128  0  0  -0.589175  0  2.418299  0  0  -0.604647  0  2.403537  0  0  -0.426608  -0.578191  0  2.42852  0
O  O61  1  0.20288092  0.32690610  0.74707655  1  0  -0.652668  0  2.185995  0  0  -0.589244  0  2.418109  0  0  -0.604716  0  2.403351  0  0  -0.426661  -0.578266  0  2.428331  0
O  O62  1  0.70287519  0.17308983  0.24707472  1  0  -0.652758  0  2.185901  0  0  -0.589235  0  2.41811  0  0  -0.604706  0  2.403354  0  0  -0.426628  -0.578259  0  2.428329  0
O  O63  1  0.79711851  0.67309192  0.25292184  1  0  -0.652614  0  2.186163  0  0  -0.589095  0  2.418377  0  0  -0.604564  0  2.403622  0  0  -0.426591  -0.578115  0  2.428595  0
O  O64  1  0.46220446  0.00385109  0.59929976  1  0  -0.650576  0  2.214155  0  0  -0.591608  0  2.457626  0  0  -0.607172  0  2.443923  0  0  -0.430032  -0.580267  0  2.467333  0
O  O65  1  0.03780280  0.50384908  0.90070236  1  0  -0.650467  0  2.214418  0  0  -0.591554  0  2.457785  0  0  -0.607126  0  2.444095  0  0  -0.430018  -0.580206  0  2.467489  0
O  O66  1  0.53778626  0.99615326  0.40069716  1  0  -0.650635  0  2.214061  0  0  -0.5916  0  2.457514  0  0  -0.607174  0  2.443834  0  0  -0.430094  -0.580257  0  2.467217  0
O  O67  1  0.96220512  0.49614895  0.09930312  1  0  -0.650655  0  2.214248  0  0  -0.591689  0  2.457603  0  0  -0.607264  0  2.443922  0  0  -0.430053  -0.580338  0  2.467309  0
O  O68  1  0.04371458  0.08310727  0.63960295  1  0  -0.696982  0  2.067779  0  0  -0.629902  0  2.303086  0  0  -0.654577  0  2.291797  0  0  -0.331827  -0.613056  0  2.310812  0
O  O69  1  0.45628026  0.58310775  0.86040067  1  0  -0.696857  0  2.068062  0  0  -0.629875  0  2.30328  0  0  -0.654575  0  2.292001  0  0  -0.331784  -0.613018  0  2.311004  0
O  O70  1  0.95627775  0.91689813  0.36039748  1  0  -0.696844  0  2.067906  0  0  -0.629814  0  2.303133  0  0  -0.654499  0  2.291848  0  0  -0.331734  -0.612971  0  2.310864  0
O  O71  1  0.54371928  0.41688923  0.13959492  1  0  -0.696845  0  2.06793  0  0  -0.629832  0  2.303181  0  0  -0.654525  0  2.2919  0  0  -0.331773  -0.612975  0  2.310904  0
O  O72  1  0.87154141  0.88535551  0.58544508  1  0  -0.610052  0  2.008592  0  0  -0.545988  0  2.232664  0  0  -0.571991  0  2.223565  0  0  -0.292529  -0.527571  0  2.238851  0
O  O73  1  0.62847414  0.38535526  0.91455933  1  0  -0.609835  0  2.008534  0  0  -0.545963  0  2.232609  0  0  -0.571969  0  2.223505  0  0  -0.292609  -0.527549  0  2.238801  0
O  O74  1  0.12844906  0.11464779  0.41455813  1  0  -0.610032  0  2.008556  0  0  -0.546033  0  2.23257  0  0  -0.572041  0  2.223464  0  0  -0.292593  -0.527619  0  2.238759  0
O  O75  1  0.37153938  0.61464277  0.08543779  1  0  -0.609745  0  2.008428  0  0  -0.545857  0  2.232499  0  0  -0.571864  0  2.223398  0  0  -0.292595  -0.527437  0  2.238685  0
O  O76  1  0.23847392  0.81239845  0.95629502  1  0  -0.924275  0  1.831044  0  0  -0.866069  0  2.023453  0  0  -0.884484  0  1.989848  0  0  -0.622934  -0.85328  0  2.047407  0
O  O77  1  0.26152453  0.31239438  0.54370580  1  0  -0.92433  0  1.831016  0  0  -0.866087  0  2.023524  0  0  -0.8845  0  1.989922  0  0  -0.622939  -0.853309  0  2.047479  0
O  O78  1  0.76152718  0.18759853  0.04370549  1  0  -0.924308  0  1.830971  0  0  -0.866022  0  2.023489  0  0  -0.884438  0  1.989885  0  0  -0.622918  -0.853235  0  2.047442  0
O  O79  1  0.73847479  0.68760786  0.45629539  1  0  -0.924294  0  1.831089  0  0  -0.866044  0  2.023577  0  0  -0.884457  0  1.989972  0  0  -0.622895  -0.853263  0  2.04753  0
O  O80  1  0.80541642  0.77288911  0.86173695  1  0  -0.886556  0  1.785513  0  0  -0.831602  0  1.969373  0  0  -0.847669  0  1.935266  0  0  -0.607256  -0.820455  0  1.993533  0
O  O81  1  0.69458954  0.27288840  0.63826495  1  0  -0.886606  0  1.785446  0  0  -0.831561  0  1.969467  0  0  -0.847628  0  1.935369  0  0  -0.607153  -0.820424  0  1.993619  0
O  O82  1  0.19459343  0.22710892  0.13826434  1  0  -0.886591  0  1.785472  0  0  -0.831527  0  1.969465  0  0  -0.847595  0  1.935358  0  0  -0.607205  -0.820384  0  1.993618  0
O  O83  1  0.30540797  0.72710858  0.36173762  1  0  -0.886475  0  1.785578  0  0  -0.831513  0  1.96948  0  0  -0.847581  0  1.935379  0  0  -0.607215  -0.820371  0  1.993635  0
