# generated using pymatgen
data_NdH14C18N3O8
_symmetry_space_group_name_H-M   'P 1'
_cell_length_a   9.41533020
_cell_length_b   9.77375844
_cell_length_c   12.35160777
_cell_angle_alpha   67.04046822
_cell_angle_beta   86.79494501
_cell_angle_gamma   81.92337980
_symmetry_Int_Tables_number   1
_chemical_formula_structural   NdH14C18N3O8
_chemical_formula_sum   'Nd2 H28 C36 N6 O16'
_cell_volume   1036.20873129
_cell_formula_units_Z   2
loop_
 _symmetry_equiv_pos_site_id
 _symmetry_equiv_pos_as_xyz
  1  'x, y, z'
loop_
 _atom_site_type_symbol
 _atom_site_label
 _atom_site_symmetry_multiplicity
 _atom_site_fract_x
 _atom_site_fract_y
 _atom_site_fract_z
 _atom_site_occupancy
 _atom_site_hle17_bader_spin_density
 _atom_site_hle17_ddec_charge
 _atom_site_hle17_ddec_spin_density
 _atom_site_hle17_ddec_sum_bond_order
 _atom_site_hle17_magmom
 _atom_site_hse06_10hf_bader_spin_density
 _atom_site_hse06_10hf_ddec_charge
 _atom_site_hse06_10hf_ddec_spin_density
 _atom_site_hse06_10hf_ddec_sum_bond_order
 _atom_site_hse06_10hf_magmom
 _atom_site_hse06_bader_spin_density
 _atom_site_hse06_ddec_charge
 _atom_site_hse06_ddec_spin_density
 _atom_site_hse06_ddec_sum_bond_order
 _atom_site_hse06_magmom
 _atom_site_pbe_bader_spin_density
 _atom_site_pbe_cm5_charge
 _atom_site_pbe_ddec_charge
 _atom_site_pbe_ddec_spin_density
 _atom_site_pbe_ddec_sum_bond_order
 _atom_site_pbe_magmom
Nd  Nd0  1  0.68967285  0.11512904  0.44527143  1  0  2.319492  0  1.57324  0  0  2.16345  0  2.027892  0  0  2.258843  0  1.885394  0  0  1.462904  2.130592  0  2.061756  0
Nd  Nd1  1  0.31032800  0.88487374  0.55472723  1  0  2.319507  0  1.573234  0  0  2.163456  0  2.027893  0  0  2.258857  0  1.885388  0  0  1.462904  2.130607  0  2.061763  0
H  H2  1  0.67942448  0.45151293  0.41712703  1  0  0.406289  0  0.908616  0  0  0.365156  0  0.989659  0  0  0.376725  0  0.973249  0  0  0.285338  0.3573  0  1.000802  0
H  H3  1  0.32058170  0.54848991  0.58286981  1  0  0.406269  0  0.908647  0  0  0.365117  0  0.989717  0  0  0.376687  0  0.973305  0  0  0.285332  0.357266  0  1.00085  0
H  H4  1  0.62095508  0.45830826  0.29567424  1  0  0.39361  0  0.927255  0  0  0.352343  0  1.008304  0  0  0.363836  0  0.992084  0  0  0.281444  0.344276  0  1.019753  0
H  H5  1  0.37904319  0.54169785  0.70432348  1  0  0.39361  0  0.927287  0  0  0.352319  0  1.008377  0  0  0.363812  0  0.992157  0  0  0.281437  0.344249  0  1.01983  0
H  H6  1  0.67133021  0.84704560  0.67977532  1  0  0.443602  0  0.856215  0  0  0.412548  0  0.919822  0  0  0.423959  0  0.903263  0  0  0.299043  0.404487  0  0.931633  0
H  H7  1  0.32866672  0.15295487  0.32022258  1  0  0.443586  0  0.856261  0  0  0.412543  0  0.919845  0  0  0.423954  0  0.903284  0  0  0.299069  0.404483  0  0.931656  0
H  H8  1  0.80168723  0.93908149  0.67754493  1  0  0.433446  0  0.823193  0  0  0.414562  0  0.87905  0  0  0.423541  0  0.865983  0  0  0.323589  0.407898  0  0.887296  0
H  H9  1  0.19830902  0.06091563  0.32245970  1  0  0.433436  0  0.823283  0  0  0.414543  0  0.879098  0  0  0.423523  0  0.866029  0  0  0.323578  0.407882  0  0.887403  0
H  H10  1  0.48517221  0.97923622  0.13850128  1  0  0.088842  0  0.951124  0  0  0.100687  0  1.013047  0  0  0.103417  0  1.011158  0  0  0.105588  0.098793  0  1.014244  0
H  H11  1  0.51483116  0.02076325  0.86150237  1  0  0.08886  0  0.951164  0  0  0.100705  0  1.013084  0  0  0.103434  0  1.011197  0  0  0.105588  0.098811  0  1.014279  0
H  H12  1  0.67953535  0.00028332  0.98522858  1  0  0.094275  0  0.960366  0  0  0.106503  0  1.017382  0  0  0.10933  0  1.017021  0  0  0.103248  0.104505  0  1.017867  0
H  H13  1  0.32047211  0.99971734  0.01477536  1  0  0.094206  0  0.96048  0  0  0.106449  0  1.017484  0  0  0.109277  0  1.017123  0  0  0.10323  0.104454  0  1.017967  0
H  H14  1  0.92762359  0.87747063  0.05320534  1  0  0.063045  0  0.926939  0  0  0.072757  0  0.985777  0  0  0.075705  0  0.983145  0  0  0.109102  0.070722  0  0.987513  0
H  H15  1  0.07237915  0.12253333  0.94679855  1  0  0.062996  0  0.92697  0  0  0.072725  0  0.985787  0  0  0.075674  0  0.983156  0  0  0.109096  0.070693  0  0.987519  0
H  H16  1  0.71912290  0.36070454  0.62898720  1  0  0.092693  0  0.954273  0  0  0.100941  0  1.01739  0  0  0.104329  0  1.013826  0  0  0.119307  0.098511  0  1.019985  0
H  H17  1  0.28088899  0.63929504  0.37101450  1  0  0.092674  0  0.954323  0  0  0.100914  0  1.017459  0  0  0.10431  0  1.013886  0  0  0.11929  0.098491  0  1.020049  0
H  H18  1  0.90463261  0.40050867  0.74919340  1  0  0.097685  0  0.964551  0  0  0.103938  0  1.029188  0  0  0.10786  0  1.026978  0  0  0.101063  0.101327  0  1.03052  0
H  H19  1  0.09537673  0.59949422  0.25080493  1  0  0.0977  0  0.964653  0  0  0.103992  0  1.029258  0  0  0.107914  0  1.027049  0  0  0.101097  0.101382  0  1.03059  0
H  H20  1  0.03012710  0.63066698  0.65816612  1  0  0.100535  0  0.926545  0  0  0.111961  0  0.985423  0  0  0.115412  0  0.982394  0  0  0.119403  0.109323  0  0.987922  0
H  H21  1  0.96988178  0.36933142  0.34183443  1  0  0.100555  0  0.926544  0  0  0.111954  0  0.985432  0  0  0.115402  0  0.982404  0  0  0.119394  0.109318  0  0.98792  0
H  H22  1  0.29933812  0.32102920  0.11954103  1  0  0.112388  0  0.940187  0  0  0.124357  0  0.994825  0  0  0.128212  0  0.992931  0  0  0.112104  0.121513  0  0.996243  0
H  H23  1  0.70064925  0.67897114  0.88045725  1  0  0.112506  0  0.940085  0  0  0.12446  0  0.994731  0  0  0.128316  0  0.992833  0  0  0.112138  0.121613  0  0.996149  0
H  H24  1  0.22384612  0.43614350  0.90695165  1  0  0.078692  0  0.912811  0  0  0.091065  0  0.96654  0  0  0.093717  0  0.964863  0  0  0.119913  0.089315  0  0.967644  0
H  H25  1  0.77614064  0.56386131  0.09304526  1  0  0.078718  0  0.912903  0  0  0.091116  0  0.966581  0  0  0.093763  0  0.96492  0  0  0.119928  0.089365  0  0.967677  0
H  H26  1  0.64246051  0.39818325  0.79298784  1  0  0.074022  0  0.965031  0  0  0.082272  0  1.031358  0  0  0.084522  0  1.029759  0  0  0.115122  0.080513  0  1.032633  0
H  H27  1  0.35752611  0.60181482  0.20701036  1  0  0.074131  0  0.964981  0  0  0.082323  0  1.03136  0  0  0.084572  0  1.029764  0  0  0.115153  0.080569  0  1.032631  0
H  H28  1  0.73639568  0.28239740  0.00174140  1  0  0.1149  0  0.935516  0  0  0.125744  0  0.990632  0  0  0.129641  0  0.988608  0  0  0.112621  0.123018  0  0.991953  0
H  H29  1  0.26359006  0.71759167  0.99825801  1  0  0.114782  0  0.935647  0  0  0.125577  0  0.990812  0  0  0.129495  0  0.988766  0  0  0.112534  0.122856  0  0.992129  0
C  C30  1  0.52151867  0.85337452  0.37319257  1  0  0.682634  0  3.920247  0  0  0.629262  0  4.224372  0  0  0.663655  0  4.220364  0  0  0.213086  0.605395  0  4.230908  0
C  C31  1  0.47848869  0.14661937  0.62680943  1  0  0.682782  0  3.919953  0  0  0.629425  0  4.224094  0  0  0.66382  0  4.220083  0  0  0.213153  0.605547  0  4.230645  0
C  C32  1  0.62914207  0.84664137  0.28126320  1  0  -0.119202  0  3.686462  0  0  -0.102285  0  3.92529  0  0  -0.111585  0  3.944379  0  0  0.002042  -0.096556  0  3.913212  0
C  C33  1  0.37086374  0.15335589  0.71874025  1  0  -0.119173  0  3.686274  0  0  -0.102356  0  3.925255  0  0  -0.111657  0  3.944345  0  0  0.002024  -0.096626  0  3.913177  0
C  C34  1  0.59425061  0.92438058  0.16267633  1  0  -0.015806  0  3.718879  0  0  -0.046927  0  3.974402  0  0  -0.043499  0  3.993219  0  0  -0.066935  -0.048887  0  3.962191  0
C  C35  1  0.40575474  0.07562004  0.83732689  1  0  -0.015876  0  3.71889  0  0  -0.046961  0  3.974426  0  0  -0.043533  0  3.993245  0  0  -0.066947  -0.048922  0  3.962214  0
C  C36  1  0.70131702  0.93613081  0.07833890  1  0  -0.130726  0  3.77865  0  0  -0.145153  0  4.036504  0  0  -0.152016  0  4.059673  0  0  -0.091073  -0.141045  0  4.021838  0
C  C37  1  0.29869134  0.06387099  0.92166546  1  0  -0.130693  0  3.778824  0  0  -0.145136  0  4.03666  0  0  -0.152001  0  4.059832  0  0  -0.091105  -0.141028  0  4.021996  0
C  C38  1  0.83961005  0.86760053  0.11648538  1  0  0.115679  0  3.77294  0  0  0.090287  0  4.035821  0  0  0.09635  0  4.052557  0  0  0.041739  0.086599  0  4.024224  0
C  C39  1  0.16039817  0.13240238  0.88351784  1  0  0.115695  0  3.773043  0  0  0.090294  0  4.035909  0  0  0.096356  0  4.052647  0  0  0.041734  0.086603  0  4.024315  0
C  C40  1  0.77029480  0.77537485  0.31076830  1  0  0.192963  0  3.715225  0  0  0.183654  0  3.966652  0  0  0.191742  0  3.982858  0  0  0.142795  0.178166  0  3.955711  0
C  C41  1  0.22970967  0.22462462  0.68923288  1  0  0.193049  0  3.71507  0  0  0.183766  0  3.966515  0  0  0.191852  0  3.982721  0  0  0.142875  0.178291  0  3.955562  0
C  C42  1  0.80891782  0.67769533  0.43552016  1  0  0.181738  0  3.716571  0  0  0.166151  0  3.96629  0  0  0.173453  0  3.984808  0  0  0.135579  0.161311  0  3.953481  0
C  C43  1  0.19109103  0.32230309  0.56448281  1  0  0.18184  0  3.716569  0  0  0.166248  0  3.966331  0  0  0.17355  0  3.98485  0  0  0.13562  0.161405  0  3.953524  0
C  C44  1  0.77475549  0.46002583  0.59514674  1  0  0.136965  0  3.685733  0  0  0.103979  0  3.944785  0  0  0.111766  0  3.959549  0  0  0.052639  0.099318  0  3.934064  0
C  C45  1  0.22525537  0.53997372  0.40485257  1  0  0.137016  0  3.685785  0  0  0.104051  0  3.944837  0  0  0.111832  0  3.959609  0  0  0.052724  0.099383  0  3.934122  0
C  C46  1  0.87656031  0.48325352  0.66161342  1  0  -0.126251  0  3.762307  0  0  -0.140621  0  4.025776  0  0  -0.147993  0  4.046303  0  0  -0.08687  -0.135805  0  4.011426  0
C  C47  1  0.12344780  0.51675049  0.33838622  1  0  -0.126344  0  3.762556  0  0  -0.140784  0  4.026063  0  0  -0.148155  0  4.046591  0  0  -0.086967  -0.135969  0  4.011717  0
C  C48  1  0.94745236  0.60889724  0.61080437  1  0  0.009892  0  3.685702  0  0  -0.021463  0  3.938917  0  0  -0.016104  0  3.95508  0  0  -0.053853  -0.024173  0  3.927134  0
C  C49  1  0.05255483  0.39110564  0.38919646  1  0  0.009919  0  3.685966  0  0  -0.021376  0  3.939192  0  0  -0.016012  0  3.955349  0  0  -0.053811  -0.024084  0  3.9274  0
C  C50  1  0.91151068  0.71037361  0.49674065  1  0  -0.12329  0  3.68588  0  0  -0.105829  0  3.922531  0  0  -0.116218  0  3.942691  0  0  0.004499  -0.099385  0  3.908986  0
C  C51  1  0.08849511  0.28963151  0.50326196  1  0  -0.123347  0  3.68584  0  0  -0.105913  0  3.922533  0  0  -0.116301  0  3.942695  0  0  0.004492  -0.09947  0  3.908991  0
C  C52  1  0.97733603  0.85343643  0.44692021  1  0  0.748039  0  3.856455  0  0  0.697625  0  4.152475  0  0  0.7343  0  4.14214  0  0  0.24117  0.672426  0  4.161281  0
C  C53  1  0.02266451  0.14656859  0.55307777  1  0  0.748035  0  3.856362  0  0  0.697617  0  4.152431  0  0  0.734286  0  4.142108  0  0  0.241203  0.672419  0  4.161233  0
C  C54  1  0.57852142  0.23520974  0.20015517  1  0  0.62919  0  3.957922  0  0  0.579619  0  4.257665  0  0  0.610898  0  4.257093  0  0  0.196797  0.557744  0  4.261365  0
C  C55  1  0.42146868  0.76478615  0.79984521  1  0  0.629305  0  3.958042  0  0  0.579674  0  4.257877  0  0  0.610956  0  4.257299  0  0  0.196779  0.55779  0  4.261594  0
C  C56  1  0.52464730  0.29342917  0.07579835  1  0  -0.010739  0  3.738042  0  0  0.008264  0  3.97101  0  0  0.005774  0  3.992375  0  0  0.00119  0.009702  0  3.957029  0
C  C57  1  0.47533844  0.70656776  0.92419862  1  0  -0.01074  0  3.737863  0  0  0.008267  0  3.970846  0  0  0.005777  0  3.992212  0  0  0.001249  0.009699  0  3.956882  0
C  C58  1  0.37837645  0.33422052  0.04944566  1  0  -0.134311  0  3.721544  0  0  -0.155905  0  3.971777  0  0  -0.160923  0  3.992787  0  0  -0.078828  -0.152106  0  3.957526  0
C  C59  1  0.62161079  0.66578092  0.95055066  1  0  -0.134519  0  3.721572  0  0  -0.1561  0  3.971817  0  0  -0.161119  0  3.99282  0  0  -0.078964  -0.152301  0  3.957564  0
C  C60  1  0.33639448  0.39804051  0.93181627  1  0  0.120233  0  3.732421  0  0  0.088164  0  3.996059  0  0  0.092854  0  4.014619  0  0  0.049582  0.084571  0  3.9844  0
C  C61  1  0.66359168  0.60196092  0.06818090  1  0  0.120322  0  3.732537  0  0  0.088219  0  3.996157  0  0  0.092908  0  4.014728  0  0  0.04967  0.084631  0  3.984483  0
C  C62  1  0.57021040  0.37710007  0.86815738  1  0  0.117984  0  3.713697  0  0  0.088034  0  3.970306  0  0  0.092856  0  3.988179  0  0  0.047822  0.085108  0  3.958047  0
C  C63  1  0.42977669  0.62289464  0.13184104  1  0  0.117981  0  3.713488  0  0  0.088063  0  3.970093  0  0  0.092885  0  3.98797  0  0  0.04789  0.085134  0  3.957839  0
C  C64  1  0.62203881  0.31352529  0.98280446  1  0  -0.127298  0  3.730146  0  0  -0.148204  0  3.978249  0  0  -0.153368  0  3.99982  0  0  -0.077248  -0.144623  0  3.963635  0
C  C65  1  0.37794843  0.68646830  0.01719431  1  0  -0.127108  0  3.730004  0  0  -0.147952  0  3.978095  0  0  -0.153137  0  3.99966  0  0  -0.077148  -0.144376  0  3.96349  0
N  N66  1  0.87374263  0.78665375  0.22956224  1  0  -0.321955  0  3.053276  0  0  -0.289411  0  3.315805  0  0  -0.300835  0  3.329842  0  0  -0.306347  -0.281366  0  3.305599  0
N  N67  1  0.12626592  0.21334691  0.77044004  1  0  -0.321952  0  3.053174  0  0  -0.289387  0  3.315674  0  0  -0.300809  0  3.329711  0  0  -0.306313  -0.281349  0  3.305472  0
N  N68  1  0.74270007  0.55405821  0.48408469  1  0  -0.330247  0  3.116255  0  0  -0.274142  0  3.364647  0  0  -0.288373  0  3.378454  0  0  -0.297746  -0.264412  0  3.354184  0
N  N69  1  0.25730897  0.44593906  0.51591539  1  0  -0.330269  0  3.116356  0  0  -0.274155  0  3.364764  0  0  -0.288384  0  3.378572  0  0  -0.297808  -0.264424  0  3.354304  0
N  N70  1  0.43018529  0.42096585  0.84266533  1  0  -0.287204  0  3.158006  0  0  -0.225912  0  3.404091  0  0  -0.238386  0  3.42067  0  0  -0.298157  -0.217511  0  3.393748  0
N  N71  1  0.56980193  0.57903560  0.15733260  1  0  -0.287426  0  3.157995  0  0  -0.226112  0  3.404055  0  0  -0.238585  0  3.420629  0  0  -0.298308  -0.217709  0  3.393711  0
O  O72  1  0.55994481  0.89804125  0.45154640  1  0  -0.79973  0  2.071047  0  0  -0.741485  0  2.327771  0  0  -0.778154  0  2.318015  0  0  -0.407952  -0.72313  0  2.333802  0
O  O73  1  0.44006195  0.10194926  0.54845668  1  0  -0.799867  0  2.071121  0  0  -0.741612  0  2.32785  0  0  -0.778285  0  2.318095  0  0  -0.408015  -0.723252  0  2.333885  0
O  O74  1  0.39637289  0.82347098  0.37035002  1  0  -0.64966  0  1.95611  0  0  -0.602307  0  2.188849  0  0  -0.629604  0  2.178141  0  0  -0.339879  -0.586448  0  2.195749  0
O  O75  1  0.60363435  0.17653187  0.62964677  1  0  -0.649748  0  1.955977  0  0  -0.602408  0  2.188745  0  0  -0.629695  0  2.17802  0  0  -0.339923  -0.586541  0  2.195646  0
O  O76  1  0.89625323  0.97458952  0.39332945  1  0  -0.733061  0  1.992809  0  0  -0.6829  0  2.240233  0  0  -0.714814  0  2.225617  0  0  -0.394477  -0.664878  0  2.248318  0
O  O77  1  0.10374714  0.02541663  0.60666980  1  0  -0.733059  0  1.992793  0  0  -0.682901  0  2.240245  0  0  -0.714815  0  2.225632  0  0  -0.394478  -0.664887  0  2.248335  0
O  O78  1  0.11065550  0.84340845  0.46379042  1  0  -0.738433  0  2.034749  0  0  -0.6825  0  2.28919  0  0  -0.715645  0  2.274738  0  0  -0.399698  -0.664033  0  2.297214  0
O  O79  1  0.88934660  0.15660107  0.53620287  1  0  -0.738448  0  2.034786  0  0  -0.682508  0  2.289225  0  0  -0.715649  0  2.274774  0  0  -0.399742  -0.664036  0  2.297241  0
O  O80  1  0.71223478  0.21466249  0.21861929  1  0  -0.662389  0  1.925578  0  0  -0.618821  0  2.15502  0  0  -0.646344  0  2.146378  0  0  -0.357582  -0.603111  0  2.160903  0
O  O81  1  0.28775611  0.78533564  0.78137712  1  0  -0.662476  0  1.925775  0  0  -0.618883  0  2.155248  0  0  -0.646409  0  2.146604  0  0  -0.357592  -0.603166  0  2.161138  0
O  O82  1  0.48725395  0.20976162  0.28442460  1  0  -0.698918  0  2.034668  0  0  -0.640147  0  2.266935  0  0  -0.669907  0  2.259081  0  0  -0.347487  -0.62238  0  2.272335  0
O  O83  1  0.51273612  0.79023427  0.71557740  1  0  -0.698978  0  2.03471  0  0  -0.640165  0  2.267009  0  0  -0.669927  0  2.259155  0  0  -0.347472  -0.622384  0  2.272407  0
O  O84  1  0.65508491  0.38602935  0.37634437  1  0  -0.949379  0  1.916135  0  0  -0.895209  0  2.134307  0  0  -0.921161  0  2.09568  0  0  -0.672334  -0.881476  0  2.15761  0
O  O85  1  0.34491671  0.61397568  0.62365276  1  0  -0.94938  0  1.916183  0  0  -0.895181  0  2.134413  0  0  -0.921133  0  2.095781  0  0  -0.672323  -0.881447  0  2.157717  0
O  O86  1  0.75622822  0.89192377  0.63463333  1  0  -0.89016  0  1.865324  0  0  -0.844025  0  2.051964  0  0  -0.867699  0  2.018894  0  0  -0.622256  -0.831049  0  2.071507  0
O  O87  1  0.24377065  0.10807786  0.36536657  1  0  -0.89015  0  1.865451  0  0  -0.844  0  2.052005  0  0  -0.867675  0  2.018938  0  0  -0.622271  -0.831025  0  2.071605  0
