# generated using pymatgen
data_Zn2H24RuC36(NO2)6
_symmetry_space_group_name_H-M   'P 1'
_cell_length_a   15.34826686
_cell_length_b   15.34826333
_cell_length_c   15.34826846
_cell_angle_alpha   90.00006403
_cell_angle_beta   89.99999560
_cell_angle_gamma   90.00005317
_symmetry_Int_Tables_number   1
_chemical_formula_structural   Zn2H24RuC36(NO2)6
_chemical_formula_sum   'Zn8 H96 Ru4 C144 N24 O48'
_cell_volume   3615.57995574
_cell_formula_units_Z   4
loop_
 _symmetry_equiv_pos_site_id
 _symmetry_equiv_pos_as_xyz
  1  'x, y, z'
loop_
 _atom_site_type_symbol
 _atom_site_label
 _atom_site_symmetry_multiplicity
 _atom_site_fract_x
 _atom_site_fract_y
 _atom_site_fract_z
 _atom_site_occupancy
 _atom_site_pbe_bader_charge
 _atom_site_pbe_bader_spin_density
 _atom_site_pbe_cm5_charge
 _atom_site_pbe_ddec_charge
 _atom_site_pbe_ddec_spin_density
 _atom_site_pbe_ddec_sum_bond_order
 _atom_site_pbe_magmom
Zn  Zn0  1  0.89966202  0.39966067  0.10033463  1  1.368326  0  0.65196  0.898956  0  2.29145  0
Zn  Zn1  1  0.85033930  0.64965390  0.35033562  1  1.368307  0  0.651922  0.898762  0  2.291648  0
Zn  Zn2  1  0.60034361  0.60033173  0.60033969  1  1.368362  0  0.65188  0.898964  0  2.291459  0
Zn  Zn3  1  0.64966501  0.35034009  0.85034365  1  1.368261  0  0.651916  0.898707  0  2.291814  0
Zn  Zn4  1  0.14965866  0.14966660  0.14965865  1  1.368253  0  0.651897  0.898831  0  2.291683  0
Zn  Zn5  1  0.39966208  0.10034494  0.89966374  1  1.368341  0  0.651921  0.898931  0  2.291455  0
Zn  Zn6  1  0.10033616  0.89966167  0.39965600  1  1.368305  0  0.651936  0.899086  0  2.291283  0
Zn  Zn7  1  0.35034416  0.85034038  0.64965876  1  1.368397  0  0.651934  0.89901  0  2.291393  0
H  H8  1  0.50537043  0.03970707  0.11774032  1  0.140507  0  0.119867  0.09831  0  1.023953  0
H  H9  1  0.21029421  0.25537121  0.36773738  1  0.140501  0  0.119885  0.098319  0  1.023944  0
H  H10  1  0.99462934  0.96029447  0.61774054  1  0.140495  0  0.119861  0.098291  0  1.023958  0
H  H11  1  0.28970468  0.74462754  0.86774129  1  0.140536  0  0.119879  0.098353  0  1.023914  0
H  H12  1  0.75537066  0.13226266  0.78970607  1  0.140488  0  0.119864  0.098283  0  1.02399  0
H  H13  1  0.00537017  0.46029231  0.88226395  1  0.140509  0  0.119855  0.098298  0  1.023993  0
H  H14  1  0.25537036  0.36774021  0.21029558  1  0.140489  0  0.119876  0.098331  0  1.023891  0
H  H15  1  0.86773912  0.28970656  0.74462875  1  0.140516  0  0.119859  0.098281  0  1.023993  0
H  H16  1  0.49462937  0.53970515  0.38226230  1  0.140488  0  0.119875  0.098331  0  1.023919  0
H  H17  1  0.13225827  0.78970416  0.75537164  1  0.140513  0  0.119861  0.098312  0  1.02394  0
H  H18  1  0.11773730  0.50536931  0.03970573  1  0.14046  0  0.119869  0.098302  0  1.023928  0
H  H19  1  0.03970615  0.11774131  0.50537173  1  0.140521  0  0.119865  0.098296  0  1.023999  0
H  H20  1  0.46029407  0.88226095  0.00537046  1  0.140497  0  0.119868  0.098313  0  1.023951  0
H  H21  1  0.61773988  0.99462931  0.96029387  1  0.140507  0  0.119869  0.098309  0  1.023942  0
H  H22  1  0.96029369  0.61773473  0.99463107  1  0.140551  0  0.119862  0.098296  0  1.023947  0
H  H23  1  0.38226291  0.49462973  0.53970609  1  0.140496  0  0.119876  0.098325  0  1.023928  0
H  H24  1  0.88226051  0.00537131  0.46029424  1  0.140507  0  0.119876  0.098314  0  1.023955  0
H  H25  1  0.53970540  0.38226136  0.49462928  1  0.140493  0  0.119866  0.098308  0  1.02395  0
H  H26  1  0.78970580  0.75537124  0.13225831  1  0.140506  0  0.119862  0.098285  0  1.02399  0
H  H27  1  0.71029592  0.24463031  0.63226101  1  0.140462  0  0.119865  0.098306  0  1.023919  0
H  H28  1  0.74462974  0.86774038  0.28970415  1  0.140482  0  0.119868  0.098324  0  1.023911  0
H  H29  1  0.24462724  0.63225771  0.71029545  1  0.140545  0  0.119877  0.098326  0  1.023924  0
H  H30  1  0.36773737  0.21029707  0.25537028  1  0.140613  0  0.119871  0.098344  0  1.023902  0
H  H31  1  0.63225933  0.71029382  0.24462862  1  0.140516  0  0.119866  0.098295  0  1.023995  0
H  H32  1  0.52824279  0.19786634  0.11297309  1  0.106705  0  0.108911  0.116253  0  1.012858  0
H  H33  1  0.05213499  0.27824213  0.36296944  1  0.106733  0  0.108941  0.116326  0  1.012774  0
H  H34  1  0.97175697  0.80213585  0.61297314  1  0.10676  0  0.108932  0.116287  0  1.012845  0
H  H35  1  0.44786390  0.72175596  0.86297265  1  0.106781  0  0.10894  0.116298  0  1.012857  0
H  H36  1  0.77824164  0.13702942  0.94786528  1  0.106709  0  0.108901  0.116237  0  1.012856  0
H  H37  1  0.02824108  0.30213371  0.88703052  1  0.106704  0  0.108929  0.116315  0  1.012736  0
H  H38  1  0.27824135  0.36297282  0.05213637  1  0.106739  0  0.108921  0.116274  0  1.012834  0
H  H39  1  0.86297058  0.44786516  0.72175720  1  0.106733  0  0.108907  0.116267  0  1.012849  0
H  H40  1  0.47175846  0.69786441  0.38702905  1  0.106738  0  0.108922  0.116293  0  1.012822  0
H  H41  1  0.13702565  0.94786344  0.77824336  1  0.106784  0  0.108936  0.116305  0  1.012838  0
H  H42  1  0.11297065  0.52823973  0.19786496  1  0.106684  0  0.108922  0.116281  0  1.01279  0
H  H43  1  0.19786537  0.11297343  0.52824336  1  0.106766  0  0.10894  0.116301  0  1.012817  0
H  H44  1  0.30213485  0.88702885  0.02824211  1  0.106737  0  0.108923  0.116282  0  1.012799  0
H  H45  1  0.61297321  0.97175758  0.80213465  1  0.106709  0  0.108923  0.116274  0  1.01282  0
H  H46  1  0.80213446  0.61296929  0.97175944  1  0.106688  0  0.108927  0.116305  0  1.012735  0
H  H47  1  0.38703021  0.47175753  0.69786529  1  0.106726  0  0.108928  0.116305  0  1.012784  0
H  H48  1  0.88702784  0.02824286  0.30213504  1  0.106751  0  0.108933  0.116299  0  1.012814  0
H  H49  1  0.69786462  0.38702744  0.47175829  1  0.106733  0  0.108917  0.116273  0  1.012832  0
H  H50  1  0.94786503  0.77824296  0.13702563  1  0.106754  0  0.108936  0.116303  0  1.012824  0
H  H51  1  0.55213603  0.22175990  0.63702831  1  0.106714  0  0.108911  0.116291  0  1.012813  0
H  H52  1  0.72175810  0.86297118  0.44786335  1  0.106746  0  0.108914  0.116271  0  1.012868  0
H  H53  1  0.22175561  0.63702623  0.55213625  1  0.106802  0  0.10894  0.116293  0  1.012836  0
H  H54  1  0.36297064  0.05213717  0.27824117  1  0.106743  0  0.108924  0.116314  0  1.012794  0
H  H55  1  0.63702657  0.55213455  0.22175624  1  0.106725  0  0.108922  0.11627  0  1.012855  0
H  H56  1  0.80541934  0.15270045  0.12170173  1  0.120362  0  0.110187  0.121986  0  1.04225  0
H  H57  1  0.09729918  0.55541944  0.37170152  1  0.11973  0  0.110195  0.12196  0  1.042294  0
H  H58  1  0.69458107  0.84730109  0.62170185  1  0.119737  0  0.110199  0.121965  0  1.042282  0
H  H59  1  0.40269841  0.44458127  0.87170312  1  0.119754  0  0.110193  0.121972  0  1.042286  0
H  H60  1  0.05541866  0.12829908  0.90270125  1  0.120362  0  0.110193  0.121963  0  1.042284  0
H  H61  1  0.30541833  0.34729791  0.87829926  1  0.120359  0  0.110184  0.121959  0  1.042308  0
H  H62  1  0.55541858  0.37170230  0.09729976  1  0.120382  0  0.110196  0.121968  0  1.042257  0
H  H63  1  0.87170185  0.40270094  0.44457998  1  0.120252  0  0.110183  0.121941  0  1.042272  0
H  H64  1  0.19458187  0.65269955  0.37829710  1  0.120351  0  0.110192  0.121961  0  1.042312  0
H  H65  1  0.12829634  0.90269896  0.05541978  1  0.11972  0  0.110194  0.121958  0  1.042291  0
H  H66  1  0.12170075  0.80541700  0.15270171  1  0.120375  0  0.110198  0.121989  0  1.042275  0
H  H67  1  0.15269935  0.12170354  0.80541991  1  0.119688  0  0.110195  0.121997  0  1.042249  0
H  H68  1  0.34730020  0.87829905  0.30541929  1  0.120275  0  0.110185  0.121961  0  1.042282  0
H  H69  1  0.62170306  0.69458097  0.84729985  1  0.120327  0  0.110206  0.122019  0  1.042242  0
H  H70  1  0.84729788  0.62170044  0.69458290  1  0.120384  0  0.110191  0.121974  0  1.042292  0
H  H71  1  0.37829880  0.19458086  0.65270043  1  0.119742  0  0.110189  0.121946  0  1.042279  0
H  H72  1  0.87829864  0.30541887  0.34729990  1  0.119821  0  0.11018  0.121946  0  1.042289  0
H  H73  1  0.65270057  0.37829793  0.19458109  1  0.119704  0  0.1102  0.121967  0  1.042276  0
H  H74  1  0.90269934  0.05541979  0.12829720  1  0.119711  0  0.110198  0.122028  0  1.042247  0
H  H75  1  0.59729978  0.94458242  0.62829809  1  0.1204  0  0.110197  0.122006  0  1.042258  0
H  H76  1  0.44458088  0.87170231  0.40269997  1  0.119857  0  0.110187  0.121972  0  1.042264  0
H  H77  1  0.94458054  0.62829531  0.59730157  1  0.119727  0  0.110204  0.121975  0  1.042298  0
H  H78  1  0.37170258  0.09730009  0.55541774  1  0.120427  0  0.110184  0.121953  0  1.042294  0
H  H79  1  0.62829854  0.59729967  0.94457983  1  0.119695  0  0.110176  0.121964  0  1.04226  0
H  H80  1  0.68358153  0.25662486  0.11658851  1  0.096007  0  0.108712  0.1123  0  1.038302  0
H  H81  1  0.99337619  0.43358066  0.36658618  1  0.096038  0  0.10874  0.112355  0  1.038299  0
H  H82  1  0.81641889  0.74337734  0.61658850  1  0.096055  0  0.108733  0.11234  0  1.038297  0
H  H83  1  0.50662160  0.56641725  0.86658926  1  0.096062  0  0.108731  0.112336  0  1.03831  0
H  H84  1  0.93357974  0.13341162  0.00662489  1  0.096036  0  0.108727  0.11234  0  1.038271  0
H  H85  1  0.18357976  0.24337469  0.88341379  1  0.095985  0  0.108721  0.112307  0  1.03834  0
H  H86  1  0.43357938  0.36658946  0.99337674  1  0.096063  0  0.10872  0.112274  0  1.03831  0
H  H87  1  0.86658731  0.50662416  0.56641919  1  0.096022  0  0.108711  0.112324  0  1.038319  0
H  H88  1  0.31642043  0.75662342  0.38341109  1  0.096063  0  0.108709  0.112278  0  1.038299  0
H  H89  1  0.13340982  0.00662218  0.93358153  1  0.096077  0  0.108707  0.112297  0  1.038304  0
H  H90  1  0.11658741  0.68357851  0.25662477  1  0.095981  0  0.108705  0.112246  0  1.038347  0
H  H91  1  0.25662314  0.11658894  0.68358270  1  0.09604  0  0.108733  0.112348  0  1.038261  0
H  H92  1  0.24337642  0.88341417  0.18358145  1  0.096032  0  0.108736  0.11235  0  1.038305  0
H  H93  1  0.61658984  0.81641880  0.74337614  1  0.096035  0  0.108725  0.112314  0  1.038277  0
H  H94  1  0.74337474  0.61658717  0.81642140  1  0.096002  0  0.108729  0.112284  0  1.038359  0
H  H95  1  0.38341409  0.31641881  0.75662362  1  0.096026  0  0.108733  0.112342  0  1.038317  0
H  H96  1  0.88341187  0.18358158  0.24337671  1  0.096035  0  0.108724  0.11232  0  1.038326  0
H  H97  1  0.75662371  0.38341133  0.31641959  1  0.096038  0  0.108699  0.112243  0  1.038331  0
H  H98  1  0.00662267  0.93358192  0.13340971  1  0.096063  0  0.108745  0.112346  0  1.038272  0
H  H99  1  0.49337689  0.06642113  0.63341219  1  0.09609  0  0.108731  0.112289  0  1.038277  0
H  H100  1  0.56641938  0.86658719  0.50662243  1  0.096077  0  0.1087  0.112275  0  1.038299  0
H  H101  1  0.06641689  0.63341073  0.49337848  1  0.096068  0  0.108737  0.112353  0  1.038287  0
H  H102  1  0.36658841  0.99337730  0.43357909  1  0.0961  0  0.10873  0.112294  0  1.03829  0
H  H103  1  0.63341181  0.49337602  0.06641752  1  0.096026  0  0.108721  0.112336  0  1.038283  0
Ru  Ru104  1  0.62499996  0.87500033  0.12499893  1  1.247151  0  0.999547  0.430419  0  4.314574  0
Ru  Ru105  1  0.37500015  0.37500112  0.37500015  1  1.247153  0  0.999542  0.430472  0  4.314566  0
Ru  Ru106  1  0.87500046  0.12500122  0.62500018  1  1.247119  0  0.999554  0.430431  0  4.314613  0
Ru  Ru107  1  0.12499873  0.62499829  0.87500133  1  1.247362  0  0.999541  0.430389  0  4.314647  0
C  C108  1  0.57115898  0.06590681  0.12080973  1  0.473677  0  0.04432  0.077334  0  3.903934  0
C  C109  1  0.18409454  0.32115910  0.37080812  1  0.473646  0  0.044357  0.077448  0  3.903845  0
C  C110  1  0.92884144  0.93409473  0.62081123  1  0.473627  0  0.04434  0.077402  0  3.903844  0
C  C111  1  0.31590501  0.67883965  0.87081195  1  0.473623  0  0.044322  0.077331  0  3.903816  0
C  C112  1  0.82115854  0.12919265  0.81590576  1  0.473666  0  0.044343  0.077385  0  3.903927  0
C  C113  1  0.07115804  0.43409394  0.87919323  1  0.47366  0  0.044352  0.077417  0  3.903905  0
C  C114  1  0.32115890  0.37081093  0.18409588  1  0.473628  0  0.044328  0.07738  0  3.903785  0
C  C115  1  0.87080984  0.31590623  0.67884024  1  0.473652  0  0.044327  0.077381  0  3.903933  0
C  C116  1  0.42884150  0.56590548  0.37919096  1  0.473642  0  0.04436  0.077436  0  3.903833  0
C  C117  1  0.12918692  0.81590390  0.82115953  1  0.473659  0  0.044318  0.077355  0  3.903852  0
C  C118  1  0.12080739  0.57115722  0.06590612  1  0.473673  0  0.044365  0.077468  0  3.90378  0
C  C119  1  0.06590585  0.12081206  0.57115961  1  0.473629  0  0.044302  0.07733  0  3.90397  0
C  C120  1  0.43409437  0.87919092  0.07115899  1  0.473664  0  0.044353  0.077362  0  3.903883  0
C  C121  1  0.62081055  0.92884075  0.93409349  1  0.473643  0  0.044319  0.077361  0  3.903948  0
C  C122  1  0.93409399  0.62080539  0.92884255  1  0.473585  0  0.044389  0.0775  0  3.903692  0
C  C123  1  0.37919153  0.42884119  0.56590641  1  0.473657  0  0.044355  0.077396  0  3.903881  0
C  C124  1  0.87918984  0.07115919  0.43409458  1  0.47365  0  0.044342  0.077375  0  3.903835  0
C  C125  1  0.56590575  0.37918998  0.42884140  1  0.473654  0  0.044351  0.077396  0  3.903868  0
C  C126  1  0.81590488  0.82115915  0.12918829  1  0.473622  0  0.044336  0.077393  0  3.903891  0
C  C127  1  0.68409554  0.17884305  0.62919027  1  0.474063  0  0.044335  0.077424  0  3.903832  0
C  C128  1  0.67884121  0.87081041  0.31590450  1  0.473631  0  0.044361  0.077392  0  3.903786  0
C  C129  1  0.17883935  0.62918696  0.68409510  1  0.473623  0  0.044283  0.077308  0  3.903944  0
C  C130  1  0.37080937  0.18409675  0.32115814  1  0.473479  0  0.044368  0.07741  0  3.903815  0
C  C131  1  0.62918927  0.68409408  0.17884008  1  0.473661  0  0.044301  0.077328  0  3.903959  0
C  C132  1  0.58475469  0.15529348  0.11790131  1  -0.117868  0  -0.076622  -0.103409  0  3.948841  0
C  C133  1  0.09470790  0.33475408  0.36789901  1  -0.117871  0  -0.076697  -0.103578  0  3.948811  0
C  C134  1  0.91524573  0.84470807  0.61790206  1  -0.11788  0  -0.076652  -0.103455  0  3.948756  0
C  C135  1  0.40529099  0.66524532  0.86790086  1  -0.117869  0  -0.076649  -0.103465  0  3.948804  0
C  C136  1  0.83475356  0.13210118  0.90529369  1  -0.117902  0  -0.076634  -0.103398  0  3.94882  0
C  C137  1  0.08475432  0.34470663  0.88210100  1  -0.117881  0  -0.076663  -0.103518  0  3.948773  0
C  C138  1  0.33475327  0.36790177  0.09470860  1  -0.117883  0  -0.07665  -0.103445  0  3.94879  0
C  C139  1  0.86790011  0.40529353  0.66524527  1  -0.117894  0  -0.076614  -0.103422  0  3.948825  0
C  C140  1  0.41524587  0.65529213  0.38209948  1  -0.117896  0  -0.076676  -0.103526  0  3.948831  0
C  C141  1  0.13209869  0.90529122  0.83475525  1  -0.11734  0  -0.076632  -0.103468  0  3.94876  0
C  C142  1  0.11789957  0.58475229  0.15529341  1  -0.117931  0  -0.076708  -0.103585  0  3.948807  0
C  C143  1  0.15529183  0.11789973  0.58475527  1  -0.11786  0  -0.076622  -0.103402  0  3.94879  0
C  C144  1  0.34470708  0.88210066  0.08475467  1  -0.117876  0  -0.076649  -0.103431  0  3.948716  0
C  C145  1  0.61790208  0.91524568  0.84470685  1  -0.11786  0  -0.076629  -0.103412  0  3.948771  0
C  C146  1  0.84470670  0.61789882  0.91524753  1  -0.117913  0  -0.076697  -0.103587  0  3.948761  0
C  C147  1  0.38210129  0.41524622  0.65529303  1  -0.117894  0  -0.076666  -0.103496  0  3.948759  0
C  C148  1  0.88209897  0.08475416  0.34470795  1  -0.117863  0  -0.076663  -0.10347  0  3.948698  0
C  C149  1  0.65529239  0.38209849  0.41524638  1  -0.117904  0  -0.076663  -0.10349  0  3.948816  0
C  C150  1  0.90529152  0.83475422  0.13210002  1  -0.117868  0  -0.076661  -0.103496  0  3.948744  0
C  C151  1  0.59470824  0.16524734  0.63209939  1  -0.117898  0  -0.076695  -0.103602  0  3.948848  0
C  C152  1  0.66524618  0.86790068  0.40529178  1  -0.117884  0  -0.076676  -0.103532  0  3.948822  0
C  C153  1  0.16524434  0.63209929  0.59470978  1  -0.117362  0  -0.076607  -0.103418  0  3.948836  0
C  C154  1  0.36790020  0.09470944  0.33475311  1  -0.117884  0  -0.076702  -0.10359  0  3.94886  0
C  C155  1  0.63209835  0.59470676  0.16524501  1  -0.117847  0  -0.076598  -0.103389  0  3.948816  0
C  C156  1  0.73869128  0.12824554  0.12230570  1  -0.004469  0  -0.076569  -0.145881  0  3.92881  0
C  C157  1  0.12175468  0.48869138  0.37230481  1  -0.004524  0  -0.076614  -0.145928  0  3.928929  0
C  C158  1  0.76130849  0.87175601  0.62230649  1  -0.004419  0  -0.076564  -0.145846  0  3.928826  0
C  C159  1  0.37824291  0.51130737  0.87230649  1  -0.004615  0  -0.076606  -0.145949  0  3.928768  0
C  C160  1  0.98869211  0.12769553  0.87824438  1  -0.004517  0  -0.076562  -0.145863  0  3.928768  0
C  C161  1  0.23869158  0.37175471  0.87769595  1  -0.004558  0  -0.076579  -0.145872  0  3.928811  0
C  C162  1  0.48869052  0.37230691  0.12175529  1  -0.004435  0  -0.076536  -0.14579  0  3.928734  0
C  C163  1  0.87230646  0.37824544  0.51130802  1  -0.004492  0  -0.076523  -0.145775  0  3.928688  0
C  C164  1  0.26130926  0.62824535  0.37769506  1  -0.004471  0  -0.076587  -0.145884  0  3.928904  0
C  C165  1  0.12769166  0.87824330  0.98869247  1  -0.004519  0  -0.076619  -0.145909  0  3.928968  0
C  C166  1  0.12230405  0.73869022  0.12824484  1  -0.004483  0  -0.076636  -0.145967  0  3.928797  0
C  C167  1  0.12824513  0.12230682  0.73869251  1  -0.004636  0  -0.076512  -0.1458  0  3.928737  0
C  C168  1  0.37175508  0.87769505  0.23869125  1  -0.004506  0  -0.076598  -0.145904  0  3.928809  0
C  C169  1  0.62230576  0.76130841  0.87175411  1  -0.004453  0  -0.076561  -0.145917  0  3.928811  0
C  C170  1  0.87175406  0.62230381  0.76130965  1  -0.004504  0  -0.076633  -0.145952  0  3.92886  0
C  C171  1  0.37769486  0.26130892  0.62824494  1  -0.004519  0  -0.076569  -0.145793  0  3.928805  0
C  C172  1  0.87769594  0.23869212  0.37175474  1  -0.004724  0  -0.076597  -0.145915  0  3.928868  0
C  C173  1  0.62824374  0.37769398  0.26130784  1  -0.004593  0  -0.076561  -0.145878  0  3.928848  0
C  C174  1  0.87824554  0.98869214  0.12769375  1  -0.004604  0  -0.076585  -0.145996  0  3.92883  0
C  C175  1  0.62175487  0.01131006  0.62769424  1  -0.00446  0  -0.076601  -0.145978  0  3.928904  0
C  C176  1  0.51130894  0.87230565  0.37824444  1  -0.004454  0  -0.076587  -0.145933  0  3.928838  0
C  C177  1  0.01130838  0.62769222  0.62175583  1  -0.004594  0  -0.07656  -0.145895  0  3.928761  0
C  C178  1  0.37230592  0.12175559  0.48869036  1  -0.00448  0  -0.076566  -0.145856  0  3.928921  0
C  C179  1  0.62769461  0.62175468  0.01130714  1  -0.004666  0  -0.076545  -0.145834  0  3.928722  0
C  C180  1  0.72145541  0.03886408  0.12443292  1  0.384327  0  0.107516  0.139912  0  3.981077  0
C  C181  1  0.21113675  0.47145560  0.37443337  1  0.312294  0  0.107543  0.140003  0  3.98104  0
C  C182  1  0.77854370  0.96113746  0.62443316  1  0.312276  0  0.107521  0.139973  0  3.981017  0
C  C183  1  0.28886149  0.52854316  0.87443378  1  0.312323  0  0.10759  0.140041  0  3.981086  0
C  C184  1  0.97145564  0.12556689  0.78886426  1  0.38429  0  0.107529  0.140019  0  3.980997  0
C  C185  1  0.22145450  0.46113485  0.87556677  1  0.384465  0  0.107545  0.140033  0  3.980937  0
C  C186  1  0.47145600  0.37443488  0.21113671  1  0.31227  0  0.107497  0.139888  0  3.981066  0
C  C187  1  0.87443435  0.28886400  0.52854444  1  0.384319  0  0.107491  0.13992  0  3.980917  0
C  C188  1  0.27854439  0.53886326  0.37556709  1  0.38434  0  0.107557  0.140031  0  3.981025  0
C  C189  1  0.12556499  0.78886184  0.97145725  1  0.312327  0  0.107558  0.139991  0  3.981174  0
C  C190  1  0.12443328  0.72145499  0.03886472  1  0.384443  0  0.107529  0.13999  0  3.980981  0
C  C191  1  0.03886240  0.12443469  0.72145735  1  0.312478  0  0.107504  0.139874  0  3.981005  0
C  C192  1  0.46113715  0.87556650  0.22145542  1  0.384329  0  0.107576  0.140052  0  3.980986  0
C  C193  1  0.62443304  0.77854428  0.96113684  1  0.312307  0  0.107503  0.139944  0  3.981043  0
C  C194  1  0.96113484  0.62443179  0.77854546  1  0.384452  0  0.107523  0.139952  0  3.980954  0
C  C195  1  0.37556629  0.27854469  0.53886353  1  0.384327  0  0.107534  0.139921  0  3.981089  0
C  C196  1  0.87556800  0.22145634  0.46113745  1  0.312498  0  0.107553  0.140027  0  3.980987  0
C  C197  1  0.53886361  0.37556798  0.27854366  1  0.384484  0  0.107491  0.139948  0  3.981072  0
C  C198  1  0.78886215  0.97145627  0.12556712  1  0.312495  0  0.107501  0.139942  0  3.981044  0
C  C199  1  0.71113696  0.02854463  0.62556632  1  0.384332  0  0.107536  0.139982  0  3.981044  0
C  C200  1  0.52854411  0.87443224  0.28886237  1  0.312284  0  0.107538  0.139976  0  3.98104  0
C  C201  1  0.02854290  0.62556435  0.71113920  1  0.312344  0  0.107562  0.140017  0  3.98109  0
C  C202  1  0.37443258  0.21113703  0.47145589  1  0.312286  0  0.107529  0.139987  0  3.981074  0
C  C203  1  0.62556673  0.71113614  0.02854366  1  0.384522  0  0.107526  0.139969  0  3.981  0
C  C204  1  0.66984444  0.18718247  0.11927086  1  0.106474  0  -0.069289  -0.028814  0  3.936365  0
C  C205  1  0.06281835  0.41984448  0.36926860  1  0.106551  0  -0.069287  -0.028831  0  3.936377  0
C  C206  1  0.83015532  0.81281908  0.61927158  1  0.106469  0  -0.069302  -0.028868  0  3.936296  0
C  C207  1  0.43718119  0.58015493  0.86927100  1  0.10649  0  -0.069294  -0.02883  0  3.93625  0
C  C208  1  0.91984330  0.13073105  0.93718198  1  0.106576  0  -0.069289  -0.028869  0  3.936241  0
C  C209  1  0.16984339  0.31281642  0.88073209  1  0.106596  0  -0.069265  -0.02882  0  3.936359  0
C  C210  1  0.41984301  0.36927132  0.06281900  1  0.106482  0  -0.069277  -0.028802  0  3.936333  0
C  C211  1  0.86926966  0.43718244  0.58015556  1  0.106515  0  -0.069293  -0.028871  0  3.936392  0
C  C212  1  0.33015680  0.68718104  0.38072931  1  0.106502  0  -0.069268  -0.028758  0  3.936336  0
C  C213  1  0.13072721  0.93718022  0.91984500  1  0.105853  0  -0.069262  -0.028792  0  3.936288  0
C  C214  1  0.11926914  0.66984142  0.18718240  1  0.10662  0  -0.069165  -0.028589  0  3.936116  0
C  C215  1  0.18718077  0.11927194  0.66984565  1  0.106456  0  -0.069344  -0.028937  0  3.936364  0
C  C216  1  0.31281813  0.88073115  0.16984439  1  0.10654  0  -0.069288  -0.028856  0  3.936334  0
C  C217  1  0.61927158  0.83015525  0.81281786  1  0.10646  0  -0.069289  -0.028797  0  3.936322  0
C  C218  1  0.81281711  0.61926830  0.83015780  1  0.106564  0  -0.069206  -0.028657  0  3.936325  0
C  C219  1  0.38073106  0.33015583  0.68718192  1  0.106548  0  -0.069285  -0.028878  0  3.93637  0
C  C220  1  0.88073013  0.16984521  0.31281841  1  0.106553  0  -0.069262  -0.028798  0  3.936304  0
C  C221  1  0.68718134  0.38072827  0.33015665  1  0.106488  0  -0.069257  -0.028717  0  3.936261  0
C  C222  1  0.93718050  0.91984464  0.13072793  1  0.10647  0  -0.06927  -0.028741  0  3.936314  0
C  C223  1  0.56281926  0.08015822  0.63072980  1  0.106528  0  -0.069227  -0.028639  0  3.936278  0
C  C224  1  0.58015644  0.86927020  0.43718072  1  0.106511  0  -0.069238  -0.028683  0  3.936174  0
C  C225  1  0.08015525  0.63072774  0.56281889  1  0.105926  0  -0.069312  -0.02886  0  3.936303  0
C  C226  1  0.36927037  0.06281989  0.41984217  1  0.106543  0  -0.069265  -0.028746  0  3.936297  0
C  C227  1  0.63072945  0.56281776  0.08015461  1  0.106485  0  -0.069317  -0.028906  0  3.936288  0
C  C228  1  0.98832603  0.23833173  0.12499595  1  1.577945  0  0.201067  0.456814  0  4.219474  0
C  C229  1  0.01166484  0.73832349  0.37499907  1  1.577899  0  0.201082  0.456885  0  4.219475  0
C  C230  1  0.51167439  0.76166722  0.62499599  1  1.577947  0  0.20113  0.456839  0  4.219471  0
C  C231  1  0.48833405  0.26167853  0.87500372  1  1.577911  0  0.201077  0.456805  0  4.219447  0
C  C232  1  0.23832791  0.12500112  0.98833044  1  1.577928  0  0.200989  0.456803  0  4.219668  0
C  C233  1  0.73833109  0.37500304  0.01167055  1  1.577908  0  0.201048  0.456751  0  4.219526  0
C  C234  1  0.87500325  0.48832420  0.26166884  1  1.577978  0  0.200998  0.456676  0  4.219588  0
C  C235  1  0.12499762  0.98833677  0.23832320  1  1.577851  0  0.20115  0.457079  0  4.219534  0
C  C236  1  0.26167228  0.87500297  0.48832592  1  1.577965  0  0.201  0.456858  0  4.219517  0
C  C237  1  0.62500042  0.51166447  0.76167836  1  1.577911  0  0.201076  0.456909  0  4.21938  0
C  C238  1  0.76167715  0.62499513  0.51166520  1  1.577883  0  0.201066  0.456813  0  4.219391  0
C  C239  1  0.37500453  0.01167422  0.73833214  1  1.577938  0  0.201043  0.456773  0  4.219439  0
C  C240  1  0.06028447  0.31029058  0.12499668  1  1.576239  0  0.20101  0.471963  0  4.216141  0
C  C241  1  0.93970386  0.81027929  0.37499712  1  1.575767  0  0.201039  0.471871  0  4.216028  0
C  C242  1  0.43971444  0.68971116  0.62499726  1  1.576236  0  0.201072  0.472083  0  4.215928  0
C  C243  1  0.56029198  0.18972058  0.87500107  1  1.575782  0  0.201087  0.472005  0  4.216054  0
C  C244  1  0.31028395  0.12500259  0.06028959  1  1.57622  0  0.201051  0.47194  0  4.216151  0
C  C245  1  0.81028837  0.37500163  0.93971139  1  1.575864  0  0.201117  0.472084  0  4.215858  0
C  C246  1  0.87500328  0.56028410  0.18971223  1  1.576207  0  0.201051  0.472019  0  4.216034  0
C  C247  1  0.12499915  0.06029370  0.31028194  1  1.575763  0  0.201119  0.471979  0  4.215994  0
C  C248  1  0.18971562  0.87500168  0.56028453  1  1.576574  0  0.201149  0.472063  0  4.21605  0
C  C249  1  0.62500364  0.43970384  0.68972232  1  1.575783  0  0.201054  0.471908  0  4.216027  0
C  C250  1  0.68971854  0.62499766  0.43970725  1  1.57576  0  0.201092  0.472063  0  4.215936  0
C  C251  1  0.37500301  0.93971607  0.81028996  1  1.576238  0  0.201009  0.472017  0  4.216103  0
N  N252  1  0.63757557  0.00813744  0.12430781  1  -1.1793  0  -0.352305  -0.203244  0  3.66467  0
N  N253  1  0.24186265  0.38757642  0.37430823  1  -1.179299  0  -0.352324  -0.203315  0  3.664654  0
N  N254  1  0.86242485  0.99186411  0.62430938  1  -1.179278  0  -0.352287  -0.203259  0  3.664545  0
N  N255  1  0.25813559  0.61242234  0.87431003  1  -1.179396  0  -0.352339  -0.203267  0  3.66465  0
N  N256  1  0.88757581  0.12569388  0.75813767  1  -1.179274  0  -0.352353  -0.203336  0  3.664666  0
N  N257  1  0.13757534  0.49186076  0.87569384  1  -1.179317  0  -0.352358  -0.203363  0  3.6647  0
N  N258  1  0.38757617  0.37430911  0.24186331  1  -1.179309  0  -0.352327  -0.203315  0  3.664692  0
N  N259  1  0.87430859  0.25813810  0.61242359  1  -1.179311  0  -0.352339  -0.203317  0  3.664697  0
N  N260  1  0.36242420  0.50813670  0.37569216  1  -1.179304  0  -0.352352  -0.203393  0  3.664755  0
N  N261  1  0.12568943  0.75813519  0.88757676  1  -1.179392  0  -0.352275  -0.203216  0  3.664622  0
N  N262  1  0.12430684  0.63757448  0.00813808  1  -1.179296  0  -0.352357  -0.203391  0  3.664632  0
N  N263  1  0.00813646  0.12431019  0.63757688  1  -1.179281  0  -0.35231  -0.203233  0  3.664624  0
N  N264  1  0.49186310  0.87569156  0.13757560  1  -1.179305  0  -0.352332  -0.203322  0  3.664727  0
N  N265  1  0.62430864  0.86242415  0.99186283  1  -1.179299  0  -0.352345  -0.20336  0  3.664772  0
N  N266  1  0.99186143  0.62430480  0.86242463  1  -1.179314  0  -0.352375  -0.203394  0  3.664546  0
N  N267  1  0.37569208  0.36242387  0.50813764  1  -1.17928  0  -0.352334  -0.203309  0  3.6648  0
N  N268  1  0.87569175  0.13757586  0.49186335  1  -1.179291  0  -0.352321  -0.2033  0  3.664617  0
N  N269  1  0.50813701  0.37569245  0.36242479  1  -1.179272  0  -0.352308  -0.203283  0  3.664626  0
N  N270  1  0.75813617  0.88757641  0.12569022  1  -1.179314  0  -0.35231  -0.203252  0  3.664616  0
N  N271  1  0.74186360  0.11242514  0.62569146  1  -1.179757  0  -0.352301  -0.203299  0  3.664706  0
N  N272  1  0.61242394  0.87430847  0.25813577  1  -1.179344  0  -0.352317  -0.203283  0  3.664597  0
N  N273  1  0.11242208  0.62568819  0.74186449  1  -1.179375  0  -0.352318  -0.203226  0  3.664733  0
N  N274  1  0.37430751  0.24186424  0.38757609  1  -1.179345  0  -0.352312  -0.203301  0  3.664657  0
N  N275  1  0.62569118  0.74186279  0.11242350  1  -1.179283  0  -0.352294  -0.203215  0  3.664535  0
O  O276  1  0.03643491  0.38758530  0.10840137  1  -1.167965  0  -0.305139  -0.51152  0  2.312898  0
O  O277  1  0.86240978  0.78642703  0.35840305  1  -1.167629  0  -0.305191  -0.51146  0  2.312934  0
O  O278  1  0.46356530  0.61241186  0.60840381  1  -1.167917  0  -0.305256  -0.511704  0  2.312576  0
O  O279  1  0.63758932  0.21357022  0.85840507  1  -1.167545  0  -0.305233  -0.511545  0  2.312746  0
O  O280  1  0.28642849  0.14159929  0.13758758  1  -1.167947  0  -0.305235  -0.511583  0  2.312842  0
O  O281  1  0.53643713  0.11242128  0.89159508  1  -1.167991  0  -0.305285  -0.511847  0  2.312572  0
O  O282  1  0.78643681  0.35840752  0.86241407  1  -1.167832  0  -0.305258  -0.511678  0  2.312623  0
O  O283  1  0.85840666  0.63758145  0.21356383  1  -1.168042  0  -0.305266  -0.511793  0  2.31265  0
O  O284  1  0.96355870  0.88758187  0.39159186  1  -1.167857  0  -0.305286  -0.511828  0  2.312305  0
O  O285  1  0.14159519  0.13759169  0.28643043  1  -1.167608  0  -0.305245  -0.511545  0  2.31269  0
O  O286  1  0.10840508  0.03643957  0.38758054  1  -1.167942  0  -0.305282  -0.511852  0  2.312577  0
O  O287  1  0.38758192  0.10840790  0.03643999  1  -1.167999  0  -0.305254  -0.511768  0  2.312618  0
O  O288  1  0.11241830  0.89159699  0.53643299  1  -1.168126  0  -0.305297  -0.511803  0  2.312666  0
O  O289  1  0.60840700  0.46355796  0.61241916  1  -1.167859  0  -0.305298  -0.511843  0  2.312379  0
O  O290  1  0.61241664  0.60840293  0.46356336  1  -1.168057  0  -0.30534  -0.511945  0  2.312516  0
O  O291  1  0.39159512  0.96356637  0.88758534  1  -1.167913  0  -0.305155  -0.511572  0  2.312772  0
O  O292  1  0.89159863  0.53643446  0.11241360  1  -1.167913  0  -0.305224  -0.511633  0  2.312736  0
O  O293  1  0.88758701  0.39159379  0.96356165  1  -1.167847  0  -0.305357  -0.511862  0  2.312608  0
O  O294  1  0.13758439  0.28643646  0.14159463  1  -1.168086  0  -0.305353  -0.511893  0  2.312597  0
O  O295  1  0.36241712  0.71356399  0.64159198  1  -1.168124  0  -0.305306  -0.511847  0  2.312552  0
O  O296  1  0.21356846  0.85840441  0.63758184  1  -1.168104  0  -0.30527  -0.511706  0  2.312576  0
O  O297  1  0.71356619  0.64159234  0.36241190  1  -1.167523  0  -0.305164  -0.51151  0  2.312756  0
O  O298  1  0.35840696  0.86241609  0.78643446  1  -1.168099  0  -0.305322  -0.511878  0  2.312499  0
O  O299  1  0.64159897  0.36241043  0.71357318  1  -1.16765  0  -0.305193  -0.511456  0  2.312979  0
O  O300  1  0.91004293  0.26215653  0.11404164  1  -1.16329  0  -0.304364  -0.508742  0  2.327262  0
O  O301  1  0.98784277  0.66003886  0.36404856  1  -1.163383  0  -0.304438  -0.508786  0  2.327142  0
O  O302  1  0.58996009  0.73783849  0.61404490  1  -1.163294  0  -0.304401  -0.508776  0  2.327053  0
O  O303  1  0.51215958  0.33996296  0.86405008  1  -1.163425  0  -0.304482  -0.5088  0  2.327018  0
O  O304  1  0.16003963  0.13595488  0.01215714  1  -1.163297  0  -0.304408  -0.508827  0  2.326949  0
O  O305  1  0.41004637  0.23784844  0.88595739  1  -1.162993  0  -0.304427  -0.508829  0  2.326479  0
O  O306  1  0.66004469  0.36404986  0.98784451  1  -1.163091  0  -0.304463  -0.508803  0  2.326727  0
O  O307  1  0.86404762  0.51215039  0.33995521  1  -1.163086  0  -0.304446  -0.508788  0  2.32666  0
O  O308  1  0.08995251  0.76215684  0.38595145  1  -1.162924  0  -0.304508  -0.508978  0  2.326489  0
O  O309  1  0.13595020  0.01216114  0.16003825  1  -1.163329  0  -0.304444  -0.508855  0  2.327002  0
O  O310  1  0.11404391  0.91004974  0.26215320  1  -1.162865  0  -0.304584  -0.509139  0  2.326705  0
O  O311  1  0.26215665  0.11404676  0.91004668  1  -1.163056  0  -0.304416  -0.508848  0  2.326886  0
O  O312  1  0.23784288  0.88595530  0.41004088  1  -1.163278  0  -0.30441  -0.508859  0  2.326947  0
O  O313  1  0.61404287  0.58995213  0.73784510  1  -1.162908  0  -0.304486  -0.508965  0  2.326423  0
O  O314  1  0.73784513  0.61404083  0.58995481  1  -1.163029  0  -0.304493  -0.508938  0  2.326358  0
O  O315  1  0.38595369  0.08995867  0.76215832  1  -1.163285  0  -0.304384  -0.508748  0  2.327138  0
O  O316  1  0.88595754  0.41003912  0.23784071  1  -1.163353  0  -0.304382  -0.508735  0  2.32693  0
O  O317  1  0.76215919  0.38595612  0.08995626  1  -1.163158  0  -0.304372  -0.508783  0  2.327041  0
O  O318  1  0.01215584  0.16004360  0.13595223  1  -1.163073  0  -0.304527  -0.508964  0  2.326459  0
O  O319  1  0.48784763  0.83995490  0.63594841  1  -1.163028  0  -0.304557  -0.508963  0  2.326572  0
O  O320  1  0.33995994  0.86405064  0.51215271  1  -1.163247  0  -0.304499  -0.508962  0  2.326704  0
O  O321  1  0.83995896  0.63594818  0.48784167  1  -1.1633  0  -0.304429  -0.508771  0  2.327178  0
O  O322  1  0.36405392  0.98784390  0.66004307  1  -1.163119  0  -0.304505  -0.508949  0  2.326458  0
O  O323  1  0.63595408  0.48784358  0.83996145  1  -1.16345  0  -0.304442  -0.50882  0  2.327157  0
