# generated using pymatgen
data_AlH13C20O7
_symmetry_space_group_name_H-M   'P 1'
_cell_length_a   6.74747406
_cell_length_b   25.66769946
_cell_length_c   28.81734818
_cell_angle_alpha   89.95095772
_cell_angle_beta   90.11991903
_cell_angle_gamma   90.12638641
_symmetry_Int_Tables_number   1
_chemical_formula_structural   AlH13C20O7
_chemical_formula_sum   'Al4 H52 C80 O28'
_cell_volume   4990.91320783
_cell_formula_units_Z   4
loop_
 _symmetry_equiv_pos_site_id
 _symmetry_equiv_pos_as_xyz
  1  'x, y, z'
loop_
 _atom_site_type_symbol
 _atom_site_label
 _atom_site_symmetry_multiplicity
 _atom_site_fract_x
 _atom_site_fract_y
 _atom_site_fract_z
 _atom_site_occupancy
 _atom_site_pbe_bader_charge
 _atom_site_pbe_bader_spin_density
 _atom_site_pbe_cm5_charge
 _atom_site_pbe_ddec_charge
 _atom_site_pbe_ddec_spin_density
 _atom_site_pbe_ddec_sum_bond_order
 _atom_site_pbe_magmom
Al  Al0  1  0.24147104  0.75160713  0.24946226  1  2.495232  0  0.404494  1.646287  0  2.565688  0
Al  Al1  1  0.76028058  0.24891021  0.75031385  1  2.494002  0  0.405134  1.651463  0  2.566334  0
Al  Al2  1  0.74207430  0.74848233  0.24980609  1  2.503094  0  0.403424  1.64064  0  2.576947  0
Al  Al3  1  0.26001938  0.25196400  0.75049624  1  2.505308  0  0.405065  1.651178  0  2.567734  0
H  H4  1  0.68358929  0.41766011  0.57902752  1  0.055528  0  0.104734  0.119752  0  1.017417  0
H  H5  1  0.32007746  0.58246582  0.42127376  1  0.048876  0  0.103621  0.118866  0  1.01799  0
H  H6  1  0.31768389  0.58136785  0.08023185  1  0.061041  0  0.104346  0.119074  0  1.018492  0
H  H7  1  0.68167583  0.41904679  0.91969513  1  0.090026  0  0.104609  0.119886  0  1.017451  0
H  H8  1  0.18382825  0.08183147  0.92048666  1  0.056897  0  0.104647  0.119565  0  1.018783  0
H  H9  1  0.82079182  0.92196133  0.08243650  1  0.053443  0  0.103296  0.117591  0  1.020135  0
H  H10  1  0.78360047  0.89335560  0.44231633  1  0.049231  0  0.101677  0.108504  0  1.029154  0
H  H11  1  0.17769520  0.08722946  0.57728132  1  0.077515  0  0.10341  0.116761  0  1.025223  0
H  H12  1  0.32447861  0.42051097  0.58038756  1  0.064672  0  0.096366  0.096325  0  1.032423  0
H  H13  1  0.67918389  0.57896271  0.42008089  1  0.033887  0  0.095556  0.095568  0  1.033044  0
H  H14  1  0.67659826  0.58135720  0.07855687  1  0.016746  0  0.096064  0.095484  0  1.034131  0
H  H15  1  0.32271208  0.42000259  0.92135929  1  0.054541  0  0.096662  0.096822  0  1.032687  0
H  H16  1  0.82502011  0.08106865  0.92102312  1  0.047577  0  0.096918  0.097401  0  1.033251  0
H  H17  1  0.17977477  0.91894567  0.07894164  1  0.034512  0  0.095235  0.09503  0  1.034575  0
H  H18  1  0.20011746  0.94253688  0.39905072  1  0.049464  0  0.098869  0.102024  0  1.019149  0
H  H19  1  0.81838022  0.07632953  0.58410688  1  0.031715  0  0.095537  0.094394  0  1.042242  0
H  H20  1  0.32394026  0.35607080  0.64351552  1  0.138275  0  0.104059  0.113316  0  1.052068  0
H  H21  1  0.67850022  0.64326416  0.35678427  1  0.148157  0  0.103464  0.113671  0  1.051576  0
H  H22  1  0.67710410  0.64458964  0.14252128  1  0.135017  0  0.104259  0.113342  0  1.051183  0
H  H23  1  0.32376994  0.35684128  0.85737804  1  0.136043  0  0.103226  0.112083  0  1.053241  0
H  H24  1  0.82470368  0.14423370  0.85707228  1  0.133626  0  0.103126  0.111944  0  1.053454  0
H  H25  1  0.18045708  0.85530514  0.14274220  1  0.135177  0  0.105594  0.116593  0  1.04719  0
H  H26  1  0.20692452  0.87559857  0.33733172  1  0.078723  0  0.108637  0.110806  0  0.999671  0
H  H27  1  0.81976078  0.14018600  0.64643864  1  0.151902  0  0.104559  0.112939  0  1.047633  0
H  H28  1  0.27617329  0.43597057  0.50592114  1  0.075436  0  0.102744  0.102071  0  1.005272  0
H  H29  1  0.72778910  0.56378883  0.49445742  1  0.051854  0  0.102355  0.101832  0  1.004323  0
H  H30  1  0.72140111  0.50141545  0.05606849  1  0.067261  0  0.102815  0.10176  0  1.005864  0
H  H31  1  0.27708285  0.49980111  0.94365658  1  0.051731  0  0.102267  0.10111  0  1.005924  0
H  H32  1  0.78272876  0.00249385  0.94521487  1  0.033082  0  0.101902  0.100792  0  1.006979  0
H  H33  1  0.22178471  0.99898541  0.05614869  1  0.064326  0  0.102554  0.101607  0  1.006374  0
H  H34  1  0.17326074  0.96699205  0.46964302  1  0.045407  0  0.096158  0.08991  0  1.032096  0
H  H35  1  0.81415448  0.03210457  0.53020437  1  0.061216  0  0.099006  0.093942  0  1.033853  0
H  H36  1  0.27443190  0.49999115  0.44252155  1  0.079655  0  0.102988  0.102823  0  1.004095  0
H  H37  1  0.72929917  0.49975806  0.55782188  1  0.033818  0  0.101856  0.100596  0  1.005019  0
H  H38  1  0.72275979  0.43719319  0.99310278  1  0.051708  0  0.102393  0.101595  0  1.003424  0
H  H39  1  0.27550632  0.56405134  0.00659826  1  0.050651  0  0.102627  0.102039  0  1.004885  0
H  H40  1  0.78139259  0.93870090  0.00855943  1  0.048623  0  0.102831  0.102517  0  1.003533  0
H  H41  1  0.22310070  0.06286984  0.99292624  1  0.050003  0  0.102035  0.100715  0  1.005099  0
H  H42  1  0.17503202  0.03101478  0.53171435  1  0.049043  0  0.098323  0.09319  0  1.032765  0
H  H43  1  0.81165671  0.96917349  0.46748482  1  0.01562  0  0.096019  0.090273  0  1.030893  0
H  H44  1  0.67715476  0.32608570  0.66982574  1  0.650498  0  0.314011  0.352597  0  0.973368  0
H  H45  1  0.32317516  0.67369473  0.32997205  1  0.650848  0  0.312718  0.352628  0  0.974745  0
H  H46  1  0.32394011  0.67500215  0.16919219  1  0.650886  0  0.315671  0.354969  0  0.968418  0
H  H47  1  0.67784607  0.32572833  0.83055123  1  0.653215  0  0.314185  0.352933  0  0.973224  0
H  H48  1  0.17888836  0.17553319  0.83156688  1  0.647723  0  0.313862  0.351637  0  0.97508  0
H  H49  1  0.82878516  0.82856101  0.17178682  1  0.635656  0  0.31606  0.360292  0  0.95957  0
H  H50  1  0.92586845  0.83335060  0.40040504  1  0.602835  0  0.336809  0.360134  0  0.878416  0
H  H51  1  0.17482131  0.17677274  0.66839932  1  0.638291  0  0.315811  0.35639  0  0.964507  0
H  H52  1  0.48942170  0.68015574  0.25052744  1  0.591881  0  0.355811  0.432963  0  0.845957  0
H  H53  1  0.51198045  0.32002221  0.75082969  1  0.590343  0  0.358167  0.435014  0  0.843699  0
H  H54  1  0.98607051  0.81269416  0.27016243  1  0.656216  0  0.352185  0.428052  0  0.860413  0
H  H55  1  0.01105909  0.18084517  0.75367964  1  0.602421  0  0.357585  0.434744  0  0.844828  0
C  C56  1  0.49569258  0.81186638  0.31284854  1  1.552213  0  0.268983  0.668371  0  4.072528  0
C  C57  1  0.50951128  0.18687914  0.68724978  1  1.50366  0  0.263485  0.655649  0  4.076504  0
C  C58  1  0.51177651  0.18733916  0.81399941  1  1.473024  0  0.263401  0.659387  0  4.068531  0
C  C59  1  0.49272881  0.81312795  0.18641826  1  1.475855  0  0.263378  0.653966  0  4.081336  0
C  C60  1  0.98973760  0.68739034  0.18599415  1  1.477809  0  0.265356  0.657136  0  4.069522  0
C  C61  1  0.01177261  0.31386602  0.81366289  1  1.486908  0  0.264167  0.659104  0  4.07137  0
C  C62  1  0.01107879  0.31326180  0.68666680  1  1.472187  0  0.263939  0.658623  0  4.071154  0
C  C63  1  0.99018962  0.68608772  0.31314156  1  1.487529  0  0.262371  0.655959  0  4.076946  0
C  C64  1  0.82419955  0.36894942  0.62935685  1  0.489021  0  0.095122  0.327084  0  4.058494  0
C  C65  1  0.17829135  0.63099179  0.37090141  1  0.501001  0  0.09424  0.32729  0  4.06084  0
C  C66  1  0.17679263  0.63203658  0.12870567  1  0.525187  0  0.095289  0.326948  0  4.060056  0
C  C67  1  0.82377120  0.36866958  0.87118725  1  0.494311  0  0.096821  0.330277  0  4.058143  0
C  C68  1  0.32506484  0.13228661  0.87177246  1  0.535945  0  0.095987  0.329945  0  4.055619  0
C  C69  1  0.68022280  0.87029048  0.13037655  1  0.530563  0  0.09601  0.327273  0  4.062658  0
C  C70  1  0.66527069  0.85502907  0.38233431  1  0.498652  0  0.094059  0.318473  0  4.054127  0
C  C71  1  0.32109256  0.13341589  0.62835260  1  0.484158  0  0.096101  0.327319  0  4.060544  0
C  C72  1  0.82576899  0.40536311  0.59320304  1  0.00401  0  -0.105929  -0.262392  0  3.933202  0
C  C73  1  0.17758790  0.59465359  0.40716272  1  -0.03928  0  -0.108408  -0.266346  0  3.936919  0
C  C74  1  0.17532581  0.59530601  0.09284814  1  0.046955  0  -0.10657  -0.263103  0  3.933618  0
C  C75  1  0.82437096  0.40536513  0.90705490  1  -0.059748  0  -0.106403  -0.263993  0  3.933467  0
C  C76  1  0.32635986  0.09551031  0.90761024  1  0.055581  0  -0.106241  -0.262993  0  3.930063  0
C  C77  1  0.67854724  0.90718428  0.09455108  1  0.02238  0  -0.107419  -0.263715  0  3.937203  0
C  C78  1  0.65723571  0.89114402  0.41864305  1  -0.01445  0  -0.113613  -0.294798  0  3.985727  0
C  C79  1  0.32132602  0.09735400  0.59196724  1  0.049233  0  -0.105203  -0.258212  0  3.928379  0
C  C80  1  0.00372070  0.42425079  0.57488441  1  -0.021857  0  0.001926  0.106465  0  4.022067  0
C  C81  1  0.99997378  0.57559771  0.42553046  1  0.003484  0  -0.000355  0.103393  0  4.025822  0
C  C82  1  0.99748729  0.57623314  0.07448618  1  -0.083986  0  0.000729  0.104095  0  4.024111  0
C  C83  1  0.00176865  0.42477718  0.92538603  1  0.015733  0  0.0026  0.108475  0  4.019771  0
C  C84  1  0.50405285  0.07619344  0.92574264  1  -0.116333  0  0.002607  0.108331  0  4.016588  0
C  C85  1  0.50069971  0.92542302  0.07566294  1  -0.066361  0  -0.001309  0.100562  0  4.029052  0
C  C86  1  0.49223024  0.92319841  0.42578935  1  -0.020627  0  -0.00131  0.113327  0  4.021651  0
C  C87  1  0.49731565  0.07578016  0.57510750  1  -0.078408  0  0.000802  0.101967  0  4.011659  0
C  C88  1  0.18405209  0.40565704  0.59355148  1  -0.082242  0  -0.104199  -0.167277  0  4.002084  0
C  C89  1  0.81934847  0.59397862  0.40689843  1  0.006833  0  -0.106702  -0.170981  0  4.007768  0
C  C90  1  0.81709062  0.59464408  0.09305405  1  0.042651  0  -0.104585  -0.167655  0  4.005578  0
C  C91  1  0.18252742  0.40653000  0.90683419  1  -0.038948  0  -0.104858  -0.169017  0  4.002421  0
C  C92  1  0.68439344  0.09447780  0.90679320  1  0.043982  0  -0.10459  -0.168773  0  4.002782  0
C  C93  1  0.32027408  0.90615920  0.09370046  1  -0.035081  0  -0.105549  -0.168287  0  4.007349  0
C  C94  1  0.32845994  0.91713185  0.39576272  1  -0.044958  0  -0.108518  -0.17919  0  4.021357  0
C  C95  1  0.67744410  0.09199846  0.59580094  1  -0.013675  0  -0.105298  -0.167241  0  3.99896  0
C  C96  1  0.18410301  0.36978373  0.62934786  1  -0.013261  0  -0.08321  -0.052116  0  4.004375  0
C  C97  1  0.81857524  0.62975545  0.37098837  1  -0.057133  0  -0.083375  -0.05151  0  4.005921  0
C  C98  1  0.81694688  0.63054540  0.12878227  1  -0.059859  0  -0.082534  -0.051157  0  4.001333  0
C  C99  1  0.18355304  0.37066760  0.87109376  1  -0.039432  0  -0.082553  -0.050502  0  4.006004  0
C  C100  1  0.68469684  0.13036526  0.87102539  1  -0.035827  0  -0.083204  -0.051343  0  4.005049  0
C  C101  1  0.32017244  0.86998283  0.12927517  1  0.007664  0  -0.082979  -0.054011  0  4.00241  0
C  C102  1  0.33318217  0.88028460  0.36060245  1  0.014066  0  -0.083801  -0.06897  0  4.025314  0
C  C103  1  0.67925513  0.12793720  0.63147707  1  -0.017348  0  -0.080673  -0.048243  0  4.001456  0
C  C104  1  0.00604087  0.35066384  0.64822625  1  0.053658  0  -0.042284  -0.214847  0  4.004659  0
C  C105  1  0.99610237  0.64897881  0.35200876  1  0.033208  0  -0.042615  -0.212597  0  3.997009  0
C  C106  1  0.99488244  0.64995094  0.14758692  1  0.00485  0  -0.04039  -0.21187  0  3.997337  0
C  C107  1  0.00601979  0.35104058  0.85220709  1  0.034754  0  -0.043128  -0.215668  0  4.003888  0
C  C108  1  0.50679323  0.15003131  0.85247532  1  -0.031699  0  -0.042908  -0.216455  0  4.004796  0
C  C109  1  0.49811249  0.85118923  0.14840024  1  0.017796  0  -0.040988  -0.210154  0  3.998644  0
C  C110  1  0.49990594  0.84885973  0.35249456  1  -0.027184  0  -0.027349  -0.163818  0  3.926638  0
C  C111  1  0.50291371  0.14934197  0.64886109  1  -0.007069  0  -0.039021  -0.208717  0  3.998926  0
C  C112  1  0.15678590  0.46448104  0.50406509  1  -0.050778  0  -0.089119  -0.123046  0  3.990472  0
C  C113  1  0.84729828  0.53532710  0.49636347  1  -0.023751  0  -0.089859  -0.125242  0  3.989564  0
C  C114  1  0.84251814  0.50182117  0.03106759  1  -0.044445  0  -0.089101  -0.1234  0  3.987573  0
C  C115  1  0.15593609  0.49938097  0.96863840  1  -0.041705  0  -0.089131  -0.122468  0  3.991545  0
C  C116  1  0.66035831  0.00257555  0.96987334  1  0.004857  0  -0.089296  -0.123683  0  3.991858  0
C  C117  1  0.34429939  0.99903854  0.03153186  1  -0.057886  0  -0.089073  -0.123731  0  3.988491  0
C  C118  1  0.31530474  0.98139572  0.48243193  1  -0.040331  0  -0.090551  -0.122538  0  3.993871  0
C  C119  1  0.67163021  0.01808480  0.51755742  1  -0.054791  0  -0.0877  -0.117195  0  3.982839  0
C  C120  1  0.15592214  0.50073001  0.46819193  1  -0.07378  0  -0.090631  -0.126052  0  3.99229  0
C  C121  1  0.84805078  0.49906562  0.53220987  1  -0.015913  0  -0.089979  -0.12336  0  3.991913  0
C  C122  1  0.84332774  0.46544699  0.99537135  1  -0.009509  0  -0.089519  -0.12355  0  3.988352  0
C  C123  1  0.15505238  0.53577150  0.00431378  1  -0.019703  0  -0.089097  -0.124382  0  3.990826  0
C  C124  1  0.65965908  0.96641762  0.00579754  1  -0.060913  0  -0.090363  -0.125174  0  3.98959  0
C  C125  1  0.34502685  0.03520816  0.99562502  1  -0.027321  0  -0.09102  -0.124566  0  3.990378  0
C  C126  1  0.31667501  0.01782677  0.51805785  1  0.007689  0  -0.087012  -0.117039  0  3.980869  0
C  C127  1  0.67045729  0.98177461  0.48189751  1  0.02289  0  -0.09042  -0.120063  0  3.992385  0
C  C128  1  0.00128593  0.53703484  0.46353537  1  0.000639  0  -0.006042  0.067055  0  3.995418  0
C  C129  1  0.00279369  0.46279149  0.53688449  1  -0.02425  0  -0.008457  0.062386  0  3.998235  0
C  C130  1  0.00010388  0.46333864  0.96331581  1  -0.019083  0  -0.007789  0.061987  0  3.998027  0
C  C131  1  0.99853260  0.53780356  0.03643537  1  -0.037158  0  -0.006089  0.066974  0  3.993427  0
C  C132  1  0.50176076  0.96379433  0.03751628  1  0.022863  0  -0.00499  0.068862  0  3.993623  0
C  C133  1  0.50296523  0.03785173  0.96390107  1  -0.031791  0  -0.008067  0.062166  0  3.997296  0
C  C134  1  0.49482858  0.03724328  0.53690734  1  -0.024451  0  -0.00298  0.070898  0  3.975405  0
C  C135  1  0.49237968  0.96212849  0.46342153  1  -0.034292  0  -0.008136  0.064849  0  3.993686  0
O  O136  1  0.66158011  0.79645915  0.20193871  1  -1.263511  0  -0.239334  -0.610339  0  2.390025  0
O  O137  1  0.34250543  0.20373254  0.79805696  1  -1.26225  0  -0.243038  -0.620686  0  2.384624  0
O  O138  1  0.34085314  0.20330473  0.70305613  1  -1.262131  0  -0.240096  -0.614459  0  2.386463  0
O  O139  1  0.66067721  0.79695638  0.29625085  1  -1.257281  0  -0.233677  -0.590648  0  2.367432  0
O  O140  1  0.15971683  0.70202888  0.29700951  1  -1.260128  0  -0.244493  -0.621341  0  2.38944  0
O  O141  1  0.84193380  0.29690168  0.70260135  1  -1.259938  0  -0.241663  -0.61778  0  2.386663  0
O  O142  1  0.84265714  0.29755124  0.79748934  1  -1.256194  0  -0.243462  -0.621806  0  2.38986  0
O  O143  1  0.15877739  0.70411514  0.20171813  1  -1.261598  0  -0.239723  -0.611948  0  2.386671  0
O  O144  1  0.32470779  0.79848793  0.29752053  1  -1.253321  0  -0.241608  -0.611618  0  2.329897  0
O  O145  1  0.67660578  0.20111474  0.70341969  1  -1.263056  0  -0.234566  -0.58584  0  2.340464  0
O  O146  1  0.67827210  0.20159712  0.79750439  1  -1.265495  0  -0.237594  -0.593999  0  2.343087  0
O  O147  1  0.32600403  0.79879133  0.20262973  1  -1.256528  0  -0.234341  -0.58358  0  2.343819  0
O  O148  1  0.82367602  0.70146505  0.20249674  1  -1.258587  0  -0.232987  -0.582337  0  2.341039  0
O  O149  1  0.17848355  0.29965355  0.79738511  1  -1.265244  0  -0.237382  -0.59285  0  2.3413  0
O  O150  1  0.17754639  0.29885716  0.70305580  1  -1.271277  0  -0.236805  -0.591061  0  2.342436  0
O  O151  1  0.82315229  0.70009194  0.29691874  1  -1.262898  0  -0.235109  -0.588331  0  2.343955  0
O  O152  1  0.48922494  0.71788478  0.24970988  1  -1.397305  0  -0.448713  -0.99122  0  2.173831  0
O  O153  1  0.51225479  0.28228216  0.75016588  1  -1.395683  0  -0.448015  -0.991893  0  2.172989  0
O  O154  1  0.99040828  0.78213545  0.25034158  1  -1.460674  0  -0.447768  -0.981193  0  2.154585  0
O  O155  1  0.01185000  0.21841827  0.75044936  1  -1.406988  0  -0.448419  -0.99279  0  2.174539  0
O  O156  1  0.64646663  0.35208571  0.64491837  1  -1.163061  0  -0.344104  -0.437044  0  2.31124  0
O  O157  1  0.35548970  0.64811947  0.35524868  1  -1.172366  0  -0.345763  -0.43956  0  2.310188  0
O  O158  1  0.35443907  0.64893128  0.14437807  1  -1.167721  0  -0.343512  -0.437531  0  2.310742  0
O  O159  1  0.64639080  0.35145160  0.85556677  1  -1.169719  0  -0.344813  -0.438456  0  2.310682  0
O  O160  1  0.14744209  0.14957793  0.85646770  1  -1.163423  0  -0.345665  -0.439719  0  2.309416  0
O  O161  1  0.85785443  0.85466107  0.14681017  1  -1.147956  0  -0.341977  -0.435936  0  2.309386  0
O  O162  1  0.82940676  0.82489807  0.37626855  1  -1.108333  0  -0.335337  -0.418905  0  2.287264  0
O  O163  1  0.14420758  0.15208811  0.64244579  1  -1.15499  0  -0.343255  -0.436716  0  2.302351  0
