# generated using pymatgen
data_CdH16C20N2(ClO)2
_symmetry_space_group_name_H-M   'P 1'
_cell_length_a   12.48103817
_cell_length_b   15.26392991
_cell_length_c   14.99859293
_cell_angle_alpha   95.00564624
_cell_angle_beta   114.59362222
_cell_angle_gamma   114.16381760
_symmetry_Int_Tables_number   1
_chemical_formula_structural   CdH16C20N2(ClO)2
_chemical_formula_sum   'Cd4 H64 C80 N8 Cl8 O8'
_cell_volume   2253.32223585
_cell_formula_units_Z   4
loop_
 _symmetry_equiv_pos_site_id
 _symmetry_equiv_pos_as_xyz
  1  'x, y, z'
loop_
 _atom_site_type_symbol
 _atom_site_label
 _atom_site_symmetry_multiplicity
 _atom_site_fract_x
 _atom_site_fract_y
 _atom_site_fract_z
 _atom_site_occupancy
 _atom_site_pbe_bader_charge
 _atom_site_pbe_bader_spin_density
 _atom_site_pbe_cm5_charge
 _atom_site_pbe_ddec_charge
 _atom_site_pbe_ddec_spin_density
 _atom_site_pbe_ddec_sum_bond_order
 _atom_site_pbe_magmom
Cd  Cd0  1  0.18967805  0.59618936  0.05866364  1  1.165843  0  0.607108  0.80944  0  2.401333  0
Cd  Cd1  1  0.03502845  0.90381934  0.44154436  1  1.166432  0  0.607301  0.809759  0  2.400116  0
Cd  Cd2  1  0.81032258  0.40381216  0.94133860  1  1.165831  0  0.607111  0.809485  0  2.401286  0
Cd  Cd3  1  0.96496804  0.09617991  0.55845559  1  1.166438  0  0.607312  0.809751  0  2.400156  0
H  H4  1  0.47132228  0.72788937  0.27811551  1  0.12407  0  0.101562  0.083124  0  1.026027  0
H  H5  1  0.96542411  0.77248181  0.22204601  1  0.109056  0  0.101397  0.083523  0  1.024701  0
H  H6  1  0.52867832  0.27211217  0.72188072  1  0.124058  0  0.101545  0.08308  0  1.026017  0
H  H7  1  0.03457700  0.22752046  0.77795379  1  0.108952  0  0.101383  0.083495  0  1.024708  0
H  H8  1  0.60981553  0.89673131  0.41521417  1  0.122193  0  0.097097  0.122275  0  1.036378  0
H  H9  1  0.79791001  0.60377685  0.08475251  1  0.109305  0  0.097444  0.122866  0  1.035078  0
H  H10  1  0.39018508  0.10327021  0.58478540  1  0.122192  0  0.097082  0.12227  0  1.036386  0
H  H11  1  0.20209071  0.39622619  0.91524657  1  0.109199  0  0.097454  0.122902  0  1.035063  0
H  H12  1  0.29270186  0.96417849  0.24115937  1  0.09008  0  0.098327  0.114718  0  1.024659  0
H  H13  1  0.58695139  0.53574208  0.25846331  1  0.093265  0  0.098337  0.115001  0  1.025335  0
H  H14  1  0.70729600  0.03582152  0.75884112  1  0.090146  0  0.098332  0.114721  0  1.024638  0
H  H15  1  0.41304644  0.46425794  0.74153184  1  0.093289  0  0.098327  0.114961  0  1.025341  0
H  H16  1  0.17006995  0.79370149  0.11299502  1  0.136679  0  0.114021  0.096669  0  0.99773  0
H  H17  1  0.76304669  0.70613985  0.38686250  1  0.11486  0  0.114141  0.097158  0  0.997463  0
H  H18  1  0.82992702  0.20629853  0.88700317  1  0.136727  0  0.114035  0.096714  0  0.99775  0
H  H19  1  0.23695105  0.29385865  0.61313581  1  0.114835  0  0.114143  0.097167  0  0.997464  0
H  H20  1  0.64687853  0.05811393  0.47599281  1  0.1416  0  0.10791  0.113915  0  1.017993  0
H  H21  1  0.61276665  0.44215065  0.02380014  1  0.103459  0  0.108489  0.114812  0  1.01797  0
H  H22  1  0.35311258  0.94188381  0.52400715  1  0.141543  0  0.107884  0.113865  0  1.017956  0
H  H23  1  0.38723306  0.55785088  0.97619579  1  0.103514  0  0.108429  0.114749  0  1.01798  0
H  H24  1  0.41694991  0.10661294  0.36311686  1  0.093112  0  0.100205  0.107408  0  1.018649  0
H  H25  1  0.44733691  0.39325401  0.13680252  1  0.084698  0  0.099854  0.106106  0  1.0185  0
H  H26  1  0.58304306  0.89338632  0.63688322  1  0.093073  0  0.100215  0.107367  0  1.018735  0
H  H27  1  0.55266721  0.60674752  0.86319625  1  0.084637  0  0.099872  0.106122  0  1.018441  0
H  H28  1  0.75911874  0.18417957  0.60172230  1  0.142171  0  0.117061  0.135217  0  1.003451  0
H  H29  1  0.47333888  0.31577265  0.89828138  1  0.148647  0  0.116827  0.13476  0  1.004401  0
H  H30  1  0.24087603  0.81581968  0.39828305  1  0.142138  0  0.117067  0.135152  0  1.003534  0
H  H31  1  0.52665646  0.68422888  0.10171839  1  0.148802  0  0.11683  0.134742  0  1.004456  0
H  H32  1  0.90513585  0.35752982  0.72527151  1  0.187353  0  0.119136  0.111303  0  1.042044  0
H  H33  1  0.32234328  0.14239454  0.77470176  1  0.177861  0  0.118977  0.11104  0  1.042912  0
H  H34  1  0.09486104  0.64246867  0.27473184  1  0.18728  0  0.119128  0.111312  0  1.042021  0
H  H35  1  0.67765646  0.85760699  0.22529751  1  0.17788  0  0.118999  0.111069  0  1.042878  0
H  H36  1  0.64549372  0.45556763  0.55063520  1  0.100389  0  0.136536  0.111298  0  0.966476  0
H  H37  1  0.13923899  0.04427112  0.94935149  1  0.119681  0  0.136662  0.111525  0  0.966444  0
H  H38  1  0.35451205  0.54443238  0.44936399  1  0.100343  0  0.136546  0.111333  0  0.966444  0
H  H39  1  0.86076554  0.95572964  0.05065068  1  0.11964  0  0.13664  0.111495  0  0.966447  0
H  H40  1  0.48157400  0.28316706  0.42108160  1  0.1024  0  0.120344  0.131988  0  0.969842  0
H  H41  1  0.27740471  0.21666725  0.07891697  1  0.090769  0  0.120348  0.131722  0  0.968968  0
H  H42  1  0.51842847  0.71683598  0.57891608  1  0.102498  0  0.120343  0.131962  0  0.969819  0
H  H43  1  0.72259592  0.78333427  0.92108460  1  0.091022  0  0.120369  0.131754  0  0.969019  0
H  H44  1  0.92586403  0.50947527  0.79000479  1  0.167578  0  0.106639  0.115277  0  1.036684  0
H  H45  1  0.12614862  0.99033019  0.71005410  1  0.160404  0  0.106432  0.115251  0  1.036613  0
H  H46  1  0.07413885  0.49052701  0.20999629  1  0.167639  0  0.106631  0.115226  0  1.036654  0
H  H47  1  0.87385739  0.00967284  0.28994746  1  0.160246  0  0.106422  0.115232  0  1.036669  0
H  H48  1  0.82147585  0.55441233  0.71153273  1  0.081614  0  0.114864  0.107429  0  0.973481  0
H  H49  1  0.05545688  0.94550917  0.78864827  1  0.07606  0  0.114791  0.107798  0  0.974518  0
H  H50  1  0.17852616  0.44558994  0.28847005  1  0.081638  0  0.114865  0.107417  0  0.97347  0
H  H51  1  0.94454716  0.05449083  0.21135433  1  0.07602  0  0.114817  0.107816  0  0.974518  0
H  H52  1  0.09313545  0.48963041  0.73796648  1  0.083378  0  0.095755  0.095744  0  1.036101  0
H  H53  1  0.36536191  0.01017963  0.76205157  1  0.052913  0  0.09575  0.096047  0  1.036251  0
H  H54  1  0.90685855  0.51036507  0.26203226  1  0.083549  0  0.095749  0.09575  0  1.036097  0
H  H55  1  0.63464437  0.98982113  0.23794987  1  0.052917  0  0.095749  0.096035  0  1.03626  0
H  H56  1  0.25984783  0.57528878  0.68296871  1  0.042516  0  0.092237  0.086338  0  1.020411  0
H  H57  1  0.50145768  0.92461255  0.81711188  1  0.05044  0  0.092515  0.086968  0  1.019949  0
H  H58  1  0.74014530  0.42470142  0.31702658  1  0.042297  0  0.092258  0.086323  0  1.020482  0
H  H59  1  0.49854347  0.07538444  0.18288811  1  0.050512  0  0.092512  0.086979  0  1.020006  0
H  H60  1  0.24842058  0.70927290  0.59895745  1  0.06773  0  0.093099  0.091396  0  1.050157  0
H  H61  1  0.44001630  0.79070490  0.90129008  1  0.066558  0  0.093055  0.091463  0  1.049255  0
H  H62  1  0.75157871  0.29071730  0.40103861  1  0.067695  0  0.093139  0.09148  0  1.050082  0
H  H63  1  0.55998597  0.20929511  0.09871192  1  0.066586  0  0.093058  0.091457  0  1.049211  0
H  H64  1  0.90310307  0.66791410  0.62392883  1  0.089483  0  0.099611  0.104728  0  1.013895  0
H  H65  1  0.11105712  0.83200242  0.87624722  1  0.092234  0  0.099985  0.105329  0  1.01295  0
H  H66  1  0.09690018  0.33208743  0.37607164  1  0.089689  0  0.099631  0.104755  0  1.013943  0
H  H67  1  0.88894249  0.16799759  0.12375053  1  0.092196  0  0.099971  0.10528  0  1.012986  0
C  C68  1  0.43725190  0.78373348  0.27370289  1  0.440993  0  0.036695  0.083144  0  3.968035  0
C  C69  1  0.87982537  0.71654073  0.22636941  1  0.468837  0  0.036365  0.082221  0  3.965722  0
C  C70  1  0.56274960  0.21626804  0.72629832  1  0.441056  0  0.036805  0.083296  0  3.968112  0
C  C71  1  0.12017459  0.28346382  0.77363022  1  0.468981  0  0.036392  0.082259  0  3.965883  0
C  C72  1  0.51287503  0.87706513  0.34933484  1  -0.021347  0  -0.082757  -0.168911  0  3.924222  0
C  C73  1  0.78639914  0.62327972  0.15059502  1  -0.014816  0  -0.08308  -0.169861  0  3.924862  0
C  C74  1  0.48712373  0.12293488  0.65066662  1  -0.021351  0  -0.082704  -0.168885  0  3.924194  0
C  C75  1  0.21360246  0.37672331  0.84940436  1  -0.014694  0  -0.083221  -0.170134  0  3.925126  0
C  C76  1  0.46456225  0.94630515  0.33921285  1  -0.021689  0  0.006618  0.132924  0  4.004933  0
C  C77  1  0.67884032  0.55389371  0.16054933  1  -0.013744  0  0.006714  0.134535  0  4.004877  0
C  C78  1  0.53543572  0.05369638  0.66078514  1  -0.021862  0  0.006566  0.132903  0  4.005107  0
C  C79  1  0.32115977  0.44610706  0.83944733  1  -0.014268  0  0.006797  0.134642  0  4.004776  0
C  C80  1  0.33822821  0.91574882  0.25238758  1  -0.011584  0  -0.081151  -0.162931  0  3.924956  0
C  C81  1  0.66979876  0.58425913  0.24735629  1  -0.039283  0  -0.080978  -0.162637  0  3.924058  0
C  C82  1  0.66176839  0.08425195  0.74761255  1  -0.011461  0  -0.081159  -0.162951  0  3.925083  0
C  C83  1  0.33020248  0.41573938  0.75264055  1  -0.039575  0  -0.080939  -0.162525  0  3.92392  0
C  C84  1  0.26835122  0.82062443  0.18123500  1  0.45046  0  0.041409  0.089789  0  3.951897  0
C  C85  1  0.76621832  0.67935026  0.31862889  1  0.480036  0  0.041625  0.088917  0  3.949689  0
C  C86  1  0.73164676  0.17937710  0.81876366  1  0.450126  0  0.041415  0.089766  0  3.951925  0
C  C87  1  0.23378157  0.32064749  0.68137074  1  0.480236  0  0.041612  0.088861  0  3.94966  0
C  C88  1  0.54810425  0.04468184  0.41752540  1  -0.022189  0  -0.054532  -0.055579  0  3.881021  0
C  C89  1  0.58585893  0.45546038  0.08227389  1  -0.024076  0  -0.054916  -0.058742  0  3.881232  0
C  C90  1  0.45188886  0.95531892  0.58247753  1  -0.022221  0  -0.054489  -0.055507  0  3.880844  0
C  C91  1  0.41414255  0.54454115  0.91772331  1  -0.02353  0  -0.05489  -0.058699  0  3.881164  0
C  C92  1  0.51548602  0.11890314  0.42080017  1  -0.071505  0  -0.081607  -0.137913  0  3.931925  0
C  C93  1  0.47583084  0.38105190  0.07906513  1  -0.01833  0  -0.080836  -0.13513  0  3.929589  0
C  C94  1  0.48450972  0.88109762  0.57920233  1  -0.070963  0  -0.081624  -0.137872  0  3.931838  0
C  C95  1  0.52416877  0.61894812  0.92093262  1  -0.018336  0  -0.080838  -0.135176  0  3.929524  0
C  C96  1  0.60633605  0.21753206  0.49775981  1  0.01358  0  0.028807  0.169939  0  3.989579  0
C  C97  1  0.39104146  0.28237629  0.00215286  1  -0.013153  0  0.027885  0.16777  0  3.988683  0
C  C98  1  0.39366096  0.78246794  0.50224305  1  0.013332  0  0.028803  0.169938  0  3.989523  0
C  C99  1  0.60896080  0.71762372  0.99784713  1  -0.01307  0  0.027887  0.16785  0  3.988562  0
C  C100  1  0.72857147  0.24086604  0.58563064  1  0.0387  0  -0.058198  -0.127169  0  3.887805  0
C  C101  1  0.40210924  0.25904200  0.91432089  1  0.047032  0  -0.057667  -0.124829  0  3.885108  0
C  C102  1  0.27142789  0.75913623  0.41436990  1  0.038608  0  -0.0582  -0.127112  0  3.887673  0
C  C103  1  0.59788811  0.74095726  0.08567735  1  0.046873  0  -0.057629  -0.124782  0  3.885156  0
C  C104  1  0.81218618  0.33685043  0.65475460  1  0.376526  0  0.066327  0.053193  0  3.815193  0
C  C105  1  0.32061431  0.16305741  0.84522752  1  0.402305  0  0.066661  0.052194  0  3.817568  0
C  C106  1  0.18781034  0.66314881  0.34524935  1  0.376635  0  0.066307  0.053145  0  3.815021  0
C  C107  1  0.67938580  0.83694336  0.15477047  1  0.402287  0  0.066657  0.052161  0  3.817534  0
C  C108  1  0.66364309  0.39192684  0.55730529  1  0.425667  0  0.064118  0.037432  0  3.897881  0
C  C109  1  0.21434125  0.10795300  0.94265036  1  0.368894  0  0.064131  0.036823  0  3.896586  0
C  C110  1  0.33636054  0.60807393  0.44269391  1  0.425892  0  0.0641  0.037317  0  3.897768  0
C  C111  1  0.78566328  0.89204776  0.05735180  1  0.3693  0  0.064138  0.036866  0  3.896553  0
C  C112  1  0.57537758  0.29659457  0.48648288  1  -0.001683  0  -0.070119  -0.169158  0  3.933824  0
C  C113  1  0.29233604  0.20328158  0.01349542  1  0.050511  0  -0.070238  -0.168304  0  3.931877  0
C  C114  1  0.42462080  0.70340619  0.51351986  1  -0.00186  0  -0.070096  -0.169051  0  3.933736  0
C  C115  1  0.70766749  0.79671768  0.98650626  1  0.050208  0  -0.070264  -0.168401  0  3.931944  0
C  C116  1  0.87928813  0.51618525  0.71257458  1  0.192686  0  -0.050661  -0.135174  0  3.849689  0
C  C117  1  0.15045753  0.98369222  0.78750544  1  0.218417  0  -0.050032  -0.136393  0  3.852911  0
C  C118  1  0.12071250  0.48381627  0.28742766  1  0.192658  0  -0.050664  -0.13511  0  3.849625  0
C  C119  1  0.84954662  0.01630930  0.21249667  1  0.218236  0  -0.050045  -0.136411  0  3.852798  0
C  C120  1  0.98376037  0.57034250  0.68204062  1  0.014099  0  -0.017585  0.084552  0  3.984875  0
C  C121  1  0.23123043  0.92954550  0.81808526  1  -0.008357  0  -0.017679  0.084367  0  3.98596  0
C  C122  1  0.01623964  0.42965675  0.31796053  1  0.014325  0  -0.017555  0.084554  0  3.985126  0
C  C123  1  0.76877558  0.07045753  0.18191696  1  -0.007375  0  -0.017719  0.084358  0  3.985866  0
C  C124  1  0.08590997  0.54578843  0.69915441  1  -0.084193  0  -0.088028  -0.114678  0  3.943805  0
C  C125  1  0.34082742  0.95404327  0.80091464  1  -0.027838  0  -0.088027  -0.115278  0  3.94427  0
C  C126  1  0.91409168  0.45420931  0.30084716  1  -0.084492  0  -0.088003  -0.114643  0  3.943985  0
C  C127  1  0.65917483  0.04595674  0.19908401  1  -0.028517  0  -0.088043  -0.115293  0  3.944287  0
C  C128  1  0.18044884  0.59467646  0.66872038  1  -0.021858  0  -0.093451  -0.07587  0  4.024022  0
C  C129  1  0.41687362  0.90517596  0.83133285  1  -0.064736  0  -0.093281  -0.075514  0  4.024244  0
C  C130  1  0.81954728  0.40531827  0.33127569  1  -0.02186  0  -0.093472  -0.075808  0  4.024148  0
C  C131  1  0.58312802  0.09482179  0.16866538  1  -0.064742  0  -0.093287  -0.075576  0  4.024419  0
C  C132  1  0.17486702  0.66916881  0.62229411  1  -0.023617  0  -0.085063  -0.091353  0  3.972218  0
C  C133  1  0.38327199  0.83079498  0.87790068  1  -0.024869  0  -0.085232  -0.091936  0  3.971028  0
C  C134  1  0.82513136  0.33082667  0.37770213  1  -0.023328  0  -0.08517  -0.09155  0  3.972178  0
C  C135  1  0.61672839  0.16920352  0.12209786  1  -0.024851  0  -0.085218  -0.091823  0  3.970946  0
C  C136  1  0.07508634  0.69570427  0.60669039  1  0.022811  0  -0.016921  -0.012139  0  3.970661  0
C  C137  1  0.27251192  0.80424984  0.89347108  1  0.043742  0  -0.016637  -0.011746  0  3.968395  0
C  C138  1  0.92491708  0.30429347  0.39331112  1  0.022794  0  -0.016864  -0.012202  0  3.970609  0
C  C139  1  0.72748808  0.19574942  0.10652806  1  0.043723  0  -0.016625  -0.011841  0  3.968488  0
C  C140  1  0.97946364  0.64546048  0.63622277  1  -0.090469  0  -0.086062  -0.151424  0  3.953321  0
C  C141  1  0.19756456  0.85445109  0.86391911  1  -0.083321  0  -0.08618  -0.150907  0  3.952615  0
C  C142  1  0.02053851  0.35453802  0.36377770  1  -0.090774  0  -0.086096  -0.151421  0  3.953447  0
C  C143  1  0.80243681  0.14554893  0.13607991  1  -0.083329  0  -0.086113  -0.15075  0  3.952617  0
C  C144  1  0.06864509  0.77668845  0.55837678  1  1.527704  0  0.182151  0.550102  0  4.23702  0
C  C145  1  0.23332931  0.72322059  0.94174208  1  1.543373  0  0.181487  0.547957  0  4.238356  0
C  C146  1  0.93135843  0.22331081  0.44162223  1  1.527696  0  0.182147  0.550153  0  4.236999  0
C  C147  1  0.76667119  0.27677942  0.05825865  1  1.543368  0  0.181463  0.547939  0  4.238373  0
N  N148  1  0.31712679  0.75578281  0.19110107  1  -1.214673  0  -0.327035  -0.232583  0  3.50894  0
N  N149  1  0.87013462  0.74432562  0.30891976  1  -1.213837  0  -0.326966  -0.231974  0  3.506578  0
N  N150  1  0.68287205  0.24421872  0.80889589  1  -1.214534  0  -0.327133  -0.232718  0  3.509063  0
N  N151  1  0.12986374  0.25567515  0.69108030  1  -1.213813  0  -0.326939  -0.231863  0  3.506539  0
N  N152  1  0.78051141  0.41153386  0.64022900  1  -1.199579  0  -0.204739  0.102598  0  3.724034  0
N  N153  1  0.22870139  0.08836935  0.85976969  1  -1.220828  0  -0.204854  0.103808  0  3.72387  0
N  N154  1  0.21948685  0.58846539  0.35977221  1  -1.199702  0  -0.204733  0.102642  0  3.723881  0
N  N155  1  0.77130137  0.91163142  0.14023054  1  -1.221174  0  -0.204888  0.103784  0  3.72372  0
Cl  Cl156  1  0.01249305  0.42416456  0.91115005  1  -0.633055  0  -0.274561  -0.490026  0  1.370778  0
Cl  Cl157  1  0.17706493  0.07591317  0.58893069  1  -0.633533  0  -0.274583  -0.490297  0  1.371548  0
Cl  Cl158  1  0.98750720  0.57583771  0.08885146  1  -0.633048  0  -0.274559  -0.490036  0  1.370799  0
Cl  Cl159  1  0.82293106  0.92408533  0.41106902  1  -0.633482  0  -0.274585  -0.490285  0  1.371497  0
Cl  Cl160  1  0.34185309  0.53242376  0.16655053  1  -0.703359  0  -0.396508  -0.593821  0  0.988234  0
Cl  Cl161  1  0.14335820  0.96781083  0.33381899  1  -0.703233  0  -0.396668  -0.593967  0  0.987458  0
Cl  Cl162  1  0.65814417  0.46757926  0.83345603  1  -0.703393  0  -0.396518  -0.593853  0  0.988231  0
Cl  Cl163  1  0.85664066  0.03219069  0.66618198  1  -0.703257  0  -0.396692  -0.593997  0  0.987479  0
O  O164  1  0.98190363  0.80280415  0.55238170  1  -1.157675  0  -0.339513  -0.554215  0  2.167307  0
O  O165  1  0.12628414  0.69692059  0.94755280  1  -1.170563  0  -0.339446  -0.554198  0  2.170359  0
O  O166  1  0.01809889  0.19719360  0.44761750  1  -1.157784  0  -0.339471  -0.554188  0  2.16743  0
O  O167  1  0.87371460  0.30307942  0.05244732  1  -1.170539  0  -0.33947  -0.554198  0  2.170346  0
O  O168  1  0.14865141  0.81461075  0.52287019  1  -1.163047  0  -0.339643  -0.569314  0  2.234524  0
O  O169  1  0.31104050  0.68542461  0.97732616  1  -1.165177  0  -0.339375  -0.567686  0  2.233694  0
O  O170  1  0.85134950  0.18538322  0.47712744  1  -1.162966  0  -0.339677  -0.569317  0  2.234393  0
O  O171  1  0.68896114  0.31457841  0.02267856  1  -1.165195  0  -0.339345  -0.567677  0  2.233698  0
