# generated using pymatgen
data_AgH5C5SNCl
_symmetry_space_group_name_H-M   'P 1'
_cell_length_a   7.08821916
_cell_length_b   7.79416010
_cell_length_c   7.79390438
_cell_angle_alpha   92.90827798
_cell_angle_beta   115.38398646
_cell_angle_gamma   115.38819721
_symmetry_Int_Tables_number   1
_chemical_formula_structural   AgH5C5SNCl
_chemical_formula_sum   'Ag2 H10 C10 S2 N2 Cl2'
_cell_volume   336.62491894
_cell_formula_units_Z   2
loop_
 _symmetry_equiv_pos_site_id
 _symmetry_equiv_pos_as_xyz
  1  'x, y, z'
loop_
 _atom_site_type_symbol
 _atom_site_label
 _atom_site_symmetry_multiplicity
 _atom_site_fract_x
 _atom_site_fract_y
 _atom_site_fract_z
 _atom_site_occupancy
 _atom_site_pbe_bader_spin_density
 _atom_site_pbe_cm5_charge
 _atom_site_pbe_ddec_charge
 _atom_site_pbe_ddec_spin_density
 _atom_site_pbe_ddec_sum_bond_order
 _atom_site_pbe_magmom
Ag  Ag0  1  0.92036903  0.16180771  0.86427220  1  0  0.28912  0.32722  0  2.278548  0
Ag  Ag1  1  0.42036603  0.86427223  0.16181154  1  0  0.289103  0.327173  0  2.278681  0
H  H2  1  0.40981289  0.76412573  0.49565265  1  0  0.090219  0.108121  0  1.0574  0
H  H3  1  0.90983440  0.49564919  0.76413501  1  0  0.090251  0.10819  0  1.057509  0
H  H4  1  0.22286504  0.17910419  0.26083358  1  0  0.268568  0.246817  0  1.038036  0
H  H5  1  0.72285376  0.26083019  0.17910301  1  0  0.268523  0.246826  0  1.038047  0
H  H6  1  0.48632567  0.69962328  0.81889891  1  0  0.091186  0.102725  0  1.04554  0
H  H7  1  0.98632654  0.81888011  0.69961428  1  0  0.091159  0.102758  0  1.045494  0
H  H8  1  0.43259067  0.36124939  0.85733269  1  0  0.09678  0.10723  0  1.05255  0
H  H9  1  0.93257270  0.85733314  0.36125217  1  0  0.096752  0.10718  0  1.052525  0
H  H10  1  0.31276419  0.11065779  0.56289763  1  0  0.117206  0.099708  0  1.019772  0
H  H11  1  0.81273280  0.56289587  0.11065090  1  0  0.117197  0.099649  0  1.020056  0
C  C12  1  0.31347406  0.47303170  0.35052809  1  0  0.116951  0.257355  0  3.986923  0
C  C13  1  0.81348172  0.35052615  0.47303111  1  0  0.116908  0.257277  0  3.987415  0
C  C14  1  0.38905407  0.62077260  0.51459459  1  0  -0.093614  -0.171475  0  3.920566  0
C  C15  1  0.88905826  0.51458847  0.62078885  1  0  -0.093597  -0.171469  0  3.920269  0
C  C16  1  0.43146976  0.58297588  0.69570713  1  0  -0.063682  0.012614  0  3.913944  0
C  C17  1  0.93147105  0.69570894  0.58295115  1  0  -0.063724  0.012489  0  3.914412  0
C  C18  1  0.33276033  0.25625285  0.55721750  1  0  0.0549  0.103944  0  3.900505  0
C  C19  1  0.83275311  0.55721139  0.25623591  1  0  0.054873  0.104113  0  3.899923  0
C  C20  1  0.40430570  0.39791310  0.71890009  1  0  -0.095262  -0.151009  0  3.984621  0
C  C21  1  0.90428624  0.71888823  0.39792362  1  0  -0.095153  -0.150864  0  3.984982  0
S  S22  1  0.25318351  0.50127191  0.11804944  1  0  -0.213442  -0.371712  0  2.933293  0
S  S23  1  0.75318482  0.11804826  0.50126879  1  0  -0.213492  -0.37175  0  2.933351  0
N  N24  1  0.28748889  0.29510421  0.38128929  1  0  -0.359959  -0.186954  0  3.656535  0
N  N25  1  0.78747717  0.38127076  0.29511737  1  0  -0.359834  -0.187027  0  3.656616  0
Cl  Cl26  1  0.04146506  0.92012656  0.04263821  1  0  -0.298974  -0.484581  0  1.481022  0
Cl  Cl27  1  0.54146294  0.04263898  0.92012993  1  0  -0.298964  -0.484545  0  1.481133  0
