# generated using pymatgen
data_Zn4H12C28O15
_symmetry_space_group_name_H-M   'P 1'
_cell_length_a   15.94457314
_cell_length_b   16.00707138
_cell_length_c   17.14501426
_cell_angle_alpha   117.73666289
_cell_angle_beta   117.01636462
_cell_angle_gamma   89.95034738
_symmetry_Int_Tables_number   1
_chemical_formula_structural   Zn4H12C28O15
_chemical_formula_sum   'Zn8 H24 C56 O30'
_cell_volume   3325.13536585
_cell_formula_units_Z   2
loop_
 _symmetry_equiv_pos_site_id
 _symmetry_equiv_pos_as_xyz
  1  'x, y, z'
loop_
 _atom_site_type_symbol
 _atom_site_label
 _atom_site_symmetry_multiplicity
 _atom_site_fract_x
 _atom_site_fract_y
 _atom_site_fract_z
 _atom_site_occupancy
 _atom_site_pbe_bader_charge
 _atom_site_pbe_bader_spin_density
 _atom_site_pbe_cm5_charge
 _atom_site_pbe_ddec_charge
 _atom_site_pbe_ddec_spin_density
 _atom_site_pbe_ddec_sum_bond_order
 _atom_site_pbe_magmom
Zn  Zn0  1  0.20570148  0.10621698  0.91044609  1  1.314639  0  0.676964  0.964559  0  2.368953  0
Zn  Zn1  1  0.60743863  0.70685746  0.91290714  1  1.320479  0  0.681602  0.967694  0  2.373313  0
Zn  Zn2  1  0.20663834  0.30546441  0.91129798  1  1.309907  0  0.679933  0.967128  0  2.3646  0
Zn  Zn3  1  0.79335441  0.69453073  0.08869588  1  1.310038  0  0.679911  0.967189  0  2.364488  0
Zn  Zn4  1  0.39255834  0.29313767  0.08708851  1  1.320457  0  0.681603  0.967684  0  2.373446  0
Zn  Zn5  1  0.79429989  0.89378399  0.08955161  1  1.314694  0  0.676955  0.964532  0  2.368943  0
Zn  Zn6  1  0.19490165  0.29503478  0.09093394  1  1.310157  0  0.675784  0.966186  0  2.35573  0
Zn  Zn7  1  0.80509541  0.70496328  0.90906243  1  1.310176  0  0.67579  0.966174  0  2.355644  0
H  H8  1  0.93434032  0.45197585  0.73850317  1  0.076618  0  0.102853  0.101696  0  0.988471  0
H  H9  1  0.97507651  0.57396151  0.35312568  1  0.036335  0  0.099335  0.106108  0  1.007884  0
H  H10  1  0.54953505  0.63501471  0.24744160  1  0.034781  0  0.098924  0.104515  0  1.010097  0
H  H11  1  0.45048459  0.36497298  0.75255174  1  0.034899  0  0.098996  0.10458  0  1.010008  0
H  H12  1  0.02498652  0.42604879  0.64689757  1  0.035349  0  0.099462  0.106322  0  1.007512  0
H  H13  1  0.89853304  0.07104870  0.40045326  1  0.099889  0  0.111606  0.123116  0  0.986491  0
H  H14  1  0.10146100  0.92894863  0.59954210  1  0.099724  0  0.111594  0.123116  0  0.986447  0
H  H15  1  0.66407171  0.61235087  0.59751821  1  0.107902  0  0.109314  0.118252  0  0.995595  0
H  H16  1  0.06572161  0.54805130  0.26152453  1  0.076851  0  0.102791  0.101828  0  0.98831  0
H  H17  1  0.33592804  0.38764937  0.40247966  1  0.107889  0  0.109302  0.118215  0  0.99565  0
H  H18  1  0.08626871  0.31624693  0.55632605  1  0.610092  0  0.330201  0.356738  0  0.895657  0
H  H19  1  0.91377571  0.68374661  0.44368966  1  0.610908  0  0.330255  0.35678  0  0.895567  0
H  H20  1  0.43346135  0.63319914  0.28907873  1  0.602113  0  0.338154  0.365609  0  0.873357  0
H  H21  1  0.56654776  0.36678853  0.71090079  1  0.601903  0  0.338062  0.365633  0  0.873442  0
H  H22  1  0.70522771  0.59455585  0.26637020  1  0.063568  0  0.102564  0.102498  0  0.992098  0
H  H23  1  0.89674290  0.15002550  0.65582975  1  0.041409  0  0.099583  0.0994  0  0.995169  0
H  H24  1  0.10324523  0.84999156  0.34415643  1  0.040991  0  0.099607  0.09937  0  0.995131  0
H  H25  1  0.70813528  0.48275677  0.45300090  1  0.072303  0  0.104365  0.104815  0  0.990564  0
H  H26  1  0.29186394  0.51724429  0.54701226  1  0.072198  0  0.104358  0.104803  0  0.990495  0
H  H27  1  0.29480114  0.40543482  0.73364292  1  0.063513  0  0.102513  0.102438  0  0.992241  0
H  H28  1  0.86885435  0.31328236  0.74240334  1  0.050129  0  0.094908  0.093437  0  1.008169  0
H  H29  1  0.13116256  0.68674487  0.25759828  1  0.049647  0  0.094875  0.09331  0  1.008505  0
H  H30  1  0.78524918  0.51688065  0.36963593  1  0.031652  0  0.093783  0.087384  0  1.015192  0
H  H31  1  0.21476933  0.48311893  0.63039179  1  0.031495  0  0.093753  0.087335  0  1.015391  0
C  C32  1  0.38699146  0.39280510  0.27851257  1  1.521109  0  0.231973  0.61827  0  4.151224  0
C  C33  1  0.09118802  0.69760094  0.29742976  1  -0.007449  0  -0.112045  -0.118548  0  4.079367  0
C  C34  1  0.41503523  0.46303557  0.60353221  1  0.038607  0  -0.019226  -0.033433  0  3.971641  0
C  C35  1  0.97611144  0.19513862  0.60288148  1  0.001855  0  -0.022003  -0.038542  0  3.977848  0
C  C36  1  0.02389204  0.80486233  0.39711361  1  0.007394  0  -0.021983  -0.03833  0  3.977742  0
C  C37  1  0.58496535  0.53696247  0.39646273  1  0.038523  0  -0.01917  -0.033428  0  3.971789  0
C  C38  1  0.92462951  0.21116795  0.65427979  1  -0.044414  0  -0.09634  -0.119903  0  4.028084  0
C  C39  1  0.07537530  0.78884836  0.34571956  1  -0.044399  0  -0.096482  -0.120026  0  4.02782  0
C  C40  1  0.67414572  0.51698592  0.40845000  1  -0.076344  0  -0.088089  -0.105971  0  4.002079  0
C  C41  1  0.32586094  0.48301657  0.59156285  1  -0.075726  0  -0.088089  -0.105873  0  4.001897  0
C  C42  1  0.71767563  0.53679152  0.36207021  1  0.01285  0  -0.111768  -0.124708  0  4.082907  0
C  C43  1  0.28233800  0.46320291  0.63794564  1  0.012912  0  -0.111796  -0.12488  0  4.083174  0
C  C44  1  0.90883737  0.30242115  0.70257440  1  -0.007736  0  -0.112296  -0.119053  0  4.079573  0
C  C45  1  0.94513034  0.37990434  0.70000871  1  -0.048925  0  -0.093716  -0.051725  0  4.049457  0
C  C46  1  0.05492225  0.62012211  0.30001589  1  -0.048605  0  -0.093895  -0.052423  0  4.049906  0
C  C47  1  0.67283622  0.57929549  0.30396797  1  -0.081412  0  -0.093617  -0.055209  0  4.050034  0
C  C48  1  0.61300599  0.60719442  0.72148401  1  1.52131  0  0.232015  0.618276  0  4.151211  0
C  C49  1  0.32718508  0.42069596  0.69604636  1  -0.081186  0  -0.093468  -0.05496  0  4.05028  0
C  C50  1  0.94402435  0.04085318  0.44519283  1  -0.009831  0  -0.073239  -0.125931  0  3.921252  0
C  C51  1  0.05596719  0.95914270  0.55480142  1  -0.00981  0  -0.073298  -0.125984  0  3.921095  0
C  C52  1  0.59214371  0.56164915  0.55355173  1  0.000895  0  -0.075917  -0.138586  0  3.926849  0
C  C53  1  0.40785424  0.43834964  0.44644592  1  0.000829  0  -0.075929  -0.138565  0  3.927033  0
C  C54  1  0.11049666  0.11102713  0.72154119  1  1.534242  0  0.23236  0.613565  0  4.154304  0
C  C55  1  0.95005647  0.94504263  0.39290602  1  -0.003065  0  -0.008055  -0.071833  0  3.923856  0
C  C56  1  0.04993929  0.05495324  0.60708886  1  -0.003001  0  -0.007992  -0.071683  0  3.923617  0
C  C57  1  0.55390048  0.54780478  0.60703732  1  0.03415  0  -0.006396  -0.058017  0  3.91319  0
C  C58  1  0.44609525  0.45219622  0.39296033  1  0.001008  0  -0.006382  -0.058001  0  3.913367  0
C  C59  1  0.88950000  0.88896946  0.27845438  1  1.534473  0  0.2323  0.613521  0  4.154425  0
C  C60  1  0.00778048  0.90274240  0.44780503  1  0.03434  0  0.009042  0.089673  0  3.947824  0
C  C61  1  0.99221619  0.09725418  0.55218762  1  0.034365  0  0.009006  0.089757  0  3.94788  0
C  C62  1  0.45997134  0.48461967  0.55343023  1  -0.013106  0  0.009333  0.087601  0  3.940707  0
C  C63  1  0.54002369  0.51538132  0.44656538  1  0.02009  0  0.009303  0.087559  0  3.940829  0
C  C64  1  0.02715526  0.47343957  0.00069299  1  -0.202714  0  -0.012614  -0.107329  0  3.913909  0
C  C65  1  0.97283631  0.52655115  0.99929556  1  0.076991  0  -0.012502  -0.107175  0  3.913746  0
C  C66  1  0.47269116  0.02638522  0.99912010  1  0.077096  0  -0.013444  -0.105705  0  3.915554  0
C  C67  1  0.52730741  0.97361064  0.00087713  1  -0.19874  0  -0.01333  -0.105534  0  3.915573  0
C  C68  1  0.47314244  0.47289530  0.99969641  1  -0.198621  0  -0.014283  -0.108324  0  3.920642  0
C  C69  1  0.52684684  0.52710793  0.00030355  1  0.043241  0  -0.014201  -0.107911  0  3.920343  0
C  C70  1  0.40854745  0.09035923  0.99820739  1  1.657913  0  0.242108  0.674112  0  4.226269  0
C  C71  1  0.59144921  0.90963736  0.00178877  1  1.658258  0  0.242097  0.674074  0  4.226393  0
C  C72  1  0.09188847  0.40996603  0.00179853  1  1.65798  0  0.240561  0.669919  0  4.234507  0
C  C73  1  0.90810318  0.59002764  0.99819366  1  1.658837  0  0.240621  0.670139  0  4.234579  0
C  C74  1  0.40862703  0.40841970  0.99867047  1  1.660029  0  0.238722  0.664762  0  4.244707  0
C  C75  1  0.59136487  0.59158278  0.00132737  1  1.659394  0  0.238753  0.664705  0  4.244797  0
C  C76  1  0.09182505  0.09170564  0.00182262  1  1.661801  0  0.241864  0.675198  0  4.22576  0
C  C77  1  0.90817904  0.90829241  0.99817965  1  1.661743  0  0.241852  0.675331  0  4.225465  0
C  C78  1  0.02713339  0.02739510  0.00086926  1  0.043976  0  -0.014385  -0.106963  0  3.916768  0
C  C79  1  0.97287272  0.97260002  0.99913319  1  -0.19965  0  -0.014287  -0.107096  0  3.916741  0
C  C80  1  0.99609209  0.36549483  0.64872089  1  0.00749  0  -0.117696  -0.241756  0  4.04449  0
C  C81  1  0.00396105  0.63452064  0.35130214  1  0.006745  0  -0.117321  -0.240998  0  4.044706  0
C  C82  1  0.58494529  0.60161827  0.29271636  1  0.044605  0  -0.117356  -0.236438  0  4.050903  0
C  C83  1  0.41506997  0.39837679  0.70728412  1  0.044641  0  -0.117471  -0.236552  0  4.051086  0
C  C84  1  0.01145633  0.27365612  0.60006813  1  0.433794  0  0.079703  0.273843  0  4.061697  0
C  C85  1  0.98856994  0.72634845  0.39994229  1  0.428102  0  0.079555  0.273393  0  4.061718  0
C  C86  1  0.54087816  0.58011333  0.33780588  1  0.419025  0  0.076043  0.266238  0  4.065837  0
C  C87  1  0.45912534  0.41988250  0.66218994  1  0.418112  0  0.076077  0.26627  0  4.065757  0
O  O88  1  0.24913590  0.25000746  0.00000821  1  -1.21568  0  -0.570783  -1.038542  0  2.528097  0
O  O89  1  0.70591480  0.62931669  0.76323045  1  -1.161422  0  -0.312865  -0.543899  0  2.327488  0
O  O90  1  0.12799623  0.06113909  0.76496503  1  -1.166868  0  -0.312376  -0.541634  0  2.335693  0
O  O91  1  0.87200476  0.93885529  0.23503085  1  -1.166932  0  -0.312352  -0.541553  0  2.335772  0
O  O92  1  0.45035023  0.18159846  0.06051212  1  -1.135019  0  -0.29928  -0.522973  0  2.276575  0
O  O93  1  0.54964363  0.81839811  0.93947817  1  -1.135118  0  -0.299289  -0.522954  0  2.276473  0
O  O94  1  0.12438967  0.39222628  0.94181232  1  -1.133995  0  -0.295239  -0.523611  0  2.305331  0
O  O95  1  0.87560660  0.60776886  0.05818421  1  -1.134178  0  -0.295215  -0.523731  0  2.305514  0
O  O96  1  0.75085905  0.74999059  0.99998669  1  -1.21558  0  -0.570788  -1.038513  0  2.527889  0
O  O97  1  0.44995171  0.37583928  0.05774553  1  -1.131643  0  -0.294454  -0.519667  0  2.298726  0
O  O98  1  0.55003828  0.62416392  0.94225064  1  -1.13156  0  -0.294489  -0.51968  0  2.298751  0
O  O99  1  0.31767794  0.39171143  0.93874712  1  -1.143242  0  -0.299935  -0.52544  0  2.278228  0
O  O100  1  0.68231318  0.60828811  0.06124795  1  -1.142974  0  -0.299938  -0.525508  0  2.278394  0
O  O101  1  0.11110600  0.18304624  0.06426987  1  -1.143167  0  -0.30241  -0.529818  0  2.270707  0
O  O102  1  0.88889477  0.81695253  0.93572781  1  -1.143221  0  -0.302388  -0.529837  0  2.27057  0
O  O103  1  0.12234558  0.04962213  0.93995748  1  -1.127887  0  -0.299513  -0.523946  0  2.277206  0
O  O104  1  0.87766081  0.95037665  0.06004550  1  -1.127877  0  -0.299553  -0.523999  0  2.277102  0
O  O105  1  0.31762289  0.04862574  0.93542022  1  -1.146531  0  -0.300473  -0.527426  0  2.27424  0
O  O106  1  0.68237349  0.95136719  0.06457424  1  -1.146447  0  -0.300464  -0.527468  0  2.274361  0
O  O107  1  0.10913517  0.37917329  0.06256995  1  -1.153725  0  -0.300281  -0.527629  0  2.273082  0
O  O108  1  0.89085668  0.62082113  0.93742497  1  -1.154656  0  -0.300292  -0.527728  0  2.273097  0
O  O109  1  0.43425801  0.36603328  0.23168207  1  -1.167932  0  -0.305711  -0.541523  0  2.386584  0
O  O110  1  0.56574096  0.63396405  0.76831713  1  -1.167996  0  -0.305749  -0.541575  0  2.386619  0
O  O111  1  0.14228809  0.20359757  0.76699154  1  -1.15095  0  -0.306065  -0.539383  0  2.380221  0
O  O112  1  0.85770696  0.79639831  0.23300537  1  -1.151173  0  -0.306028  -0.539403  0  2.380179  0
O  O113  1  0.29408265  0.37068282  0.23676496  1  -1.161472  0  -0.312856  -0.543951  0  2.327514  0
O  O114  1  0.06262002  0.25618123  0.55023565  1  -1.136372  0  -0.355927  -0.452241  0  2.277841  0
O  O115  1  0.93739629  0.74380723  0.44976185  1  -1.137197  0  -0.355948  -0.452163  0  2.277714  0
O  O116  1  0.45330024  0.59944215  0.32674311  1  -1.123032  0  -0.356165  -0.45568  0  2.272326  0
O  O117  1  0.54670759  0.40055655  0.67324762  1  -1.122849  0  -0.356081  -0.455778  0  2.272317  0
