# generated using pymatgen
data_Cu3H22C12S2(N8O3)4
_symmetry_space_group_name_H-M   'P 1'
_cell_length_a   6.67110503
_cell_length_b   10.82240504
_cell_length_c   12.15550029
_cell_angle_alpha   99.91492189
_cell_angle_beta   104.83767326
_cell_angle_gamma   90.11860444
_symmetry_Int_Tables_number   1
_chemical_formula_structural   Cu3H22C12S2(N8O3)4
_chemical_formula_sum   'Cu3 H22 C12 S2 N32 O12'
_cell_volume   834.67942819
_cell_formula_units_Z   1
loop_
 _symmetry_equiv_pos_site_id
 _symmetry_equiv_pos_as_xyz
  1  'x, y, z'
loop_
 _atom_site_type_symbol
 _atom_site_label
 _atom_site_symmetry_multiplicity
 _atom_site_fract_x
 _atom_site_fract_y
 _atom_site_fract_z
 _atom_site_occupancy
 _atom_site_hle17_ddec_charge
 _atom_site_hle17_ddec_spin_density
 _atom_site_hle17_ddec_sum_bond_order
 _atom_site_hle17_magmom
 _atom_site_hse06_10hf_ddec_charge
 _atom_site_hse06_10hf_ddec_spin_density
 _atom_site_hse06_10hf_ddec_sum_bond_order
 _atom_site_hse06_10hf_magmom
 _atom_site_hse06_ddec_charge
 _atom_site_hse06_ddec_spin_density
 _atom_site_hse06_ddec_sum_bond_order
 _atom_site_hse06_magmom
 _atom_site_pbe_cm5_charge
 _atom_site_pbe_ddec_charge
 _atom_site_pbe_ddec_spin_density
 _atom_site_pbe_ddec_sum_bond_order
 _atom_site_pbe_magmom
Cu  Cu0  1  0.99999856  0.00000102  0.00000062  1  0.713863  0.735054  2.10349  0.548  0.648384  0.800276  2.520867  0.64  0.722094  0.85984  2.46651  0.711  0.832784  0.603767  0.756874  2.557635  0.592
Cu  Cu1  1  0.50000046  0.50000040  0.00000081  1  0.79578  0.700411  1.942729  0.523  0.754498  0.794822  2.329332  0.638  0.827498  0.86152  2.277872  0.715  0.810756  0.709924  0.722686  2.363883  0.567
Cu  Cu2  1  0.50000044  0.50000030  0.49999929  1  0.970775  -0.754942  1.671045  -0.542  0.95951  -0.851682  2.042097  -0.673  1.035454  -0.929259  1.993379  -0.755  0.757218  0.901385  -0.771958  2.085281  -0.601
H  H3  1  0.98094890  0.23605312  0.25233128  1  0.336373  0.000124  0.92791  0.0  0.305487  0.000136  1.00313  0.0  0.316281  0.000117  0.9944  0.0  0.312862  0.297973  0.000141  1.009172  0.0
H  H4  1  0.01905495  0.76394563  0.74766826  1  0.336375  0.000124  0.927903  0.0  0.305501  0.000136  1.003116  0.0  0.316296  0.000117  0.994384  0.0  0.312867  0.297984  0.000141  1.009166  0.0
H  H5  1  0.57669719  0.13545704  0.35962000  1  0.346636  -0.000225  0.818732  0.0  0.327598  -0.000325  0.87147  0.0  0.335804  -0.000187  0.864756  0.0  0.364097  0.321499  -0.00045  0.87679  0.0
H  H6  1  0.42330681  0.86454182  0.64038368  1  0.346628  -0.000225  0.818801  0.0  0.327604  -0.000325  0.871526  0.0  0.335807  -0.000187  0.864814  0.0  0.364118  0.32152  -0.000449  0.876845  0.0
H  H7  1  0.95748918  0.83292513  0.36335225  1  0.340753  0.000156  0.929274  0.0  0.309384  0.000168  1.002319  0.0  0.319926  0.000147  0.993506  0.0  0.318155  0.301951  0.000178  1.008584  0.0
H  H8  1  0.04250850  0.16707364  0.63664730  1  0.340727  0.000155  0.929307  0.0  0.309361  0.000168  1.00235  0.0  0.319903  0.000146  0.993534  0.0  0.318158  0.301932  0.000178  1.008612  0.0
H  H9  1  0.83216022  0.44265983  0.35389524  1  0.167823  -3.8e-05  0.911826  0.0  0.17726  -1e-06  0.968937  0.0  0.180382  5e-06  0.966868  0.0  0.125275  0.175058  -3e-06  0.970469  0.0
H  H10  1  0.16783573  0.55733705  0.64610301  1  0.167812  -3.1e-05  0.91181  0.0  0.177259  -1e-06  0.968922  0.0  0.180378  5e-06  0.966857  0.0  0.12526  0.175057  -3e-06  0.970455  0.0
H  H11  1  0.87046480  0.55963907  0.27734664  1  0.160482  -0.000148  0.907045  0.0  0.165952  -7.7e-05  0.974473  0.0  0.16904  -9.5e-05  0.972375  0.0  0.124529  0.163689  -5.1e-05  0.976065  0.0
H  H12  1  0.12953771  0.44036160  0.72265463  1  0.160514  -0.000142  0.907076  0.0  0.165996  -7.7e-05  0.974484  0.0  0.169083  -9.5e-05  0.972387  0.0  0.124566  0.163732  -5.2e-05  0.976079  0.0
H  H13  1  0.34250583  0.91922357  0.34515191  1  0.16849  -9.6e-05  0.881603  0.0  0.182275  -6.5e-05  0.927451  0.0  0.185498  -5.7e-05  0.925317  0.0  0.130171  0.179935  -6.7e-05  0.929169  0.0
H  H14  1  0.65749493  0.08077519  0.65484722  1  0.168477  -9.8e-05  0.881536  0.0  0.182238  -6.4e-05  0.927456  0.0  0.185459  -5.7e-05  0.925327  0.0  0.130149  0.179927  -6.7e-05  0.929129  0.0
H  H15  1  0.33230344  0.83590057  0.20456448  1  0.157834  -0.000367  0.93183  -0.001  0.153509  -0.000171  1.016303  0.0  0.156948  -0.000194  1.013589  0.0  0.12703  0.150984  -0.000142  1.018451  0.0
H  H16  1  0.66769122  0.16409914  0.79543480  1  0.157822  -0.000372  0.931802  -0.001  0.153516  -0.000171  1.016274  0.0  0.156958  -0.000194  1.013558  0.0  0.127026  0.150984  -0.000142  1.018435  0.0
H  H17  1  0.52890996  0.27589828  0.49958511  1  0.409546  0.000517  0.903618  0.002  0.379242  -8.4e-05  0.972356  0.001  0.390798  4.4e-05  0.955774  0.001  0.287596  0.37086  -0.000196  0.984384  0.0
H  H18  1  0.47109248  0.72410146  0.50041602  1  0.409507  0.000517  0.903628  0.002  0.379202  -8.4e-05  0.972407  0.001  0.390758  4.4e-05  0.955824  0.001  0.287584  0.370821  -0.000196  0.984432  0.0
H  H19  1  0.20529075  0.30036053  0.99117762  1  0.390266  -2.7e-05  0.897557  0.0  0.35357  -2.5e-05  0.992613  0.0  0.363042  -2.4e-05  0.97881  0.0  0.284297  0.346928  -2e-05  1.002336  0.0
H  H20  1  0.79470701  0.69963918  0.00882207  1  0.390271  -2.7e-05  0.897547  0.0  0.353576  -2.5e-05  0.992605  0.0  0.36305  -2.5e-05  0.978799  0.0  0.284311  0.346934  -2e-05  1.002329  0.0
H  H21  1  0.04004604  0.38135854  0.91976684  1  0.392123  -0.000133  0.90307  0.0  0.355044  -9.7e-05  0.990679  0.0  0.365563  -6.2e-05  0.975282  0.0  0.281301  0.347783  -0.000122  1.001328  0.0
H  H22  1  0.95995014  0.61864115  0.08023181  1  0.392126  -0.000134  0.90305  0.0  0.355046  -9.7e-05  0.99067  0.0  0.365564  -6.1e-05  0.975279  0.0  0.281318  0.347789  -0.000122  1.001317  0.0
H  H23  1  0.76870646  0.31479713  0.50946871  1  0.436543  5.1e-05  0.854934  0.001  0.408365  -0.000555  0.917145  -0.001  0.420122  -0.00042  0.900212  -0.001  0.296705  0.399592  -0.000612  0.929775  -0.001
H  H24  1  0.23129597  0.68520348  0.49053007  1  0.436539  5.1e-05  0.854926  0.001  0.408365  -0.000555  0.91714  -0.001  0.420123  -0.00042  0.900206  -0.001  0.29671  0.399589  -0.000612  0.929774  -0.001
C  C25  1  0.55097105  0.50890329  0.25546256  1  0.37348  -0.000722  3.710215  -0.001  0.354019  -0.000617  3.986709  -0.001  0.371358  -0.000698  4.001234  -0.001  0.235837  0.341806  -0.000358  3.977046  0.0
C  C26  1  0.44902813  0.49109544  0.74453554  1  0.373459  -0.000725  3.71023  -0.001  0.353942  -0.000616  3.986811  -0.001  0.37128  -0.000697  4.001336  -0.001  0.235784  0.34173  -0.000358  3.977155  0.0
C  C27  1  0.77194193  0.47581425  0.27212065  1  -0.304078  -0.000134  3.683653  0.0  -0.342271  -5.2e-05  3.9175  0.0  -0.347437  -3e-05  3.9223  0.0  -0.130024  -0.338517  -6e-05  3.913978  0.0
C  C28  1  0.22805744  0.52418550  0.72788090  1  -0.304092  -0.000158  3.683698  0.0  -0.342322  -5.2e-05  3.917563  0.0  -0.347487  -3e-05  3.922362  0.0  -0.130021  -0.338562  -6e-05  3.914046  0.0
C  C29  1  0.79267839  0.37959452  0.17284262  1  0.398424  -0.002949  3.673425  -0.002  0.362162  -0.000314  3.951863  0.0  0.379735  -0.001159  3.9639  -0.001  0.261663  0.35065  0.000329  3.943402  0.001
C  C30  1  0.20731302  0.62040243  0.82715833  1  0.398375  -0.00294  3.67347  -0.002  0.362217  -0.000315  3.951815  0.0  0.379794  -0.001159  3.963847  -0.001  0.261641  0.350703  0.000329  3.94336  0.001
C  C31  1  0.04306082  0.90817388  0.22312043  1  0.406531  -0.002944  3.656583  -0.002  0.37294  -7.2e-05  3.926636  0.001  0.39033  -0.001054  3.939096  -0.001  0.25846  0.361594  0.000664  3.918184  0.002
C  C32  1  0.95693655  0.09182201  0.77687623  1  0.406536  -0.002942  3.656413  -0.002  0.372897  -7.4e-05  3.926575  0.001  0.390288  -0.001054  3.939036  -0.001  0.258447  0.361546  0.000664  3.918143  0.002
C  C33  1  0.27444051  0.91793448  0.25278871  1  -0.30371  -0.00049  3.664843  0.0  -0.34322  -0.000201  3.903947  0.0  -0.348193  -0.000145  3.907887  0.0  -0.120181  -0.3399  -0.000229  3.901436  0.0
C  C34  1  0.72556207  0.08206713  0.74721269  1  -0.303643  -0.000477  3.664797  0.0  -0.343222  -0.000201  3.904089  0.0  -0.348199  -0.000145  3.908031  0.0  -0.120141  -0.339905  -0.000229  3.901562  0.0
C  C35  1  0.34097007  0.03325196  0.21736054  1  0.417546  -0.002333  3.658419  -0.001  0.38042  0.000342  3.935677  0.001  0.398441  -0.000629  3.947249  0.0  0.272036  0.368483  0.001093  3.927927  0.002
C  C36  1  0.65903569  0.96675059  0.78264141  1  0.417594  -0.002349  3.658165  -0.001  0.380521  0.000342  3.935378  0.001  0.398545  -0.00063  3.946951  0.0  0.272093  0.368596  0.001093  3.927652  0.002
S  S37  1  0.14424337  0.24323948  0.46435277  1  1.569067  0.000217  5.80294  0.0  1.455633  5.8e-05  6.341481  0.0  1.510461  7.3e-05  6.305254  0.0  0.554858  1.417218  4.8e-05  6.365249  0.0
S  S38  1  0.85575904  0.75676023  0.53564753  1  1.568896  0.000207  5.803167  0.0  1.455476  5.9e-05  6.341702  0.0  1.510302  7.3e-05  6.305477  0.0  0.554746  1.41705  4.7e-05  6.365463  0.0
N  N39  1  0.42975712  0.53056449  0.15475277  1  -0.308501  0.06953  3.193949  0.091  -0.287124  0.052384  3.513124  0.072  -0.317051  0.043534  3.532211  0.063  -0.252519  -0.267414  0.055668  3.501004  0.074
N  N40  1  0.57023924  0.46943710  0.84524698  1  -0.308511  0.069535  3.193906  0.091  -0.287115  0.052382  3.51309  0.072  -0.317041  0.043534  3.532176  0.063  -0.25253  -0.267401  0.055664  3.500968  0.074
N  N41  1  0.24043829  0.55660579  0.17225220  1  -0.082697  -0.006372  2.987449  -0.007  -0.061878  -0.001865  3.284215  -0.003  -0.061734  -0.0013  3.29723  -0.002  -0.086124  -0.06275  -0.002271  3.276407  -0.003
N  N42  1  0.75956124  0.44339674  0.82774810  1  -0.082694  -0.006366  2.987577  -0.007  -0.061858  -0.001865  3.284322  -0.003  -0.061714  -0.001301  3.297336  -0.002  -0.086089  -0.062726  -0.002271  3.276513  -0.003
N  N43  1  0.24656111  0.55139434  0.27950171  1  -0.053845  0.010506  2.933581  0.013  -0.04831  0.004208  3.232402  0.006  -0.046574  0.002846  3.24586  0.004  -0.087389  -0.048918  0.005735  3.22272  0.007
N  N44  1  0.75343990  0.44860725  0.72049866  1  -0.053797  0.010496  2.933666  0.013  -0.048282  0.004207  3.23251  0.006  -0.046548  0.002847  3.245972  0.004  -0.087383  -0.048886  0.005733  3.222829  0.007
N  N45  1  0.43933312  0.52045429  0.33369692  1  -0.318957  -0.066731  3.190629  -0.082  -0.297499  -0.045519  3.517248  -0.06  -0.327291  -0.037077  3.535709  -0.05  -0.251166  -0.276735  -0.048348  3.503862  -0.062
N  N46  1  0.56066789  0.47954730  0.66630345  1  -0.319  -0.066731  3.190687  -0.082  -0.297521  -0.045518  3.51732  -0.06  -0.327313  -0.037077  3.535779  -0.05  -0.251168  -0.27676  -0.048345  3.503941  -0.062
N  N47  1  0.69384040  0.37674799  0.06152668  1  -0.301506  0.066175  3.227049  0.087  -0.269043  0.049756  3.549709  0.068  -0.296947  0.041844  3.56437  0.06  -0.25018  -0.251451  0.05277  3.540401  0.07
N  N48  1  0.30616058  0.62325357  0.93847286  1  -0.301474  0.066169  3.227015  0.087  -0.26906  0.049758  3.549666  0.068  -0.296964  0.041848  3.564325  0.06  -0.250159  -0.251472  0.052771  3.540363  0.07
N  N49  1  0.74332055  0.27130184  0.99893070  1  -0.024373  -0.00158  2.937691  -0.002  -0.020232  0.000263  3.247137  0.0  -0.014891  -0.000287  3.257607  -0.001  -0.064735  -0.023461  0.000669  3.240432  0.001
N  N50  1  0.25668041  0.72869883  0.00107036  1  -0.024367  -0.00159  2.937613  -0.002  -0.020218  0.000266  3.247058  0.0  -0.014875  -0.00029  3.257526  -0.001  -0.064728  -0.023443  0.000669  3.240349  0.001
N  N51  1  0.86943564  0.21061422  0.06841843  1  -0.070534  0.003499  3.0024  0.006  -0.07432  0.001742  3.32015  0.003  -0.077009  0.000534  3.329703  0.002  -0.082089  -0.072522  0.002992  3.314154  0.005
N  N52  1  0.13056374  0.78938643  0.93158160  1  -0.070572  0.003516  3.002291  0.006  -0.074342  0.001743  3.320046  0.003  -0.077031  0.000534  3.329598  0.002  -0.082108  -0.072544  0.002992  3.314047  0.005
N  N53  1  0.90380348  0.27726824  0.17675428  1  -0.235239  0.002416  3.323883  0.003  -0.179455  0.001513  3.574045  0.002  -0.194798  0.001359  3.587159  0.002  -0.234023  -0.169134  0.0016  3.56502  0.002
N  N54  1  0.09619901  0.72273241  0.82324615  1  -0.235192  0.002414  3.323792  0.003  -0.179479  0.00151  3.57397  0.002  -0.194823  0.00136  3.587082  0.002  -0.23402  -0.169156  0.001601  3.564944  0.002
N  N55  1  0.25796858  0.06911232  0.11656033  1  -0.301738  0.071216  3.236571  0.093  -0.274498  0.052031  3.56766  0.071  -0.302903  0.043448  3.583654  0.062  -0.249194  -0.257339  0.05726  3.558311  0.075
N  N56  1  0.74203374  0.93088556  0.88344136  1  -0.301734  0.071224  3.23655  0.093  -0.274476  0.052033  3.567647  0.071  -0.302886  0.043448  3.583645  0.062  -0.249168  -0.257291  0.05726  3.558237  0.075
N  N57  1  0.34928039  0.18142169  0.11770819  1  -0.02897  -0.001453  2.933166  -0.002  -0.023384  0.000573  3.243282  0.0  -0.021025  -9.6e-05  3.254807  -0.001  -0.054441  -0.024919  0.001129  3.236133  0.001
N  N58  1  0.65072187  0.81857614  0.88229183  1  -0.02906  -0.001447  2.933295  -0.002  -0.023501  0.000573  3.243411  0.0  -0.021142  -9.6e-05  3.25494  -0.001  -0.054448  -0.025032  0.00113  3.236255  0.001
N  N59  1  0.48719926  0.21488751  0.21506628  1  0.013377  0.006373  2.86786  0.008  0.005342  0.003394  3.164486  0.005  0.007444  0.0021  3.175061  0.003  -0.047585  0.004468  0.004724  3.15719  0.006
N  N60  1  0.51280323  0.78511314  0.78493416  1  0.013371  0.00637  2.867771  0.008  0.005355  0.003393  3.164414  0.005  0.007455  0.0021  3.174988  0.003  -0.047674  0.004499  0.004724  3.157133  0.006
N  N61  1  0.48430781  0.12341484  0.27716833  1  -0.227337  0.001837  3.382601  0.002  -0.17157  0.001233  3.629219  0.001  -0.185899  0.001161  3.639157  0.001  -0.236193  -0.162152  0.001297  3.622823  0.001
N  N62  1  0.51568972  0.87658293  0.72282859  1  -0.227317  0.001839  3.382241  0.002  -0.171596  0.001232  3.628906  0.001  -0.185917  0.001162  3.638832  0.001  -0.236201  -0.162243  0.001298  3.622575  0.001
N  N63  1  0.91745723  0.94067244  0.12890379  1  -0.315868  0.078087  3.255591  0.102  -0.285867  0.055146  3.588008  0.075  -0.315723  0.045671  3.605703  0.065  -0.256912  -0.267503  0.061007  3.577064  0.081
N  N64  1  0.08254222  0.05932826  0.87109790  1  -0.315933  0.078077  3.255505  0.102  -0.285883  0.055143  3.587897  0.075  -0.315739  0.045668  3.605588  0.065  -0.256904  -0.267519  0.061002  3.576958  0.081
N  N65  1  0.71958824  0.92587192  0.13534467  1  -0.035856  -0.001592  2.92498  -0.002  -0.044358  0.000544  3.24644  0.0  -0.040284  -0.000188  3.258238  -0.001  -0.077967  -0.046714  0.001143  3.238474  0.001
N  N66  1  0.28041099  0.07412772  0.86465274  1  -0.035921  -0.00161  2.925197  -0.002  -0.044432  0.000544  3.246668  0.0  -0.040356  -0.000187  3.258467  -0.001  -0.077998  -0.046786  0.001143  3.2387  0.001
N  N67  1  0.72173359  0.88361195  0.22914569  1  -0.01976  0.008602  2.884578  0.011  -0.027971  0.004207  3.187658  0.006  -0.027373  0.002499  3.197764  0.003  -0.064046  -0.0277  0.006005  3.180494  0.008
N  N68  1  0.27826559  0.11638678  0.77085241  1  -0.019691  0.008626  2.884706  0.011  -0.027874  0.004206  3.187755  0.006  -0.027279  0.0025  3.197863  0.003  -0.064008  -0.027601  0.006004  3.180594  0.008
N  N69  1  0.92143453  0.87219336  0.28464538  1  -0.226781  0.002377  3.326356  0.003  -0.166372  0.001553  3.568926  0.002  -0.181721  0.001363  3.580301  0.002  -0.229579  -0.156407  0.001715  3.561345  0.002
N  N70  1  0.07856645  0.12780821  0.71535415  1  -0.226732  0.002372  3.326209  0.003  -0.166322  0.001555  3.568819  0.002  -0.181669  0.001362  3.580192  0.002  -0.229585  -0.156364  0.001715  3.561255  0.002
O  O71  1  0.34339925  0.19050029  0.51982990  1  -0.737619  -0.000915  1.880141  -0.001  -0.689537  -0.000264  2.116804  0.0  -0.709839  -4.8e-05  2.098656  0.0  -0.38036  -0.67473  -0.000616  2.128884  -0.001
O  O72  1  0.65660481  0.80950038  0.48017157  1  -0.73759  -0.000926  1.880178  -0.001  -0.689508  -0.000262  2.116839  0.0  -0.70981  -5.1e-05  2.098692  0.0  -0.380346  -0.674695  -0.000615  2.128913  -0.001
O  O73  1  0.99159671  0.23353483  0.53612080  1  -0.737432  -0.002149  1.982219  -0.003  -0.675026  -0.001276  2.219565  -0.002  -0.696521  -0.000704  2.199787  -0.001  -0.363249  -0.659477  -0.001887  2.233125  -0.002
O  O74  1  0.00840127  0.76646770  0.46387929  1  -0.737407  -0.002157  1.982247  -0.003  -0.675039  -0.001275  2.219616  -0.002  -0.696534  -0.000705  2.199842  -0.001  -0.363273  -0.659487  -0.001888  2.233173  -0.002
O  O75  1  0.05377290  0.16523550  0.34668768  1  -0.726778  0.000465  1.966371  0.001  -0.67846  0.000171  2.220492  0.0  -0.699316  6.7e-05  2.205451  0.0  -0.376499  -0.663589  0.000246  2.230492  0.0
O  O76  1  0.94622964  0.83476607  0.65331206  1  -0.72676  0.000472  1.966393  0.001  -0.678444  0.000169  2.220505  0.0  -0.699299  7e-05  2.205464  0.0  -0.376501  -0.663569  0.000247  2.230503  0.0
O  O77  1  0.17112533  0.37567731  0.45416488  1  -0.737259  0.000955  1.940847  0.0  -0.696573  0.000604  2.207152  0.0  -0.718322  0.000759  2.188078  0.0  -0.366758  -0.679828  0.000481  2.219495  0.0
O  O78  1  0.82887432  0.62432708  0.54583486  1  -0.737159  0.000976  1.94095  0.0  -0.696446  0.000602  2.207207  0.0  -0.718204  0.000762  2.188152  0.0  -0.366662  -0.679716  0.000481  2.219581  0.0
O  O79  1  0.62167449  0.32818423  0.46938951  1  -0.812533  -0.070182  1.973919  -0.091  -0.793531  -0.048822  2.203141  -0.068  -0.826495  -0.037865  2.170847  -0.055  -0.5764  -0.769938  -0.053924  2.226415  -0.073
O  O80  1  0.37832634  0.67181546  0.53060975  1  -0.812483  -0.070184  1.973913  -0.091  -0.793476  -0.048823  2.203144  -0.068  -0.826439  -0.037866  2.170851  -0.055  -0.576399  -0.769881  -0.053928  2.226417  -0.073
O  O81  1  0.18155177  0.35127808  0.93027332  1  -0.814115  -0.001779  1.883956  -0.001  -0.778865  -0.001331  2.096263  -0.001  -0.796316  -0.0013  2.066272  -0.001  -0.597626  -0.766888  -0.001333  2.117204  -0.001
O  O82  1  0.81844609  0.64872259  0.06972734  1  -0.814128  -0.001777  1.883915  -0.001  -0.778886  -0.001331  2.096263  -0.001  -0.796336  -0.001301  2.066272  -0.001  -0.597655  -0.766912  -0.001334  2.117203  -0.001
