# generated using pymatgen
data_CdH22C26N2O5
_symmetry_space_group_name_H-M   'P 1'
_cell_length_a   9.58779607
_cell_length_b   11.36405154
_cell_length_c   23.63109241
_cell_angle_alpha   89.99999775
_cell_angle_beta   100.60501011
_cell_angle_gamma   89.99997752
_symmetry_Int_Tables_number   1
_chemical_formula_structural   CdH22C26N2O5
_chemical_formula_sum   'Cd4 H88 C104 N8 O20'
_cell_volume   2530.77552796
_cell_formula_units_Z   4
loop_
 _symmetry_equiv_pos_site_id
 _symmetry_equiv_pos_as_xyz
  1  'x, y, z'
loop_
 _atom_site_type_symbol
 _atom_site_label
 _atom_site_symmetry_multiplicity
 _atom_site_fract_x
 _atom_site_fract_y
 _atom_site_fract_z
 _atom_site_occupancy
 _atom_site_pbe_bader_charge
 _atom_site_pbe_bader_spin_density
 _atom_site_pbe_cm5_charge
 _atom_site_pbe_ddec_charge
 _atom_site_pbe_ddec_spin_density
 _atom_site_pbe_ddec_sum_bond_order
 _atom_site_pbe_magmom
Cd  Cd0  1  0.07578035  0.83106626  0.18774872  1  1.26437  0  0.756773  0.87228  0  2.148819  0
Cd  Cd1  1  0.92421790  0.33106486  0.31225116  1  1.264363  0  0.756767  0.872278  0  2.148886  0
Cd  Cd2  1  0.92421912  0.16893428  0.81225089  1  1.264372  0  0.756756  0.87226  0  2.148836  0
Cd  Cd3  1  0.07578156  0.66893392  0.68774887  1  1.264368  0  0.756767  0.872293  0  2.148801  0
H  H4  1  0.80161476  0.89203647  0.21882878  1  0.622082  0  0.315879  0.389418  0  0.89233  0
H  H5  1  0.19838451  0.39203707  0.28117160  1  0.622093  0  0.315878  0.389421  0  0.892322  0
H  H6  1  0.19838575  0.10796407  0.78117176  1  0.622076  0  0.315876  0.389415  0  0.892319  0
H  H7  1  0.80161601  0.60796346  0.71882893  1  0.62209  0  0.315888  0.389438  0  0.892346  0
H  H8  1  0.88369135  0.01420956  0.22715471  1  0.645972  0  0.281976  0.382265  0  0.96579  0
H  H9  1  0.11630704  0.51421006  0.27284519  1  0.645964  0  0.28198  0.382267  0  0.965786  0
H  H10  1  0.11630811  0.98579009  0.77284490  1  0.645962  0  0.28197  0.382255  0  0.965806  0
H  H11  1  0.88369135  0.48579047  0.72715518  1  0.645967  0  0.28198  0.38228  0  0.965768  0
H  H12  1  0.16034160  0.58623454  0.37574616  1  0.103722  0  0.101064  0.099992  0  1.073094  0
H  H13  1  0.83965676  0.08623406  0.12425373  1  0.103721  0  0.101084  0.100005  0  1.073128  0
H  H14  1  0.83965786  0.41376688  0.62425387  1  0.103713  0  0.101078  0.099996  0  1.073124  0
H  H15  1  0.16034269  0.91376647  0.87574672  1  0.103705  0  0.101087  0.10001  0  1.073084  0
H  H16  1  0.31231317  0.53744909  0.46876370  1  0.055118  0  0.10202  0.101503  0  1.008544  0
H  H17  1  0.68768733  0.03744779  0.03123678  1  0.055342  0  0.102007  0.101508  0  1.008571  0
H  H18  1  0.68768735  0.46255144  0.53123599  1  0.055149  0  0.102012  0.101501  0  1.00853  0
H  H19  1  0.31231319  0.96255098  0.96876333  1  0.055124  0  0.102016  0.101516  0  1.008593  0
H  H20  1  0.56627667  0.60180198  0.48857619  1  0.040379  0  0.097125  0.089984  0  1.037306  0
H  H21  1  0.43372381  0.10180253  0.01142344  1  0.04036  0  0.097123  0.090002  0  1.037286  0
H  H22  1  0.43372492  0.39819856  0.51142316  1  0.040364  0  0.097128  0.089962  0  1.037324  0
H  H23  1  0.56627565  0.89819801  0.98857616  1  0.040383  0  0.097129  0.089982  0  1.03731  0
H  H24  1  0.66105817  0.72294538  0.41644465  1  0.081579  0  0.094625  0.091351  0  1.066533  0
H  H25  1  0.33894225  0.22294683  0.08355498  1  0.081554  0  0.09463  0.091428  0  1.066502  0
H  H26  1  0.33894129  0.27705428  0.58355496  1  0.081564  0  0.094641  0.091426  0  1.066501  0
H  H27  1  0.66105828  0.77705370  0.91644429  1  0.081566  0  0.094633  0.091392  0  1.066546  0
H  H28  1  0.50033508  0.78307625  0.32542856  1  0.081014  0  0.104085  0.105989  0  1.00068  0
H  H29  1  0.49966425  0.28307677  0.17457097  1  0.081015  0  0.104102  0.106048  0  1.000641  0
H  H30  1  0.49966545  0.21692340  0.67457070  1  0.081029  0  0.104105  0.106049  0  1.000647  0
H  H31  1  0.50033416  0.71692377  0.82542813  1  0.081024  0  0.104082  0.105998  0  1.000645  0
H  H32  1  0.04199459  0.11313834  0.00852559  1  0.131914  0  0.100815  0.113958  0  1.035432  0
H  H33  1  0.95800269  0.61314206  0.49147506  1  0.131898  0  0.100854  0.114071  0  1.035373  0
H  H34  1  0.95800487  0.88686132  0.99147444  1  0.131886  0  0.100821  0.113961  0  1.035453  0
H  H35  1  0.04199358  0.38686024  0.50852557  1  0.131858  0  0.100817  0.11398  0  1.03546  0
H  H36  1  0.05154114  0.32086351  0.97541231  1  0.028413  0  0.092732  0.088845  0  1.039306  0
H  H37  1  0.94845840  0.82086551  0.52458777  1  0.028416  0  0.092714  0.088816  0  1.03933  0
H  H38  1  0.94845831  0.67913791  0.02458814  1  0.028411  0  0.092714  0.088846  0  1.039292  0
H  H39  1  0.05154106  0.17913591  0.47541183  1  0.02841  0  0.092717  0.088805  0  1.039321  0
H  H40  1  0.09275107  0.48389958  0.04656871  1  0.061793  0  0.093661  0.09135  0  1.030042  0
H  H41  1  0.90724712  0.98389892  0.45342947  1  0.061763  0  0.093591  0.091273  0  1.030088  0
H  H42  1  0.90724838  0.51610183  0.95343132  1  0.061834  0  0.093639  0.091314  0  1.030091  0
H  H43  1  0.09275130  0.01610073  0.54656879  1  0.061796  0  0.093648  0.091307  0  1.030079  0
H  H44  1  0.12885494  0.43899217  0.15182817  1  0.060019  0  0.092706  0.084716  0  1.053631  0
H  H45  1  0.87114539  0.93898625  0.34817059  1  0.060137  0  0.092687  0.084741  0  1.053556  0
H  H46  1  0.87114452  0.56101012  0.84817228  1  0.060048  0  0.09271  0.084723  0  1.05361  0
H  H47  1  0.12885727  0.06100900  0.65182799  1  0.060032  0  0.092699  0.084707  0  1.053628  0
H  H48  1  0.12383801  0.23095545  0.18456348  1  0.090225  0  0.103134  0.11432  0  1.007812  0
H  H49  1  0.87616240  0.73094865  0.31543698  1  0.090181  0  0.103171  0.11438  0  1.007778  0
H  H50  1  0.87616357  0.76904596  0.81543671  1  0.09022  0  0.103131  0.1143  0  1.007762  0
H  H51  1  0.12383812  0.26904572  0.68456312  1  0.09023  0  0.103136  0.114342  0  1.007768  0
H  H52  1  0.78705829  0.84990537  0.09552569  1  0.134336  0  0.11509  0.088558  0  1.021876  0
H  H53  1  0.21294100  0.34990508  0.40447469  1  0.13434  0  0.115079  0.08854  0  1.021895  0
H  H54  1  0.21294009  0.15009516  0.90447510  1  0.134345  0  0.115072  0.088553  0  1.021923  0
H  H55  1  0.78706057  0.65009457  0.59552635  1  0.134336  0  0.115079  0.088528  0  1.021905  0
H  H56  1  0.60374331  0.72588274  0.03504235  1  0.091114  0  0.102906  0.108464  0  1.035056  0
H  H57  1  0.39625604  0.22588326  0.46495761  1  0.091005  0  0.10289  0.108453  0  1.035066  0
H  H58  1  0.39625614  0.27411692  0.96495810  1  0.090969  0  0.102883  0.108425  0  1.035084  0
H  H59  1  0.60374447  0.77411727  0.53504249  1  0.091023  0  0.1029  0.10846  0  1.035077  0
H  H60  1  0.79619985  0.42373078  0.12976029  1  0.121935  0  0.108905  0.121504  0  1.015216  0
H  H61  1  0.20380153  0.92373124  0.37024025  1  0.121947  0  0.10891  0.121511  0  1.015199  0
H  H62  1  0.20380172  0.57626888  0.87024075  1  0.12194  0  0.108921  0.121556  0  1.015145  0
H  H63  1  0.79620112  0.07626929  0.62975960  1  0.121938  0  0.108927  0.121521  0  1.015198  0
H  H64  1  0.96456874  0.56123101  0.18887863  1  0.118703  0  0.121376  0.103117  0  1.00968  0
H  H65  1  0.03543069  0.06122990  0.31112177  1  0.118717  0  0.12139  0.103119  0  1.009698  0
H  H66  1  0.03543176  0.43876953  0.81112275  1  0.118726  0  0.121386  0.103142  0  1.009712  0
H  H67  1  0.96456983  0.93877063  0.68887834  1  0.118696  0  0.12138  0.103091  0  1.009703  0
H  H68  1  0.61717319  0.38974029  0.04966942  1  0.070277  0  0.099579  0.078771  0  1.014709  0
H  H69  1  0.38282821  0.88973981  0.45033027  1  0.07027  0  0.099573  0.078787  0  1.01469  0
H  H70  1  0.38282839  0.61026024  0.95033034  1  0.070267  0  0.099567  0.078757  0  1.014705  0
H  H71  1  0.61717338  0.11025985  0.54966907  1  0.070284  0  0.099581  0.078767  0  1.014689  0
H  H72  1  0.37655067  0.41213288  0.03682911  1  0.083208  0  0.103996  0.084443  0  1.013716  0
H  H73  1  0.62345072  0.91213143  0.46317016  1  0.083185  0  0.103995  0.084455  0  1.01367  0
H  H74  1  0.62345091  0.58786942  0.96317066  1  0.083165  0  0.10399  0.084423  0  1.013721  0
H  H75  1  0.37655192  0.08786735  0.53682969  1  0.083222  0  0.104002  0.084456  0  1.013692  0
H  H76  1  0.45013937  0.49463249  0.14553098  1  0.093233  0  0.112975  0.125772  0  0.98848  0
H  H77  1  0.54986093  0.99463195  0.35446863  1  0.09321  0  0.11297  0.125758  0  0.988503  0
H  H78  1  0.54986327  0.50536893  0.85446972  1  0.093219  0  0.112986  0.125757  0  0.988513  0
H  H79  1  0.45013748  0.00536770  0.64553047  1  0.093231  0  0.112981  0.125768  0  0.988536  0
H  H80  1  0.32592646  0.62535085  0.20478029  1  0.122402  0  0.116604  0.086357  0  1.003082  0
H  H81  1  0.67407083  0.12535130  0.29521910  1  0.122384  0  0.116588  0.086289  0  1.003076  0
H  H82  1  0.67407407  0.37465145  0.79521940  1  0.122408  0  0.1166  0.086327  0  1.003092  0
H  H83  1  0.32592758  0.87465012  0.70478000  1  0.122308  0  0.116596  0.086344  0  1.003048  0
H  H84  1  0.15494650  0.82816147  0.06378912  1  0.153916  0  0.116194  0.095072  0  1.035731  0
H  H85  1  0.84505280  0.32816097  0.43621084  1  0.153938  0  0.116165  0.095017  0  1.035698  0
H  H86  1  0.84504977  0.17183906  0.93621067  1  0.153942  0  0.116152  0.094992  0  1.035704  0
H  H87  1  0.15494666  0.67183957  0.56378876  1  0.153927  0  0.11615  0.09504  0  1.03576  0
H  H88  1  0.26572772  0.70377884  0.99753454  1  0.098179  0  0.104565  0.112641  0  1.030247  0
H  H89  1  0.73427401  0.20377665  0.50246487  1  0.098208  0  0.10457  0.112644  0  1.030271  0
H  H90  1  0.73427069  0.29622257  0.00246498  1  0.098205  0  0.104563  0.112637  0  1.030286  0
H  H91  1  0.26572864  0.79622213  0.49753456  1  0.098185  0  0.104547  0.112613  0  1.030299  0
C  C92  1  0.22444578  0.72539001  0.29074013  1  1.551113  0  0.194717  0.549925  0  4.247513  0
C  C93  1  0.77555357  0.22538955  0.20925983  1  1.551075  0  0.194702  0.549963  0  4.24745  0
C  C94  1  0.77555261  0.27460965  0.70926024  1  1.55108  0  0.194711  0.54995  0  4.247529  0
C  C95  1  0.22444589  0.77461099  0.79074019  1  1.551087  0  0.194705  0.549909  0  4.247584  0
C  C96  1  0.32058104  0.68848414  0.34509025  1  -0.040334  0  -0.022529  -0.038549  0  4.003067  0
C  C97  1  0.67941833  0.18848547  0.15490972  1  -0.040292  0  -0.022518  -0.038528  0  4.002961  0
C  C98  1  0.67941842  0.31151552  0.65490978  1  -0.040287  0  -0.022501  -0.038538  0  4.002977  0
C  C99  1  0.32058219  0.81151506  0.84508997  1  -0.040303  0  -0.022467  -0.038508  0  4.003169  0
C  C100  1  0.26918248  0.61732203  0.38500035  1  -0.107369  0  -0.092104  -0.110829  0  3.989034  0
C  C101  1  0.73081799  0.11732159  0.11499970  1  -0.107374  0  -0.092137  -0.110883  0  3.989108  0
C  C102  1  0.73081805  0.38267851  0.61499934  1  -0.107381  0  -0.092155  -0.110885  0  3.989148  0
C  C103  1  0.26918040  0.88267895  0.88500024  1  -0.107381  0  -0.09214  -0.110817  0  3.988998  0
C  C104  1  0.35617850  0.58859194  0.43712090  1  -0.019232  0  -0.095856  -0.092872  0  4.026354  0
C  C105  1  0.64381986  0.08859153  0.06287899  1  -0.019468  0  -0.095871  -0.092903  0  4.026435  0
C  C106  1  0.64382096  0.41140684  0.56287955  1  -0.019262  0  -0.095855  -0.092854  0  4.02641  0
C  C107  1  0.35617960  0.91140812  0.93712061  1  -0.019225  0  -0.095871  -0.092971  0  4.026456  0
C  C108  1  0.49727589  0.62649741  0.44842306  1  -0.057031  0  -0.094779  -0.090594  0  4.013536  0
C  C109  1  0.50272564  0.12649617  0.05157623  1  -0.057028  0  -0.094699  -0.090458  0  4.013393  0
C  C110  1  0.50272570  0.37350313  0.55157628  1  -0.057043  0  -0.094696  -0.090465  0  4.013426  0
C  C111  1  0.49727488  0.87350349  0.94842304  1  -0.057025  0  -0.094778  -0.090541  0  4.013428  0
C  C112  1  0.55038309  0.69533289  0.40811540  1  -0.094111  0  -0.095535  -0.087208  0  4.014037  0
C  C113  1  0.44961522  0.19533430  0.09188448  1  -0.094111  0  -0.095525  -0.087334  0  4.014082  0
C  C114  1  0.44961638  0.30466677  0.59188420  1  -0.094105  0  -0.095541  -0.087296  0  4.014102  0
C  C115  1  0.55038424  0.80466623  0.90811512  1  -0.094106  0  -0.095513  -0.087246  0  4.013978  0
C  C116  1  0.46151013  0.72807123  0.35702401  1  0.007358  0  -0.085066  -0.096391  0  3.964573  0
C  C117  1  0.53848923  0.22807085  0.14297511  1  0.007366  0  -0.085146  -0.096521  0  3.964639  0
C  C118  1  0.53848934  0.27192843  0.64297517  1  0.007355  0  -0.085138  -0.096512  0  3.964633  0
C  C119  1  0.46150917  0.77192969  0.85702441  1  0.00735  0  -0.085121  -0.09645  0  3.964704  0
C  C120  1  0.07841138  0.03648521  0.12050835  1  1.560684  0  0.184975  0.544653  0  4.259329  0
C  C121  1  0.92158699  0.53648103  0.37949324  1  1.56099  0  0.185087  0.544856  0  4.259271  0
C  C122  1  0.92159020  0.96351709  0.87949226  1  1.560951  0  0.185015  0.544777  0  4.259262  0
C  C123  1  0.07840822  0.46351599  0.62050689  1  1.560946  0  0.185005  0.544672  0  4.259341  0
C  C124  1  0.08379051  0.16011893  0.09878224  1  -0.026176  0  -0.019164  -0.028266  0  3.977146  0
C  C125  1  0.91620462  0.66011563  0.40121825  1  -0.026486  0  -0.019216  -0.028557  0  3.97713  0
C  C126  1  0.91621002  0.83988336  0.90121702  1  -0.026711  0  -0.019206  -0.028471  0  3.977129  0
C  C127  1  0.08379057  0.33988226  0.59878315  1  -0.026721  0  -0.019185  -0.02838  0  3.977144  0
C  C128  1  0.06177404  0.18487859  0.03972945  1  -0.111156  0  -0.090238  -0.107566  0  3.948124  0
C  C129  1  0.93822425  0.68487616  0.46027255  1  -0.111124  0  -0.090268  -0.107565  0  3.947985  0
C  C130  1  0.93822753  0.81512282  0.96027201  1  -0.111179  0  -0.090235  -0.107475  0  3.947944  0
C  C131  1  0.06177096  0.31512174  0.53972757  1  -0.111103  0  -0.090223  -0.10752  0  3.947904  0
C  C132  1  0.06676692  0.30140482  0.02127747  1  -0.056397  0  -0.102484  -0.102  0  4.042486  0
C  C133  1  0.93323028  0.80140502  0.47872191  1  -0.056344  0  -0.102519  -0.10211  0  4.042496  0
C  C134  1  0.93323253  0.69859660  0.97872256  1  -0.056395  0  -0.102504  -0.102108  0  4.042506  0
C  C135  1  0.06676706  0.19859463  0.52127796  1  -0.056399  0  -0.102541  -0.102068  0  4.042533  0
C  C136  1  0.09046148  0.39312298  0.06127927  1  -0.069889  0  -0.100445  -0.09459  0  4.023443  0
C  C137  1  0.90953569  0.89312232  0.43871968  1  -0.069851  0  -0.100418  -0.094439  0  4.02337  0
C  C138  1  0.90953904  0.60687844  0.93872126  1  -0.069867  0  -0.100428  -0.094523  0  4.023394  0
C  C139  1  0.09046061  0.10687734  0.56127842  1  -0.06989  0  -0.100419  -0.094493  0  4.023379  0
C  C140  1  0.11118057  0.36831404  0.12020510  1  -0.041951  0  -0.100211  -0.095329  0  4.040215  0
C  C141  1  0.88881766  0.86830987  0.37979435  1  -0.042026  0  -0.100111  -0.095331  0  4.039932  0
C  C142  1  0.88881995  0.63168738  0.87979501  1  -0.041933  0  -0.100172  -0.095271  0  4.040058  0
C  C143  1  0.11118074  0.13168715  0.62020517  1  -0.041936  0  -0.100167  -0.095275  0  4.040111  0
C  C144  1  0.10874430  0.25229820  0.13890386  1  -0.028851  0  -0.086565  -0.096407  0  3.953788  0
C  C145  1  0.89125397  0.75229403  0.36109645  1  -0.028853  0  -0.086597  -0.096362  0  3.95363  0
C  C146  1  0.89125727  0.74770322  0.86109676  1  -0.028582  0  -0.086561  -0.096358  0  3.953756  0
C  C147  1  0.10874336  0.24770211  0.63890342  1  -0.028599  0  -0.086579  -0.09643  0  3.953849  0
C  C148  1  0.78267292  0.75516011  0.10246095  1  0.439536  0  0.039896  0.084021  0  3.971319  0
C  C149  1  0.21732854  0.25515983  0.39753918  1  0.439732  0  0.039912  0.084077  0  3.971295  0
C  C150  1  0.21732546  0.24483866  0.89753985  1  0.43957  0  0.039919  0.084037  0  3.97133  0
C  C151  1  0.78267197  0.74483983  0.60246135  1  0.439543  0  0.039915  0.084066  0  3.971306  0
C  C152  1  0.68237294  0.68466415  0.06828007  1  -0.053435  0  -0.087128  -0.180919  0  3.952856  0
C  C153  1  0.31762962  0.18466382  0.43172014  1  -0.053364  0  -0.087081  -0.180929  0  3.952897  0
C  C154  1  0.31762969  0.31533639  0.93172105  1  -0.053327  0  -0.087049  -0.180809  0  3.952898  0
C  C155  1  0.68237196  0.81533583  0.56828005  1  -0.05335  0  -0.087119  -0.180909  0  3.952843  0
C  C156  1  0.68648579  0.56203711  0.07571066  1  -0.025082  0  0.009443  0.130861  0  3.944841  0
C  C157  1  0.31351577  0.06203766  0.42428905  1  -0.02506  0  0.009457  0.130913  0  3.94473  0
C  C158  1  0.31351579  0.43796167  0.92428953  1  -0.025049  0  0.009426  0.130736  0  3.94484  0
C  C159  1  0.68648688  0.93796287  0.57571080  1  -0.02508  0  0.009458  0.130862  0  3.944774  0
C  C160  1  0.78891909  0.51765591  0.12051939  1  -0.063443  0  -0.077484  -0.161456  0  3.911447  0
C  C161  1  0.21108249  0.01765650  0.37948075  1  -0.063362  0  -0.077498  -0.161512  0  3.911411  0
C  C162  1  0.21108355  0.48234463  0.87948088  1  -0.063475  0  -0.077484  -0.161439  0  3.911276  0
C  C163  1  0.78891909  0.98234403  0.62051902  1  -0.063457  0  -0.077478  -0.161467  0  3.911453  0
C  C164  1  0.88417152  0.59400454  0.15379535  1  0.501953  0  0.052765  0.107733  0  3.917717  0
C  C165  1  0.11583002  0.09400429  0.34620521  1  0.501835  0  0.052741  0.107771  0  3.917742  0
C  C166  1  0.11582793  0.40599511  0.84620553  1  0.501978  0  0.052685  0.107647  0  3.917827  0
C  C167  1  0.88417262  0.90599624  0.65379506  1  0.50196  0  0.052727  0.107785  0  3.91772  0
C  C168  1  0.58942182  0.48075449  0.03681019  1  -0.033145  0  -0.075675  -0.078792  0  3.763096  0
C  C169  1  0.41058059  0.98075312  0.46319000  1  -0.033133  0  -0.075697  -0.0788  0  3.763125  0
C  C170  1  0.41057976  0.51924692  0.96319000  1  -0.033138  0  -0.075661  -0.078691  0  3.763028  0
C  C171  1  0.58942206  0.01924566  0.53680943  1  -0.033143  0  -0.075708  -0.078776  0  3.763042  0
C  C172  1  0.42357441  0.49760239  0.02901081  1  -0.003329  0  -0.069056  -0.065342  0  3.762694  0
C  C173  1  0.57642588  0.99760184  0.47098880  1  -0.002904  0  -0.069068  -0.065375  0  3.762694  0
C  C174  1  0.57642717  0.50239815  0.97098896  1  -0.002781  0  -0.069076  -0.065323  0  3.762599  0
C  C175  1  0.42357571  0.00239694  0.52901054  1  -0.003341  0  -0.069067  -0.065431  0  3.762811  0
C  C176  1  0.36571817  0.58576813  0.06561215  1  -0.026959  0  0.009551  0.130141  0  3.969503  0
C  C177  1  0.63428126  0.08576594  0.43438740  1  -0.026961  0  0.009578  0.130205  0  3.969356  0
C  C178  1  0.63428235  0.41423328  0.93438796  1  -0.027067  0  0.009584  0.130184  0  3.969371  0
C  C179  1  0.36571928  0.91423195  0.56561144  1  -0.026957  0  0.009567  0.130224  0  3.969491  0
C  C180  1  0.38560688  0.56765047  0.12536933  1  -0.009361  0  -0.081005  -0.175539  0  3.940138  0
C  C181  1  0.61439044  0.06765005  0.37463006  1  -0.009395  0  -0.080992  -0.17555  0  3.940138  0
C  C182  1  0.61439153  0.43235183  0.87463019  1  -0.009386  0  -0.081013  -0.175534  0  3.940126  0
C  C183  1  0.38561009  0.93235049  0.62536963  1  -0.009375  0  -0.081016  -0.17559  0  3.940199  0
C  C184  1  0.31745035  0.64060862  0.15873677  1  0.424124  0  0.044259  0.095605  0  3.971866  0
C  C185  1  0.68254692  0.14060817  0.34126262  1  0.424101  0  0.044297  0.095756  0  3.971619  0
C  C186  1  0.68254911  0.35939192  0.84126284  1  0.424117  0  0.044276  0.095697  0  3.971739  0
C  C187  1  0.31745042  0.85939060  0.65873640  1  0.424232  0  0.044322  0.095735  0  3.971779  0
C  C188  1  0.22165901  0.75309580  0.07984296  1  0.501811  0  0.046878  0.097239  0  3.94995  0
C  C189  1  0.77833928  0.25309533  0.42015650  1  0.501831  0  0.04686  0.09724  0  3.949881  0
C  C190  1  0.77833939  0.24690385  0.92015657  1  0.501825  0  0.046879  0.097326  0  3.949788  0
C  C191  1  0.22165913  0.74690345  0.57984260  1  0.501795  0  0.046877  0.097239  0  3.949936  0
C  C192  1  0.28489219  0.68299052  0.04328862  1  -0.072867  0  -0.08886  -0.187934  0  3.959138  0
C  C193  1  0.71510825  0.18298918  0.45671101  1  -0.072854  0  -0.088837  -0.187911  0  3.959013  0
C  C194  1  0.71510727  0.31701090  0.95671098  1  -0.072863  0  -0.088823  -0.187918  0  3.959028  0
C  C195  1  0.28489333  0.81700960  0.54328876  1  -0.072874  0  -0.088834  -0.187918  0  3.959126  0
N  N196  1  0.88385366  0.71085723  0.14432991  1  -1.215948  0  -0.329756  -0.261189  0  3.517511  0
N  N197  1  0.11614569  0.21085786  0.35567048  1  -1.216111  0  -0.329764  -0.261235  0  3.517513  0
N  N198  1  0.11614684  0.28914242  0.85567147  1  -1.215982  0  -0.329732  -0.2612  0  3.517617  0
N  N199  1  0.88385376  0.78914267  0.64432997  1  -1.215938  0  -0.329749  -0.261232  0  3.517551  0
N  N200  1  0.23405148  0.73086077  0.13636242  1  -1.248382  0  -0.326614  -0.252662  0  3.494673  0
N  N201  1  0.76594680  0.23086118  0.36363789  1  -1.248348  0  -0.326639  -0.252731  0  3.494515  0
N  N202  1  0.76594691  0.26914064  0.86363753  1  -1.248376  0  -0.326616  -0.252741  0  3.494527  0
N  N203  1  0.23405266  0.76914023  0.63636172  1  -1.248344  0  -0.326614  -0.25271  0  3.494622  0
O  O204  1  0.89501697  0.92588089  0.23186454  1  -1.258042  0  -0.577655  -0.746296  0  2.046676  0
O  O205  1  0.10498122  0.42588065  0.26813533  1  -1.258033  0  -0.577663  -0.746312  0  2.046695  0
O  O206  1  0.10498248  0.07411876  0.76813549  1  -1.258017  0  -0.577645  -0.746288  0  2.046693  0
O  O207  1  0.89501717  0.57411900  0.73186461  1  -1.258035  0  -0.577664  -0.746341  0  2.046706  0
O  O208  1  0.24513282  0.82670774  0.27091711  1  -1.148389  0  -0.325191  -0.526942  0  2.193263  0
O  O209  1  0.75486649  0.32670905  0.22908243  1  -1.148399  0  -0.325189  -0.526975  0  2.193192  0
O  O210  1  0.75486664  0.17329191  0.72908249  1  -1.148409  0  -0.325214  -0.526986  0  2.19325  0
O  O211  1  0.24513298  0.67329237  0.77091676  1  -1.148376  0  -0.325192  -0.526938  0  2.193245  0
O  O212  1  0.12639432  0.65615592  0.26629839  1  -1.189079  0  -0.321169  -0.574337  0  2.227045  0
O  O213  1  0.87360294  0.15615630  0.23370142  1  -1.189053  0  -0.321161  -0.574337  0  2.227092  0
O  O214  1  0.87360300  0.34384374  0.73370233  1  -1.189045  0  -0.321168  -0.574331  0  2.227084  0
O  O215  1  0.12639439  0.84384424  0.76629844  1  -1.189082  0  -0.321161  -0.574328  0  2.227134  0
O  O216  1  0.14154124  0.01766972  0.17230790  1  -1.143946  0  -0.339703  -0.535071  0  2.196567  0
O  O217  1  0.85845713  0.51766557  0.32769368  1  -1.143892  0  -0.3397  -0.535058  0  2.196778  0
O  O218  1  0.85845927  0.98233169  0.82769263  1  -1.14391  0  -0.339732  -0.535086  0  2.196688  0
O  O219  1  0.14154018  0.48233057  0.67230787  1  -1.143891  0  -0.339678  -0.535014  0  2.196481  0
O  O220  1  0.00905883  0.95844690  0.08840034  1  -1.196814  0  -0.337002  -0.583793  0  2.160807  0
O  O221  1  0.99094146  0.45844459  0.41160096  1  -1.196932  0  -0.337059  -0.583873  0  2.160713  0
O  O222  1  0.99094169  0.04155452  0.91159977  1  -1.196882  0  -0.336978  -0.583781  0  2.16064  0
O  O223  1  0.00905904  0.54155331  0.58840042  1  -1.196875  0  -0.337023  -0.583804  0  2.160866  0
