# generated using pymatgen
data_CaH12C6(SO6)2
_symmetry_space_group_name_H-M   'P 1'
_cell_length_a   6.92847670
_cell_length_b   10.03566112
_cell_length_c   10.72982371
_cell_angle_alpha   64.63141650
_cell_angle_beta   83.33639307
_cell_angle_gamma   85.12816515
_symmetry_Int_Tables_number   1
_chemical_formula_structural   CaH12C6(SO6)2
_chemical_formula_sum   'Ca2 H24 C12 S4 O24'
_cell_volume   669.05217986
_cell_formula_units_Z   2
loop_
 _symmetry_equiv_pos_site_id
 _symmetry_equiv_pos_as_xyz
  1  'x, y, z'
loop_
 _atom_site_type_symbol
 _atom_site_label
 _atom_site_symmetry_multiplicity
 _atom_site_fract_x
 _atom_site_fract_y
 _atom_site_fract_z
 _atom_site_occupancy
 _atom_site_hle17_bader_spin_density
 _atom_site_hle17_ddec_charge
 _atom_site_hle17_ddec_spin_density
 _atom_site_hle17_ddec_sum_bond_order
 _atom_site_hle17_magmom
 _atom_site_hse06_10hf_bader_spin_density
 _atom_site_hse06_10hf_ddec_charge
 _atom_site_hse06_10hf_ddec_spin_density
 _atom_site_hse06_10hf_ddec_sum_bond_order
 _atom_site_hse06_10hf_magmom
 _atom_site_hse06_bader_spin_density
 _atom_site_hse06_ddec_charge
 _atom_site_hse06_ddec_spin_density
 _atom_site_hse06_ddec_sum_bond_order
 _atom_site_hse06_magmom
 _atom_site_pbe_bader_spin_density
 _atom_site_pbe_cm5_charge
 _atom_site_pbe_ddec_charge
 _atom_site_pbe_ddec_spin_density
 _atom_site_pbe_ddec_sum_bond_order
 _atom_site_pbe_magmom
Ca  Ca0  1  0.23702469  0.98098963  0.21671198  1  0  1.604198  0  1.019789  0  0  1.472108  0  1.367057  0  0  1.511288  0  1.323277  0  0  0.860498  1.442119  0  1.398765  0
Ca  Ca1  1  0.76297685  0.01901153  0.78328693  1  0  1.604178  0  1.019813  0  0  1.472102  0  1.367038  0  0  1.511286  0  1.323253  0  0  0.860476  1.442117  0  1.398745  0
H  H2  1  0.74798963  0.68153617  0.18677406  1  0  0.122611  0  0.957163  0  0  0.127921  0  1.026739  0  0  0.132474  0  1.022228  0  0  0.113039  0.124442  0  1.030403  0
H  H3  1  0.25200032  0.31846501  0.81322376  1  0  0.122594  0  0.957214  0  0  0.127928  0  1.02676  0  0  0.132483  0  1.022249  0  0  0.113031  0.124454  0  1.030419  0
H  H4  1  0.73202864  0.60117534  0.61677169  1  0  0.132228  0  0.92745  0  0  0.141339  0  0.988134  0  0  0.145893  0  0.984365  0  0  0.11599  0.138265  0  0.990603  0
H  H5  1  0.26797288  0.39882584  0.38322815  1  0  0.132214  0  0.927431  0  0  0.141322  0  0.988115  0  0  0.145877  0  0.984346  0  0  0.115992  0.138247  0  0.99058  0
H  H6  1  0.71603135  0.18165186  0.44276330  1  0  0.417144  0  0.830192  0  0  0.38974  0  0.901087  0  0  0.400412  0  0.889452  0  0  0.329596  0.382379  0  0.909028  0
H  H7  1  0.28397457  0.81834822  0.55723763  1  0  0.417067  0  0.830275  0  0  0.389734  0  0.901068  0  0  0.400404  0  0.889436  0  0  0.329614  0.382374  0  0.909008  0
H  H8  1  0.76411933  0.35187980  0.77078433  1  0  0.409955  0  0.783747  0  0  0.399746  0  0.826872  0  0  0.407116  0  0.819695  0  0  0.35916  0.394782  0  0.831514  0
H  H9  1  0.23588076  0.64812137  0.22921468  1  0  0.409938  0  0.783782  0  0  0.399728  0  0.826908  0  0  0.4071  0  0.819727  0  0  0.35912  0.394762  0  0.831549  0
H  H10  1  0.94208168  0.14749051  0.01286623  1  0  0.416058  0  0.884805  0  0  0.387366  0  0.945314  0  0  0.398409  0  0.929008  0  0  0.296165  0.379504  0  0.956895  0
H  H11  1  0.05791685  0.85251180  0.98713521  1  0  0.416063  0  0.884795  0  0  0.387366  0  0.945314  0  0  0.39841  0  0.929008  0  0  0.296157  0.379504  0  0.956894  0
H  H12  1  0.02187925  0.26020297  0.05972793  1  0  0.422794  0  0.872738  0  0  0.392681  0  0.93519  0  0  0.402831  0  0.920215  0  0  0.300464  0.3854  0  0.945926  0
H  H13  1  0.97812078  0.73979823  0.94027387  1  0  0.422802  0  0.872706  0  0  0.39267  0  0.935177  0  0  0.402819  0  0.920203  0  0  0.300457  0.38539  0  0.945911  0
H  H14  1  0.51950365  0.22400367  0.15297970  1  0  0.430839  0  0.866261  0  0  0.397883  0  0.932549  0  0  0.408277  0  0.917276  0  0  0.303616  0.390375  0  0.943645  0
H  H15  1  0.48049214  0.77599533  0.84702235  1  0  0.430844  0  0.866258  0  0  0.397885  0  0.932551  0  0  0.408279  0  0.917278  0  0  0.303624  0.390377  0  0.943648  0
H  H16  1  0.39520516  0.30958718  0.02564844  1  0  0.44953  0  0.837088  0  0  0.42141  0  0.894467  0  0  0.431005  0  0.880464  0  0  0.308296  0.414595  0  0.904387  0
H  H17  1  0.60479208  0.69041181  0.97435351  1  0  0.449537  0  0.837076  0  0  0.421418  0  0.894457  0  0  0.431012  0  0.880452  0  0  0.308297  0.414602  0  0.904377  0
H  H18  1  0.38086562  0.85609719  0.99869447  1  0  0.427126  0  0.875397  0  0  0.396149  0  0.93869  0  0  0.407764  0  0.921738  0  0  0.300996  0.387943  0  0.950618  0
H  H19  1  0.61913294  0.14390510  0.00130512  1  0  0.427107  0  0.875413  0  0  0.396117  0  0.93871  0  0  0.40773  0  0.921764  0  0  0.300996  0.387915  0  0.950632  0
H  H20  1  0.28410046  0.00925527  0.93092967  1  0  0.429355  0  0.858001  0  0  0.401354  0  0.926  0  0  0.411079  0  0.911841  0  0  0.315619  0.394329  0  0.936253  0
H  H21  1  0.71589957  0.99074701  0.06906890  1  0  0.429386  0  0.85797  0  0  0.401387  0  0.925955  0  0  0.411113  0  0.911795  0  0  0.315646  0.394361  0  0.936207  0
H  H22  1  0.20100557  0.12496103  0.41389585  1  0  0.443535  0  0.854592  0  0  0.413889  0  0.914455  0  0  0.424096  0  0.899516  0  0  0.300802  0.406589  0  0.925124  0
H  H23  1  0.79899318  0.87503793  0.58610322  1  0  0.443532  0  0.854587  0  0  0.413885  0  0.91445  0  0  0.424093  0  0.899511  0  0  0.300786  0.406584  0  0.925123  0
H  H24  1  0.08161321  0.22029593  0.28209004  1  0  0.419362  0  0.887422  0  0  0.389142  0  0.95028  0  0  0.399018  0  0.935727  0  0  0.295458  0.382114  0  0.960596  0
H  H25  1  0.91838263  0.77970196  0.71791246  1  0  0.419361  0  0.887417  0  0  0.389127  0  0.9503  0  0  0.399004  0  0.935746  0  0  0.295459  0.382101  0  0.960615  0
C  C26  1  0.73953988  0.65696604  0.39754010  1  0  -0.118129  0  3.784834  0  0  -0.097183  0  4.050475  0  0  -0.104439  0  4.07117  0  0  -0.027801  -0.092782  0  4.03724  0
C  C27  1  0.26046173  0.34303401  0.60245834  1  0  -0.118342  0  3.784948  0  0  -0.097406  0  4.050601  0  0  -0.104662  0  4.07129  0  0  -0.027885  -0.093007  0  4.03737  0
C  C28  1  0.74664812  0.60526483  0.29582769  1  0  -0.05991  0  3.765492  0  0  -0.107159  0  4.033788  0  0  -0.101835  0  4.048781  0  0  -0.092668  -0.110745  0  4.024519  0
C  C29  1  0.25334628  0.39473414  0.70417167  1  0  -0.05985  0  3.765492  0  0  -0.107109  0  4.033757  0  0  -0.101785  0  4.048747  0  0  -0.09263  -0.110693  0  4.024496  0
C  C30  1  0.75121978  0.45363607  0.33461315  1  0  -0.241134  0  3.768813  0  0  -0.221276  0  4.03354  0  0  -0.231143  0  4.053392  0  0  -0.037816  -0.215161  0  4.020699  0
C  C31  1  0.24877749  0.54636291  0.66538788  1  0  -0.241165  0  3.768748  0  0  -0.221279  0  4.033515  0  0  -0.231144  0  4.053363  0  0  -0.037825  -0.215165  0  4.020679  0
C  C32  1  0.75062097  0.35250608  0.47447897  1  0  0.243338  0  3.781517  0  0  0.220114  0  4.045545  0  0  0.231871  0  4.060736  0  0  0.09077  0.212123  0  4.035424  0
C  C33  1  0.24938790  0.64749288  0.52552222  1  0  0.243519  0  3.781307  0  0  0.22021  0  4.045481  0  0  0.231966  0  4.060669  0  0  0.090812  0.212217  0  4.035362  0
C  C34  1  0.74884683  0.40846480  0.57499373  1  0  0.229483  0  3.787347  0  0  0.219783  0  4.05838  0  0  0.224466  0  4.076343  0  0  0.080053  0.216193  0  4.046512  0
C  C35  1  0.25116209  0.59153305  0.42500791  1  0  0.229258  0  3.787456  0  0  0.219538  0  4.058591  0  0  0.22422  0  4.076555  0  0  0.079943  0.21596  0  4.046707  0
C  C36  1  0.74136430  0.55954691  0.53744009  1  0  -0.178775  0  3.755446  0  0  -0.219267  0  4.024187  0  0  -0.219074  0  4.042665  0  0  -0.096619  -0.219089  0  4.011601  0
C  C37  1  0.25863719  0.44045536  0.46255838  1  0  -0.178563  0  3.755319  0  0  -0.219022  0  4.024054  0  0  -0.218828  0  4.04253  0  0  -0.096547  -0.21884  0  4.011449  0
S  S38  1  0.72475320  0.85065361  0.34322449  1  0  1.369563  0  5.602202  0  0  1.266213  0  6.118918  0  0  1.315158  0  6.093397  0  0  0.549694  1.231885  0  6.136505  0
S  S39  1  0.27524986  0.14934644  0.65677385  1  0  1.369757  0  5.602207  0  0  1.266408  0  6.118918  0  0  1.315349  0  6.0934  0  0  0.549728  1.232078  0  6.136511  0
S  S40  1  0.75715640  0.39314642  0.20096877  1  0  1.312724  0  5.646072  0  0  1.207365  0  6.16972  0  0  1.254765  0  6.146857  0  0  0.518574  1.17517  0  6.184164  0
S  S41  1  0.24284081  0.60685366  0.79903181  1  0  1.312672  0  5.645976  0  0  1.20728  0  6.169663  0  0  1.254686  0  6.146792  0  0  0.518513  1.175088  0  6.184107  0
O  O42  1  0.91489934  0.90441099  0.27188205  1  0  -0.739587  0  2.033009  0  0  -0.684888  0  2.310062  0  0  -0.708168  0  2.294374  0  0  -0.382699  -0.668164  0  2.320784  0
O  O43  1  0.08510373  0.09558906  0.72811629  1  0  -0.739652  0  2.032993  0  0  -0.684958  0  2.310043  0  0  -0.708239  0  2.294354  0  0  -0.382723  -0.668234  0  2.320769  0
O  O44  1  0.57541966  0.90547414  0.24226852  1  0  -0.756739  0  2.030506  0  0  -0.693113  0  2.295508  0  0  -0.716906  0  2.280573  0  0  -0.374009  -0.675904  0  2.305767  0
O  O45  1  0.42458335  0.09452702  0.75772937  1  0  -0.756809  0  2.03046  0  0  -0.693178  0  2.295471  0  0  -0.716973  0  2.280537  0  0  -0.37402  -0.675966  0  2.305731  0
O  O46  1  0.66755353  0.87772614  0.46566296  1  0  -0.636598  0  1.98665  0  0  -0.580461  0  2.22382  0  0  -0.600429  0  2.208149  0  0  -0.30896  -0.566115  0  2.234659  0
O  O47  1  0.33244799  0.12227503  0.53433689  1  0  -0.636626  0  1.986724  0  0  -0.580485  0  2.223893  0  0  -0.600451  0  2.208218  0  0  -0.308938  -0.56614  0  2.234733  0
O  O48  1  0.65185723  0.50474723  0.09032109  1  0  -0.642163  0  1.985379  0  0  -0.59243  0  2.230523  0  0  -0.612557  0  2.215019  0  0  -0.3312  -0.57837  0  2.24013  0
O  O49  1  0.34813866  0.49525064  0.90967861  1  0  -0.64214  0  1.985316  0  0  -0.592405  0  2.230475  0  0  -0.612532  0  2.214969  0  0  -0.331185  -0.578348  0  2.240087  0
O  O50  1  0.96539160  0.37577521  0.15930587  1  0  -0.668431  0  1.978781  0  0  -0.608787  0  2.213534  0  0  -0.630264  0  2.197949  0  0  -0.328737  -0.593646  0  2.22355  0
O  O51  1  0.03460718  0.62422158  0.84069781  1  0  -0.668421  0  1.978762  0  0  -0.608734  0  2.213483  0  0  -0.630216  0  2.197899  0  0  -0.328706  -0.593594  0  2.223497  0
O  O52  1  0.66075109  0.24941815  0.26768892  1  0  -0.670538  0  1.967062  0  0  -0.611696  0  2.204271  0  0  -0.632161  0  2.188089  0  0  -0.324889  -0.59786  0  2.215832  0
O  O53  1  0.33924617  0.75058084  0.73231211  1  0  -0.67048  0  1.967039  0  0  -0.611649  0  2.204243  0  0  -0.632114  0  2.188064  0  0  -0.324858  -0.597812  0  2.215804  0
O  O54  1  0.75029398  0.20388460  0.51977427  1  0  -0.523685  0  2.169763  0  0  -0.468255  0  2.396413  0  0  -0.487335  0  2.386732  0  0  -0.335909  -0.454499  0  2.402367  0
O  O55  1  0.24971790  0.79611321  0.48022438  1  0  -0.523661  0  2.169815  0  0  -0.46824  0  2.396392  0  0  -0.487339  0  2.386763  0  0  -0.335921  -0.454485  0  2.40234  0
O  O56  1  0.74793723  0.30514489  0.70980555  1  0  -0.521965  0  2.175732  0  0  -0.470415  0  2.394723  0  0  -0.487986  0  2.387858  0  0  -0.343329  -0.457734  0  2.398794  0
O  O57  1  0.25207156  0.69485627  0.29019382  1  0  -0.521938  0  2.175805  0  0  -0.47038  0  2.394812  0  0  -0.487948  0  2.387949  0  0  -0.343272  -0.457701  0  2.398875  0
O  O58  1  0.06277115  0.18038884  0.03070948  1  0  -0.864925  0  1.816584  0  0  -0.808826  0  1.987841  0  0  -0.829473  0  1.957267  0  0  -0.61306  -0.793832  0  2.009563  0
O  O59  1  0.93722599  0.81961236  0.96929159  1  0  -0.864932  0  1.816535  0  0  -0.808814  0  1.987848  0  0  -0.829462  0  1.957275  0  0  -0.613041  -0.793824  0  2.009563  0
O  O60  1  0.44929632  0.21033620  0.08377431  1  0  -0.867579  0  1.860836  0  0  -0.806764  0  2.032915  0  0  -0.828365  0  2.00259  0  0  -0.578685  -0.79123  0  2.054163  0
O  O61  1  0.55070089  0.78966389  0.91622627  1  0  -0.867587  0  1.860838  0  0  -0.806768  0  2.032909  0  0  -0.828371  0  2.002582  0  0  -0.578691  -0.791232  0  2.054158  0
O  O62  1  0.27288453  0.91992063  0.01926571  1  0  -0.878764  0  1.857853  0  0  -0.816146  0  2.041214  0  0  -0.838017  0  2.009511  0  0  -0.603773  -0.800244  0  2.063257  0
O  O63  1  0.72711696  0.08008164  0.98073276  1  0  -0.878763  0  1.857841  0  0  -0.816126  0  2.041231  0  0  -0.837998  0  2.009529  0  0  -0.603784  -0.800226  0  2.063271  0
O  O64  1  0.13907682  0.12162196  0.33662917  1  0  -0.910907  0  1.801965  0  0  -0.857538  0  1.987104  0  0  -0.877761  0  1.955905  0  0  -0.658634  -0.842843  0  2.009131  0
O  O65  1  0.86092184  0.87837813  0.66337131  1  0  -0.910918  0  1.801968  0  0  -0.857551  0  1.98712  0  0  -0.877775  0  1.955919  0  0  -0.658627  -0.842856  0  2.009146  0
