# generated using pymatgen
data_KAgH10C7SO9
_symmetry_space_group_name_H-M   'P 1'
_cell_length_a   6.88686975
_cell_length_b   8.23458141
_cell_length_c   10.77377983
_cell_angle_alpha   79.61373891
_cell_angle_beta   85.73389202
_cell_angle_gamma   90.73705668
_symmetry_Int_Tables_number   1
_chemical_formula_structural   KAgH10C7SO9
_chemical_formula_sum   'K2 Ag2 H20 C14 S2 O18'
_cell_volume   599.09498856
_cell_formula_units_Z   2
loop_
 _symmetry_equiv_pos_site_id
 _symmetry_equiv_pos_as_xyz
  1  'x, y, z'
loop_
 _atom_site_type_symbol
 _atom_site_label
 _atom_site_symmetry_multiplicity
 _atom_site_fract_x
 _atom_site_fract_y
 _atom_site_fract_z
 _atom_site_occupancy
 _atom_site_hle17_bader_spin_density
 _atom_site_hle17_ddec_charge
 _atom_site_hle17_ddec_spin_density
 _atom_site_hle17_ddec_sum_bond_order
 _atom_site_hle17_magmom
 _atom_site_hse06_10hf_bader_spin_density
 _atom_site_hse06_10hf_ddec_charge
 _atom_site_hse06_10hf_ddec_spin_density
 _atom_site_hse06_10hf_ddec_sum_bond_order
 _atom_site_hse06_10hf_magmom
 _atom_site_hse06_bader_spin_density
 _atom_site_hse06_ddec_charge
 _atom_site_hse06_ddec_spin_density
 _atom_site_hse06_ddec_sum_bond_order
 _atom_site_hse06_magmom
 _atom_site_pbe_bader_spin_density
 _atom_site_pbe_cm5_charge
 _atom_site_pbe_ddec_charge
 _atom_site_pbe_ddec_spin_density
 _atom_site_pbe_ddec_sum_bond_order
 _atom_site_pbe_magmom
K  K0  1  0.72132121  0.47524641  0.06992293  1  0  0.924622  0  0.443293  0  0  0.887937  0  0.612367  0  0  0.900087  0  0.590865  0  0  0.759139  0.878459  0  0.628081  0
K  K1  1  0.27867681  0.52475435  0.93007706  1  0  0.924622  0  0.443295  0  0  0.887931  0  0.612378  0  0  0.900073  0  0.590882  0  0  0.759141  0.878451  0  0.628093  0
Ag  Ag2  1  0.99792829  0.02188191  0.36594525  1  0  0.616638  0  1.340578  0  0  0.495202  0  1.784463  0  0  0.529439  0  1.72736  0  0  0.422396  0.471119  0  1.824387  0
Ag  Ag3  1  0.00207117  0.97811888  0.63405281  1  0  0.616595  0  1.340619  0  0  0.495146  0  1.784518  0  0  0.529386  0  1.727412  0  0  0.422366  0.471064  0  1.824447  0
H  H4  1  0.35503232  0.19168262  0.12912951  1  0  0.422183  0  0.870858  0  0  0.395789  0  0.929958  0  0  0.404986  0  0.91638  0  0  0.293395  0.389231  0  0.939651  0
H  H5  1  0.64496859  0.80831693  0.87087049  1  0  0.422183  0  0.870884  0  0  0.39579  0  0.92996  0  0  0.404987  0  0.916381  0  0  0.293397  0.389223  0  0.939662  0
H  H6  1  0.29770508  0.28766583  0.23658343  1  0  0.417065  0  0.890917  0  0  0.389194  0  0.951155  0  0  0.399228  0  0.936257  0  0  0.28601  0.382059  0  0.96175  0
H  H7  1  0.70229439  0.71233496  0.76341555  1  0  0.417075  0  0.890905  0  0  0.389202  0  0.951145  0  0  0.399237  0  0.936246  0  0  0.286009  0.382066  0  0.961742  0
H  H8  1  0.82323209  0.84068603  0.09285422  1  0  0.42158  0  0.878044  0  0  0.392445  0  0.939565  0  0  0.402077  0  0.925371  0  0  0.294849  0.385585  0  0.949673  0
H  H9  1  0.17677028  0.15931353  0.90714570  1  0  0.421576  0  0.878048  0  0  0.392449  0  0.939556  0  0  0.402082  0  0.92536  0  0  0.294854  0.385588  0  0.949666  0
H  H10  1  0.04889217  0.84469015  0.10350124  1  0  0.41651  0  0.882056  0  0  0.387403  0  0.946225  0  0  0.39703  0  0.931939  0  0  0.293379  0.380519  0  0.95646  0
H  H11  1  0.95111019  0.15530941  0.89649868  1  0  0.416511  0  0.882041  0  0  0.38741  0  0.946211  0  0  0.397039  0  0.931921  0  0  0.293386  0.380527  0  0.956445  0
H  H12  1  0.96177133  0.17004679  0.09115276  1  0  0.419301  0  0.885142  0  0  0.391475  0  0.944414  0  0  0.402152  0  0.928865  0  0  0.286607  0.383833  0  0.955527  0
H  H13  1  0.03822959  0.82995400  0.90884615  1  0  0.419313  0  0.88513  0  0  0.391487  0  0.944402  0  0  0.402163  0  0.928857  0  0  0.28661  0.383846  0  0.955515  0
H  H14  1  0.72923923  0.48278452  0.73483248  1  0  0.112054  0  0.966356  0  0  0.123025  0  1.026963  0  0  0.126858  0  1.022917  0  0  0.121573  0.120256  0  1.029892  0
H  H15  1  0.27076022  0.51721502  0.26516760  1  0  0.112055  0  0.966346  0  0  0.123019  0  1.026948  0  0  0.126853  0  1.0229  0  0  0.121573  0.120251  0  1.029875  0
H  H16  1  0.64151410  0.22044689  0.36147464  1  0  0.122755  0  0.946431  0  0  0.134704  0  1.004087  0  0  0.138682  0  1.001837  0  0  0.112965  0.13181  0  1.006005  0
H  H17  1  0.35848534  0.77955140  0.63852653  1  0  0.122736  0  0.946442  0  0  0.134686  0  1.004094  0  0  0.138663  0  1.001847  0  0  0.112952  0.13179  0  1.006013  0
H  H18  1  0.55006928  0.06433164  0.58048851  1  0  0.099935  0  0.94238  0  0  0.112572  0  1.002441  0  0  0.115141  0  1.000183  0  0  0.107463  0.110651  0  1.004143  0
H  H19  1  0.44992721  0.93566540  0.41951298  1  0  0.099958  0  0.942394  0  0  0.112596  0  1.002448  0  0  0.115164  0  1.000189  0  0  0.107474  0.110673  0  1.004149  0
H  H20  1  0.83731650  0.63223537  0.31672960  1  0  0.392546  0  0.888386  0  0  0.363121  0  0.965601  0  0  0.37538  0  0.952431  0  0  0.307363  0.354425  0  0.974868  0
H  H21  1  0.16268436  0.36776169  0.68327165  1  0  0.392535  0  0.888347  0  0  0.363116  0  0.965561  0  0  0.375373  0  0.952397  0  0  0.307376  0.354422  0  0.974828  0
H  H22  1  0.76326898  0.09542175  0.16166415  1  0  0.424501  0  0.878847  0  0  0.396138  0  0.939482  0  0  0.405876  0  0.925098  0  0  0.291947  0.38923  0  0.949672  0
H  H23  1  0.23673049  0.90457902  0.83833577  1  0  0.424524  0  0.878815  0  0  0.39617  0  0.939434  0  0  0.40591  0  0.925047  0  0  0.291953  0.389261  0  0.949628  0
C  C24  1  0.63660426  0.26566575  0.67065202  1  0  -0.161369  0  3.784119  0  0  -0.138361  0  4.043451  0  0  -0.148945  0  4.064548  0  0  -0.034496  -0.131699  0  4.029456  0
C  C25  1  0.36339522  0.73433502  0.32934790  1  0  -0.161257  0  3.783983  0  0  -0.138385  0  4.043491  0  0  -0.14897  0  4.064592  0  0  -0.034518  -0.131722  0  4.029486  0
C  C26  1  0.71003506  0.42617864  0.65292756  1  0  -0.018371  0  3.726855  0  0  -0.059987  0  3.979175  0  0  -0.051478  0  3.993696  0  0  -0.071559  -0.065489  0  3.969471  0
C  C27  1  0.28996441  0.57382088  0.34707438  1  0  -0.018417  0  3.726926  0  0  -0.059978  0  3.979243  0  0  -0.051463  0  3.993766  0  0  -0.071569  -0.065483  0  3.969546  0
C  C28  1  0.75915774  0.51593132  0.53140273  1  0  -0.212487  0  3.753105  0  0  -0.190276  0  3.99267  0  0  -0.206096  0  4.016141  0  0  -0.035676  -0.180092  0  3.977111  0
C  C29  1  0.24084459  0.48406827  0.46859441  1  0  -0.21253  0  3.753139  0  0  -0.190307  0  3.992652  0  0  -0.206148  0  4.016157  0  0  -0.035643  -0.180125  0  3.977091  0
C  C30  1  0.73841274  0.43833139  0.42581088  1  0  0.367452  0  3.756084  0  0  0.352695  0  4.010573  0  0  0.369225  0  4.024759  0  0  0.101578  0.341606  0  4.000731  0
C  C31  1  0.26158668  0.56166691  0.57418937  1  0  0.367522  0  3.755957  0  0  0.352789  0  4.010404  0  0  0.369325  0  4.024591  0  0  0.101587  0.341701  0  4.000559  0
C  C32  1  0.66258575  0.27535087  0.44442321  1  0  -0.201096  0  3.716099  0  0  -0.219834  0  3.977211  0  0  -0.228609  0  3.995035  0  0  -0.102635  -0.214201  0  3.965408  0
C  C33  1  0.33741665  0.72464991  0.55557748  1  0  -0.201088  0  3.716087  0  0  -0.219807  0  3.977132  0  0  -0.228584  0  3.994956  0  0  -0.102618  -0.214174  0  3.965326  0
C  C34  1  0.61175867  0.18951083  0.56601399  1  0  -0.03918  0  3.784205  0  0  -0.069412  0  4.051645  0  0  -0.063367  0  4.067041  0  0  -0.082889  -0.073073  0  4.041169  0
C  C35  1  0.38824081  0.81048994  0.43398592  1  0  -0.039254  0  3.784218  0  0  -0.06946  0  4.051694  0  0  -0.063413  0  4.067084  0  0  -0.08289  -0.07312  0  4.041212  0
C  C36  1  0.82797093  0.69031779  0.51564555  1  0  0.65755  0  3.901123  0  0  0.598742  0  4.188573  0  0  0.634651  0  4.185605  0  0  0.208307  0.574352  0  4.189665  0
C  C37  1  0.17202996  0.30968176  0.48435352  1  0  0.657723  0  3.901126  0  0  0.598894  0  4.188593  0  0  0.634809  0  4.185621  0  0  0.208383  0.574503  0  4.189693  0
S  S38  1  0.58183001  0.15976240  0.82797102  1  0  1.326301  0  5.626211  0  0  1.227593  0  6.141107  0  0  1.27485  0  6.1185  0  0  0.519401  1.195089  0  6.155661  0
S  S39  1  0.41816946  0.84023838  0.17202797  1  0  1.326356  0  5.626213  0  0  1.227657  0  6.14113  0  0  1.274903  0  6.118532  0  0  0.519425  1.195158  0  6.15568  0
O  O40  1  0.36669424  0.30174575  0.15132281  1  0  -0.895992  0  1.77957  0  0  -0.856231  0  1.945564  0  0  -0.872997  0  1.916253  0  0  -0.69858  -0.844136  0  1.966168  0
O  O41  1  0.63330374  0.69825379  0.84867641  1  0  -0.896012  0  1.77958  0  0  -0.856245  0  1.945559  0  0  -0.873009  0  1.916237  0  0  -0.698574  -0.844137  0  1.966192  0
O  O42  1  0.94436796  0.78710783  0.06872191  1  0  -0.85595  0  1.813169  0  0  -0.804405  0  1.969866  0  0  -0.822408  0  1.940337  0  0  -0.613265  -0.791459  0  1.990677  0
O  O43  1  0.05563294  0.21289171  0.93127810  1  0  -0.855953  0  1.813169  0  0  -0.804412  0  1.969866  0  0  -0.822414  0  1.940331  0  0  -0.613276  -0.791464  0  1.99068  0
O  O44  1  0.87422194  0.16914590  0.16933578  1  0  -0.863239  0  1.85177  0  0  -0.802833  0  2.041472  0  0  -0.825421  0  2.008292  0  0  -0.646198  -0.786639  0  2.064751  0
O  O45  1  0.12577899  0.83085489  0.83066313  1  0  -0.863269  0  1.851734  0  0  -0.802861  0  2.041433  0  0  -0.825447  0  2.008248  0  0  -0.646207  -0.786668  0  2.064716  0
O  O46  1  0.78831091  0.51839599  0.30718940  1  0  -0.544863  0  2.137882  0  0  -0.499035  0  2.36551  0  0  -0.519539  0  2.355563  0  0  -0.405352  -0.484465  0  2.371978  0
O  O47  1  0.21169291  0.48160357  0.69281044  1  0  -0.54491  0  2.137809  0  0  -0.4991  0  2.36544  0  0  -0.519599  0  2.355492  0  0  -0.405402  -0.484532  0  2.371908  0
O  O48  1  0.88187011  0.76481495  0.40239513  1  0  -0.619483  0  2.155695  0  0  -0.536094  0  2.419581  0  0  -0.568577  0  2.410255  0  0  -0.311207  -0.513608  0  2.425409  0
O  O49  1  0.11813081  0.23518584  0.59760378  1  0  -0.619483  0  2.155695  0  0  -0.536091  0  2.419587  0  0  -0.568574  0  2.410261  0  0  -0.311191  -0.513606  0  2.425418  0
O  O50  1  0.82947611  0.75672541  0.61340168  1  0  -0.626277  0  2.168323  0  0  -0.541056  0  2.428954  0  0  -0.57306  0  2.41798  0  0  -0.309769  -0.518856  0  2.435941  0
O  O51  1  0.17052627  0.24327413  0.38660010  1  0  -0.626406  0  2.168434  0  0  -0.541178  0  2.429078  0  0  -0.573177  0  2.418096  0  0  -0.309865  -0.518978  0  2.43607  0
O  O52  1  0.73934110  0.04013615  0.85406915  1  0  -0.698247  0  1.996491  0  0  -0.634384  0  2.244843  0  0  -0.656715  0  2.228739  0  0  -0.332681  -0.618562  0  2.255591  0
O  O53  1  0.26065400  0.95986334  0.14593302  1  0  -0.698297  0  1.996564  0  0  -0.634392  0  2.244871  0  0  -0.656724  0  2.228791  0  0  -0.332669  -0.618569  0  2.255611  0
O  O54  1  0.57900538  0.28556519  0.90821654  1  0  -0.712419  0  1.982918  0  0  -0.666174  0  2.243933  0  0  -0.687179  0  2.230887  0  0  -0.43013  -0.651088  0  2.252177  0
O  O55  1  0.42099555  0.71443559  0.09178329  1  0  -0.712401  0  1.98293  0  0  -0.666153  0  2.243938  0  0  -0.687159  0  2.230898  0  0  -0.430107  -0.65107  0  2.252179  0
O  O56  1  0.39060877  0.07599663  0.83040373  1  0  -0.691976  0  2.02737  0  0  -0.629939  0  2.273825  0  0  -0.651263  0  2.257475  0  0  -0.33192  -0.614835  0  2.284718  0
O  O57  1  0.60939073  0.92400412  0.16959805  1  0  -0.692049  0  2.027361  0  0  -0.629986  0  2.273805  0  0  -0.651295  0  2.257449  0  0  -0.331975  -0.614896  0  2.284702  0
