# generated using pymatgen
data_Na3H7C(SO4)3
_symmetry_space_group_name_H-M   'P 1'
_cell_length_a   9.77832539
_cell_length_b   9.86165218
_cell_length_c   11.72080000
_cell_angle_alpha   90.00000000
_cell_angle_beta   93.19747744
_cell_angle_gamma   90.00000000
_symmetry_Int_Tables_number   1
_chemical_formula_structural   Na3H7C(SO4)3
_chemical_formula_sum   'Na12 H28 C4 S12 O48'
_cell_volume   1128.48240977
_cell_formula_units_Z   4
loop_
 _symmetry_equiv_pos_site_id
 _symmetry_equiv_pos_as_xyz
  1  'x, y, z'
loop_
 _atom_site_type_symbol
 _atom_site_label
 _atom_site_symmetry_multiplicity
 _atom_site_fract_x
 _atom_site_fract_y
 _atom_site_fract_z
 _atom_site_occupancy
 _atom_site_pbe_bader_charge
 _atom_site_pbe_bader_spin_density
 _atom_site_pbe_cm5_charge
 _atom_site_pbe_ddec_charge
 _atom_site_pbe_ddec_spin_density
 _atom_site_pbe_ddec_sum_bond_order
 _atom_site_pbe_magmom
Na  Na0  1  0.91025571  0.90908905  0.12025915  1  0.89808  0  0.721092  0.894299  0  0.490482  0
Na  Na1  1  0.58974387  0.40908967  0.87974053  1  0.898078  0  0.721102  0.894302  0  0.490487  0
Na  Na2  1  0.08974504  0.09091174  0.87974097  1  0.898062  0  0.721101  0.894304  0  0.49048  0
Na  Na3  1  0.41025483  0.59091011  0.12025950  1  0.898082  0  0.72109  0.8943  0  0.49048  0
Na  Na4  1  0.03943111  0.69922158  0.90573904  1  0.887681  0  0.716288  0.878808  0  0.535524  0
Na  Na5  1  0.46056875  0.19922321  0.09426227  1  0.887668  0  0.716282  0.878799  0  0.535553  0
Na  Na6  1  0.96056861  0.30077719  0.09426188  1  0.887686  0  0.716276  0.878804  0  0.535536  0
Na  Na7  1  0.53943200  0.80077657  0.90573870  1  0.887679  0  0.716286  0.87881  0  0.535527  0
Na  Na8  1  0.43568527  0.65416625  0.45970391  1  0.886767  0  0.710302  0.872456  0  0.548118  0
Na  Na9  1  0.06431562  0.15416585  0.54029746  1  0.886754  0  0.710295  0.872447  0  0.548124  0
Na  Na10  1  0.56431548  0.34583455  0.54029707  1  0.886761  0  0.710305  0.872454  0  0.548119  0
Na  Na11  1  0.93568513  0.84583494  0.45970352  1  0.886765  0  0.710297  0.872459  0  0.548113  0
H  H12  1  0.37292755  0.94310161  0.24617593  1  0.191465  0  0.142876  0.20181  0  0.959914  0
H  H13  1  0.12707026  0.44310324  0.75382444  1  0.191441  0  0.142885  0.201809  0  0.959935  0
H  H14  1  0.62706910  0.05689615  0.75382486  1  0.191431  0  0.142876  0.201802  0  0.959928  0
H  H15  1  0.87293049  0.55689654  0.24617653  1  0.191425  0  0.142874  0.201789  0  0.959933  0
H  H16  1  0.83371242  0.63055966  0.75654613  1  0.601683  0  0.301317  0.377462  0  0.958266  0
H  H17  1  0.66628716  0.13056027  0.24345355  1  0.601684  0  0.301317  0.377443  0  0.958289  0
H  H18  1  0.16628730  0.36944012  0.24345309  1  0.601687  0  0.301305  0.377442  0  0.958298  0
H  H19  1  0.33371256  0.86943951  0.75654652  1  0.601719  0  0.301324  0.377457  0  0.958269  0
H  H20  1  0.87017317  0.47741088  0.76660228  1  0.643369  0  0.302609  0.398536  0  0.930322  0
H  H21  1  0.62982642  0.97741127  0.23339740  1  0.643374  0  0.302613  0.398536  0  0.930314  0
H  H22  1  0.12982553  0.52258890  0.23339774  1  0.643375  0  0.302614  0.398549  0  0.930302  0
H  H23  1  0.37017433  0.02258749  0.76660272  1  0.643381  0  0.302625  0.398545  0  0.930306  0
H  H24  1  0.61983677  0.87820680  0.55798715  1  0.629443  0  0.298793  0.389224  0  0.935116  0
H  H25  1  0.88016384  0.37820742  0.44201343  1  0.629448  0  0.298788  0.389203  0  0.93513  0
H  H26  1  0.38016398  0.12179399  0.44201297  1  0.629453  0  0.298793  0.3892  0  0.935142  0
H  H27  1  0.11983588  0.62179236  0.55798664  1  0.629449  0  0.29879  0.389203  0  0.935131  0
H  H28  1  0.48417190  0.88912688  0.62156872  1  0.633724  0  0.287862  0.385543  0  0.946386  0
H  H29  1  0.01582898  0.38912749  0.37843093  1  0.63372  0  0.287867  0.385533  0  0.946395  0
H  H30  1  0.51582885  0.11087290  0.37843140  1  0.633724  0  0.287871  0.385539  0  0.946388  0
H  H31  1  0.98417176  0.61087330  0.62156919  1  0.633724  0  0.287858  0.38552  0  0.946418  0
H  H32  1  0.38414427  0.35750703  0.36488947  1  0.621377  0  0.305498  0.389968  0  0.936519  0
H  H33  1  0.11585559  0.85750743  0.63511099  1  0.621375  0  0.305567  0.390085  0  0.936378  0
H  H34  1  0.61585647  0.64249376  0.63511150  1  0.621366  0  0.305524  0.390002  0  0.936488  0
H  H35  1  0.88414414  0.14249235  0.36488908  1  0.621391  0  0.305563  0.390075  0  0.9364  0
H  H36  1  0.30388393  0.39289563  0.47182032  1  0.634532  0  0.301643  0.399592  0  0.928336  0
H  H37  1  0.19611696  0.89289501  0.52817933  1  0.634525  0  0.301609  0.39955  0  0.928396  0
H  H38  1  0.69611580  0.60710517  0.52817975  1  0.634535  0  0.301617  0.399558  0  0.928391  0
H  H39  1  0.80388379  0.10710477  0.47182079  1  0.634535  0  0.301607  0.399559  0  0.928389  0
C  C40  1  0.26499055  0.93794831  0.21486577  1  -0.385825  0  -0.079771  -0.539455  0  3.640451  0
C  C41  1  0.23500828  0.43794994  0.78513379  1  -0.385633  0  -0.079809  -0.53947  0  3.64048  0
C  C42  1  0.73500814  0.06205045  0.78513254  1  -0.385709  0  -0.079826  -0.539482  0  3.640423  0
C  C43  1  0.76499247  0.56205085  0.21486804  1  -0.385779  0  -0.079805  -0.539418  0  3.640417  0
S  S44  1  0.18911611  0.79272011  0.28803717  1  3.225334  0  0.523053  1.259071  0  6.14465  0
S  S45  1  0.31088375  0.29271971  0.71196244  1  3.225154  0  0.523057  1.259036  0  6.14464  0
S  S46  1  0.81088464  0.20728068  0.71196125  1  3.225131  0  0.523017  1.258947  0  6.144771  0
S  S47  1  0.68911597  0.70728007  0.28803848  1  3.225294  0  0.523009  1.259011  0  6.144809  0
S  S48  1  0.26472527  0.91437721  0.06008157  1  3.251395  0  0.507412  1.264036  0  6.210518  0
S  S49  1  0.23527357  0.41437681  0.93991884  1  3.251336  0  0.507318  1.263816  0  6.210767  0
S  S50  1  0.73527445  0.08562156  0.93991850  1  3.251334  0  0.507382  1.263932  0  6.210571  0
S  S51  1  0.76472513  0.58562398  0.06008118  1  3.25139  0  0.507392  1.264012  0  6.210562  0
S  S52  1  0.18512762  0.09804544  0.25657810  1  3.18562  0  0.522867  1.247129  0  6.155748  0
S  S53  1  0.31487326  0.59804685  0.74342326  1  3.185701  0  0.522891  1.247191  0  6.155758  0
S  S54  1  0.81487210  0.90195333  0.74342112  1  3.185639  0  0.522898  1.2472  0  6.155736  0
S  S55  1  0.68512749  0.40195293  0.25657771  1  3.185703  0  0.522839  1.247112  0  6.155886  0
O  O56  1  0.04106277  0.81607117  0.28298376  1  -1.336307  0  -0.426176  -0.680256  0  2.261847  0
O  O57  1  0.45893710  0.31607381  0.71701670  1  -1.336299  0  -0.426175  -0.680266  0  2.261879  0
O  O58  1  0.95893696  0.18392658  0.71701546  1  -1.336309  0  -0.426142  -0.680223  0  2.261934  0
O  O59  1  0.54106468  0.68392698  0.28298517  1  -1.336456  0  -0.426176  -0.680257  0  2.261973  0
O  O60  1  0.25235215  0.79590619  0.40422716  1  -1.34092  0  -0.377813  -0.629167  0  2.262622  0
O  O61  1  0.24764771  0.29590681  0.59577160  1  -1.34092  0  -0.377806  -0.629113  0  2.262537  0
O  O62  1  0.74764347  0.20409460  0.59577187  1  -1.340793  0  -0.3778  -0.629095  0  2.262536  0
O  O63  1  0.75235304  0.70409500  0.40422937  1  -1.340804  0  -0.377787  -0.629129  0  2.262588  0
O  O64  1  0.22771347  0.67229201  0.22414745  1  -1.348032  0  -0.369704  -0.632655  0  2.292024  0
O  O65  1  0.27228742  0.17229162  0.77585306  1  -1.348032  0  -0.369719  -0.632664  0  2.292007  0
O  O66  1  0.77228625  0.32770777  0.77585262  1  -1.34802  0  -0.369699  -0.632604  0  2.292021  0
O  O67  1  0.72771333  0.82770816  0.22414877  1  -1.348017  0  -0.369674  -0.632645  0  2.292036  0
O  O68  1  0.36778779  0.81019690  0.04318012  1  -1.349164  0  -0.424031  -0.666844  0  2.255962  0
O  O69  1  0.13221207  0.31019447  0.95682035  1  -1.349168  0  -0.423997  -0.666758  0  2.256016  0
O  O70  1  0.63221091  0.18980491  0.95682076  1  -1.349141  0  -0.424018  -0.666797  0  2.255936  0
O  O71  1  0.86778970  0.68980429  0.04317897  1  -1.349207  0  -0.424039  -0.666854  0  2.25597  0
O  O72  1  0.12358674  0.87567477  0.02371899  1  -1.370293  0  -0.447038  -0.71529  0  2.27264  0
O  O73  1  0.37641210  0.37567437  0.97628142  1  -1.370272  0  -0.44701  -0.715233  0  2.272675  0
O  O74  1  0.87641094  0.12432501  0.97628098  1  -1.37023  0  -0.447045  -0.715276  0  2.272623  0
O  O75  1  0.62358762  0.62432845  0.02371950  1  -1.37029  0  -0.447028  -0.715312  0  2.272735  0
O  O76  1  0.30082547  0.04585134  0.01247300  1  -1.351919  0  -0.409485  -0.670399  0  2.269113  0
O  O77  1  0.19917336  0.54585073  0.98752571  1  -1.351923  0  -0.409459  -0.670294  0  2.269121  0
O  O78  1  0.69917323  0.95414945  0.98752617  1  -1.351935  0  -0.409455  -0.670324  0  2.269155  0
O  O79  1  0.80082226  0.45414905  0.01247332  1  -1.351871  0  -0.409453  -0.670371  0  2.269156  0
O  O80  1  0.04807693  0.10180343  0.19898912  1  -1.351686  0  -0.403922  -0.667884  0  2.231175  0
O  O81  1  0.45192396  0.60180281  0.80101139  1  -1.351715  0  -0.403951  -0.667885  0  2.231188  0
O  O82  1  0.95192279  0.89819635  0.80101095  1  -1.351668  0  -0.403951  -0.667904  0  2.231135  0
O  O83  1  0.54807679  0.39819697  0.19898873  1  -1.351674  0  -0.403901  -0.667845  0  2.23122  0
O  O84  1  0.27429805  0.20755853  0.21908702  1  -1.344444  0  -0.371451  -0.646976  0  2.251957  0
O  O85  1  0.22570182  0.70755892  0.78091173  1  -1.344459  0  -0.371428  -0.646982  0  2.251984  0
O  O86  1  0.72570270  0.79243821  0.78090969  1  -1.344461  0  -0.371442  -0.646987  0  2.251972  0
O  O87  1  0.77429791  0.29244086  0.21908834  1  -1.344465  0  -0.371442  -0.64697  0  2.25199  0
O  O88  1  0.18532633  0.08876707  0.38105752  1  -1.303696  0  -0.372665  -0.623694  0  2.258594  0
O  O89  1  0.31467456  0.58876848  0.61894128  1  -1.303693  0  -0.372668  -0.623712  0  2.258524  0
O  O90  1  0.81467442  0.91123271  0.61894004  1  -1.303732  0  -0.372653  -0.623712  0  2.258594  0
O  O91  1  0.68532619  0.41123130  0.38105884  1  -1.303714  0  -0.372639  -0.623689  0  2.258617  0
O  O92  1  0.91243740  0.56827395  0.76140054  1  -1.255521  0  -0.623968  -0.804426  0  1.998936  0
O  O93  1  0.58756219  0.06827456  0.23860000  1  -1.255526  0  -0.623977  -0.804404  0  1.998971  0
O  O94  1  0.08756233  0.43172583  0.23860039  1  -1.255529  0  -0.623955  -0.804412  0  1.998953  0
O  O95  1  0.41243753  0.93172522  0.76139922  1  -1.255569  0  -0.623994  -0.80443  0  1.998967  0
O  O96  1  0.52550200  0.84501054  0.55625850  1  -1.285211  0  -0.662388  -0.831311  0  1.971736  0
O  O97  1  0.97449861  0.34500913  0.44374038  1  -1.285212  0  -0.662393  -0.831298  0  1.971765  0
O  O98  1  0.47449875  0.15499026  0.44374077  1  -1.285206  0  -0.662393  -0.831289  0  1.971769  0
O  O99  1  0.02550111  0.65498964  0.55625884  1  -1.285207  0  -0.662388  -0.831284  0  1.971772  0
O  O100  1  0.35962543  0.43344867  0.41327671  1  -1.267455  0  -0.673189  -0.84959  0  1.983029  0
O  O101  1  0.14037648  0.93344805  0.58672385  1  -1.267444  0  -0.673224  -0.849662  0  1.982986  0
O  O102  1  0.64037429  0.56655213  0.58672336  1  -1.267442  0  -0.673197  -0.849599  0  1.983048  0
O  O103  1  0.85962529  0.06655173  0.41327632  1  -1.267453  0  -0.673217  -0.84967  0  1.982994  0
