# generated using pymatgen
data_Al2H12C20O11
_symmetry_space_group_name_H-M   'P 1'
_cell_length_a   6.65383781
_cell_length_b   11.13565616
_cell_length_c   13.38578428
_cell_angle_alpha   69.78671016
_cell_angle_beta   72.13097017
_cell_angle_gamma   72.54414568
_symmetry_Int_Tables_number   1
_chemical_formula_structural   Al2H12C20O11
_chemical_formula_sum   'Al2 H12 C20 O11'
_cell_volume   864.69737237
_cell_formula_units_Z   1
loop_
 _symmetry_equiv_pos_site_id
 _symmetry_equiv_pos_as_xyz
  1  'x, y, z'
loop_
 _atom_site_type_symbol
 _atom_site_label
 _atom_site_symmetry_multiplicity
 _atom_site_fract_x
 _atom_site_fract_y
 _atom_site_fract_z
 _atom_site_occupancy
 _atom_site_pbe_bader_charge
 _atom_site_pbe_bader_spin_density
 _atom_site_pbe_cm5_charge
 _atom_site_pbe_ddec_charge
 _atom_site_pbe_ddec_spin_density
 _atom_site_pbe_ddec_sum_bond_order
 _atom_site_pbe_magmom
Al  Al0  1  0.49825653  0.50135287  0.50054115  1  2.504562  0  0.399999  1.640143  0  2.580498  0
Al  Al1  1  0.00033485  0.49603885  0.50199966  1  2.502128  0  0.398009  1.643117  0  2.584414  0
H  H2  1  0.27314198  0.60587406  0.36916767  1  0.635556  0  0.352318  0.429869  0  0.856487  0
H  H3  1  0.77551052  0.33606023  0.58222532  1  0.62028  0  0.355724  0.432465  0  0.851203  0
H  H4  1  0.14120702  0.12490575  0.46747283  1  0.081277  0  0.103952  0.110357  0  1.014158  0
H  H5  1  0.74318100  0.10710551  0.53631358  1  0.106172  0  0.110997  0.130238  0  1.001745  0
H  H6  1  0.26808572  0.89107286  0.46469757  1  0.126221  0  0.107982  0.117816  0  1.024751  0
H  H7  1  0.67701577  0.44709185  0.18910530  1  0.111066  0  0.11031  0.116568  0  0.997102  0
H  H8  1  0.20612922  0.60817037  0.16699709  1  0.074708  0  0.106643  0.110248  0  1.001824  0
H  H9  1  0.34808099  0.60975979  0.97149276  1  0.089613  0  0.104963  0.105735  0  0.999117  0
H  H10  1  0.32278929  0.55602254  0.80994870  1  0.100573  0  0.112901  0.121851  0  0.991653  0
H  H11  1  0.79191979  0.39700153  0.83152927  1  0.114358  0  0.110736  0.118295  0  0.990253  0
H  H12  1  0.65066801  0.39432958  0.02784574  1  0.073001  0  0.104273  0.105329  0  1.00286  0
H  H13  1  0.93093135  0.77442729  0.53400449  1  0.637097  0  0.31678  0.3616  0  0.954913  0
C  C14  1  0.85015389  0.52644265  0.30588352  1  1.545019  0  0.266877  0.644885  0  4.086972  0
C  C15  1  0.64365493  0.72874202  0.49751186  1  1.530998  0  0.267883  0.651914  0  4.078095  0
C  C16  1  0.14805768  0.47758143  0.69348391  1  1.556395  0  0.268604  0.640047  0  4.095456  0
C  C17  1  0.35763753  0.26912337  0.50548911  1  1.576512  0  0.268473  0.644611  0  4.08319  0
C  C18  1  0.57531927  0.86721235  0.49852141  1  -0.09093  0  -0.032209  -0.19516  0  3.978613  0
C  C19  1  0.43478271  0.12980005  0.50212741  1  0.064214  0  -0.011078  -0.016864  0  4.003542  0
C  C20  1  0.71124015  0.92868286  0.51934648  1  0.551965  0  0.097042  0.317914  0  4.057435  0
C  C21  1  0.29994590  0.06927923  0.48140441  1  0.005298  0  -0.096871  -0.127334  0  3.999526  0
C  C22  1  0.63868742  0.06025301  0.52042980  1  -0.100046  0  -0.095767  -0.217444  0  3.928395  0
C  C23  1  0.37111907  0.93973482  0.47942570  1  0.006321  0  -0.080059  -0.059105  0  3.9945  0
C  C24  1  0.82386607  0.48196329  0.14086400  1  -0.059133  0  -0.073094  -0.129418  0  3.917818  0
C  C25  1  0.12410102  0.57290290  0.12727091  1  -0.042392  0  -0.087081  -0.10084  0  4.001546  0
C  C26  1  0.20256004  0.57308385  0.01945433  1  -0.025567  0  -0.084912  -0.127159  0  3.987239  0
C  C27  1  0.09637074  0.52525724  0.96845276  1  0.017136  0  -0.003924  0.075539  0  3.993971  0
C  C28  1  0.17550550  0.52175892  0.85838123  1  0.015003  0  -0.071122  -0.130908  0  3.914556  0
C  C29  1  0.87431088  0.43126751  0.87189323  1  -0.02745  0  -0.082805  -0.095056  0  3.987296  0
C  C30  1  0.79638232  0.43081516  0.97981373  1  -0.067341  0  -0.086266  -0.132673  0  3.99725  0
C  C31  1  0.90301108  0.47841783  0.03080731  1  -0.028549  0  -0.002158  0.078796  0  3.998381  0
C  C32  1  0.93224180  0.52757443  0.18885650  1  -0.012797  0  -0.017157  -0.044656  0  3.992078  0
C  C33  1  0.06652708  0.47641022  0.81054686  1  -0.06927  0  -0.013047  -0.040439  0  3.99213  0
O  O34  1  0.65839373  0.50913854  0.35193920  1  -1.263666  0  -0.239594  -0.603315  0  2.343484  0
O  O35  1  0.83334589  0.66661195  0.51505720  1  -1.260079  0  -0.233324  -0.595987  0  2.384533  0
O  O36  1  0.02316673  0.45573019  0.64909254  1  -1.263997  0  -0.234663  -0.592446  0  2.349124  0
O  O37  1  0.48604345  0.32199840  0.52178033  1  -1.268916  0  -0.23868  -0.606222  0  2.348485  0
O  O38  1  0.33556867  0.50057062  0.64540768  1  -1.260878  0  -0.233303  -0.583287  0  2.339213  0
O  O39  1  0.16597428  0.32552870  0.49243047  1  -1.269669  0  -0.237512  -0.60393  0  2.348688  0
O  O40  1  0.97837138  0.54289309  0.35185456  1  -1.264164  0  -0.240162  -0.607272  0  2.340549  0
O  O41  1  0.51742992  0.67728932  0.47907667  1  -1.257779  0  -0.229015  -0.571171  0  2.341303  0
O  O42  1  0.24660364  0.56713480  0.44767222  1  -1.441284  0  -0.449442  -0.99059  0  2.187002  0
O  O43  1  0.75108831  0.43043955  0.55188911  1  -1.423451  0  -0.447499  -0.986558  0  2.191944  0
O  O44  1  0.90874398  0.86548235  0.53900985  1  -1.148115  0  -0.343726  -0.439504  0  2.293171  0
