# generated using pymatgen
data_CdH17C22N5O6
_symmetry_space_group_name_H-M   'P 1'
_cell_length_a   8.36882557
_cell_length_b   10.54273086
_cell_length_c   13.59512965
_cell_angle_alpha   76.31683815
_cell_angle_beta   72.74996382
_cell_angle_gamma   74.00341622
_symmetry_Int_Tables_number   1
_chemical_formula_structural   CdH17C22N5O6
_chemical_formula_sum   'Cd2 H34 C44 N10 O12'
_cell_volume   1085.41607716
_cell_formula_units_Z   2
loop_
 _symmetry_equiv_pos_site_id
 _symmetry_equiv_pos_as_xyz
  1  'x, y, z'
loop_
 _atom_site_type_symbol
 _atom_site_label
 _atom_site_symmetry_multiplicity
 _atom_site_fract_x
 _atom_site_fract_y
 _atom_site_fract_z
 _atom_site_occupancy
 _atom_site_hle17_bader_spin_density
 _atom_site_hle17_ddec_charge
 _atom_site_hle17_ddec_spin_density
 _atom_site_hle17_ddec_sum_bond_order
 _atom_site_hle17_magmom
 _atom_site_hse06_10hf_bader_spin_density
 _atom_site_hse06_10hf_ddec_charge
 _atom_site_hse06_10hf_ddec_spin_density
 _atom_site_hse06_10hf_ddec_sum_bond_order
 _atom_site_hse06_10hf_magmom
 _atom_site_hse06_bader_spin_density
 _atom_site_hse06_ddec_charge
 _atom_site_hse06_ddec_spin_density
 _atom_site_hse06_ddec_sum_bond_order
 _atom_site_hse06_magmom
 _atom_site_pbe_bader_spin_density
 _atom_site_pbe_cm5_charge
 _atom_site_pbe_ddec_charge
 _atom_site_pbe_ddec_spin_density
 _atom_site_pbe_ddec_sum_bond_order
 _atom_site_pbe_magmom
Cd  Cd0  1  0.31460315  0.17914044  0.56608724  1  0  1.13245  0  1.706174  0  0  0.945351  0  2.156805  0  0  1.000353  0  2.105155  0  0  0.781859  0.902275  0  2.195052  0
Cd  Cd1  1  0.68539774  0.82086039  0.43391387  1  0  1.132438  0  1.706136  0  0  0.945321  0  2.156779  0  0  1.000331  0  2.105117  0  0  0.781838  0.902245  0  2.195025  0
H  H2  1  0.20197705  0.83246824  0.82180361  1  0  0.130906  0  0.942922  0  0  0.134204  0  1.01113  0  0  0.13841  0  1.007737  0  0  0.116917  0.131181  0  1.013508  0
H  H3  1  0.79802383  0.16753260  0.17819678  1  0  0.130881  0  0.942894  0  0  0.134197  0  1.011099  0  0  0.138402  0  1.007707  0  0  0.116926  0.131174  0  1.013479  0
H  H4  1  0.35987072  0.30090543  0.99664056  1  0  0.095723  0  0.985552  0  0  0.104111  0  1.053886  0  0  0.107148  0  1.051941  0  0  0.094975  0.101825  0  1.055526  0
H  H5  1  0.64013069  0.69909342  0.00335788  1  0  0.09572  0  0.985535  0  0  0.104103  0  1.053869  0  0  0.107141  0  1.051922  0  0  0.094974  0.101816  0  1.05551  0
H  H6  1  0.36815912  0.64016935  0.55074103  1  0  0.122953  0  0.94799  0  0  0.12666  0  1.017864  0  0  0.13099  0  1.013923  0  0  0.113605  0.123527  0  1.020768  0
H  H7  1  0.63183800  0.35983150  0.44926005  1  0  0.122986  0  0.94795  0  0  0.126665  0  1.017856  0  0  0.130995  0  1.013915  0  0  0.1136  0.123534  0  1.020756  0
H  H8  1  0.60386594  0.23912887  0.69052563  1  0  0.123536  0  0.995621  0  0  0.130972  0  1.059533  0  0  0.13433  0  1.057531  0  0  0.118259  0.1284  0  1.061286  0
H  H9  1  0.39613325  0.76086899  0.30947341  1  0  0.123551  0  0.995575  0  0  0.130964  0  1.059509  0  0  0.134322  0  1.057507  0  0  0.118257  0.128393  0  1.061261  0
H  H10  1  0.89066359  0.09687726  0.91531558  1  0  0.086529  0  0.965591  0  0  0.097646  0  1.029712  0  0  0.100137  0  1.028658  0  0  0.099133  0.095839  0  1.03059  0
H  H11  1  0.10933910  0.90312157  0.08468409  1  0  0.086534  0  0.965592  0  0  0.097652  0  1.029708  0  0  0.100142  0  1.028654  0  0  0.099162  0.095845  0  1.030585  0
H  H12  1  0.21025411  0.41159434  0.85575667  1  0  0.124955  0  0.947064  0  0  0.123898  0  1.02658  0  0  0.128894  0  1.020993  0  0  0.113632  0.120335  0  1.030421  0
H  H13  1  0.78974523  0.58840751  0.14424308  1  0  0.124909  0  0.947088  0  0  0.123847  0  1.026615  0  0  0.128844  0  1.021025  0  0  0.113619  0.120285  0  1.030453  0
H  H14  1  0.90998198  0.17167805  0.54056498  1  0  0.104021  0  0.948703  0  0  0.114557  0  1.00631  0  0  0.116859  0  1.005715  0  0  0.115632  0.112839  0  1.006866  0
H  H15  1  0.09001930  0.82831679  0.45943422  1  0  0.104037  0  0.948687  0  0  0.114569  0  1.006297  0  0  0.11687  0  1.005703  0  0  0.115637  0.112852  0  1.006853  0
H  H16  1  0.53600656  0.38186439  0.83836361  1  0  0.085133  0  0.935803  0  0  0.102233  0  0.996879  0  0  0.102542  0  0.99716  0  0  0.112419  0.101873  0  0.996763  0
H  H17  1  0.46399487  0.61813445  0.16163630  1  0  0.085111  0  0.935755  0  0  0.102215  0  0.996834  0  0  0.102525  0  0.997118  0  0  0.112414  0.101856  0  0.996718  0
H  H18  1  0.71150132  0.39757331  0.87802870  1  0  0.081673  0  0.941027  0  0  0.093752  0  1.00915  0  0  0.094709  0  1.008228  0  0  0.110425  0.092899  0  1.010072  0
H  H19  1  0.28849883  0.60242554  0.12196924  1  0  0.081671  0  0.941053  0  0  0.093759  0  1.009166  0  0  0.094716  0  1.008244  0  0  0.110418  0.092907  0  1.010087  0
H  H20  1  0.54567245  0.93175998  0.18774286  1  0  0.102633  0  0.95956  0  0  0.112773  0  1.024599  0  0  0.115761  0  1.022738  0  0  0.101703  0.110503  0  1.026309  0
H  H21  1  0.45432717  0.06824086  0.81225702  1  0  0.102652  0  0.959587  0  0  0.112819  0  1.024592  0  0  0.115807  0  1.022731  0  0  0.101723  0.110549  0  1.026303  0
H  H22  1  0.83469490  0.91896231  0.06953430  1  0  0.091862  0  0.958742  0  0  0.104867  0  1.015208  0  0  0.107277  0  1.014141  0  0  0.100815  0.103098  0  1.016086  0
H  H23  1  0.16530320  0.08103954  0.93046642  1  0  0.091894  0  0.958791  0  0  0.104889  0  1.015264  0  0  0.107299  0  1.014195  0  0  0.100838  0.10312  0  1.016143  0
H  H24  1  0.01610415  0.30170676  0.78022969  1  0  0.09814  0  0.951575  0  0  0.102891  0  1.024302  0  0  0.105922  0  1.020332  0  0  0.131111  0.100713  0  1.02684  0
H  H25  1  0.98389601  0.69829209  0.21976972  1  0  0.098097  0  0.951584  0  0  0.102882  0  1.024271  0  0  0.105908  0  1.020305  0  0  0.13111  0.100703  0  1.026813  0
H  H26  1  0.15638909  0.18176274  0.12833083  1  0  0.087316  0  0.936038  0  0  0.098481  0  1.003975  0  0  0.099559  0  1.003018  0  0  0.109071  0.097583  0  1.004861  0
H  H27  1  0.84361055  0.81823810  0.87167052  1  0  0.087315  0  0.936036  0  0  0.098478  0  1.003986  0  0  0.099553  0  1.00303  0  0  0.109069  0.097578  0  1.004872  0
H  H28  1  0.22904992  0.02684782  0.20508968  1  0  0.083234  0  0.937474  0  0  0.094758  0  1.006245  0  0  0.095346  0  1.006786  0  0  0.111864  0.094433  0  1.005681  0
H  H29  1  0.77095348  0.97315301  0.79491170  1  0  0.083189  0  0.93749  0  0  0.094724  0  1.006241  0  0  0.095313  0  1.006778  0  0  0.111854  0.094398  0  1.005677  0
H  H30  1  0.15255246  0.40212740  0.19127633  1  0  0.113666  0  0.988329  0  0  0.118431  0  1.059941  0  0  0.121327  0  1.058153  0  0  0.113276  0.116249  0  1.061429  0
H  H31  1  0.84744745  0.59787244  0.80872515  1  0  0.113663  0  0.988316  0  0  0.118431  0  1.059925  0  0  0.121327  0  1.058138  0  0  0.113267  0.116246  0  1.061415  0
H  H32  1  0.31411217  0.02626859  0.37187161  1  0  0.104947  0  0.964767  0  0  0.113038  0  1.033376  0  0  0.115666  0  1.029948  0  0  0.133603  0.111166  0  1.035667  0
H  H33  1  0.68588620  0.97373226  0.62812924  1  0  0.104905  0  0.964806  0  0  0.113011  0  1.033392  0  0  0.11564  0  1.029962  0  0  0.133605  0.111139  0  1.03568  0
H  H34  1  0.18504900  0.43970356  0.38111926  1  0  0.118034  0  0.941096  0  0  0.128383  0  0.996994  0  0  0.131121  0  0.995722  0  0  0.121651  0.12645  0  0.997798  0
H  H35  1  0.81495245  0.56029528  0.61888212  1  0  0.11801  0  0.941112  0  0  0.128358  0  0.997009  0  0  0.131095  0  0.995737  0  0  0.121648  0.126418  0  0.997823  0
C  C36  1  0.22590634  0.74387893  0.78700936  1  0  -0.077562  0  3.654773  0  0  -0.115475  0  3.906846  0  0  -0.109693  0  3.921648  0  0  -0.064373  -0.118599  0  3.896687  0
C  C37  1  0.77409301  0.25612291  0.21299112  1  0  -0.077446  0  3.654726  0  0  -0.115394  0  3.906847  0  0  -0.109611  0  3.921652  0  0  -0.064358  -0.118518  0  3.89669  0
C  C38  1  0.46481602  0.21767196  0.01311558  1  0  -0.167529  0  3.726475  0  0  -0.19303  0  3.964642  0  0  -0.196875  0  3.987146  0  0  -0.096554  -0.190152  0  3.949304  0
C  C39  1  0.53518388  0.78232788  0.98688516  1  0  -0.167521  0  3.726501  0  0  -0.193022  0  3.964644  0  0  -0.196865  0  3.987148  0  0  -0.096536  -0.190145  0  3.949304  0
C  C40  1  0.32056207  0.63537704  0.63491911  1  0  -0.016108  0  3.61144  0  0  -0.057844  0  3.857831  0  0  -0.051959  0  3.873646  0  0  -0.051288  -0.061562  0  3.847763  0
C  C41  1  0.67943630  0.36462381  0.36508174  1  0  -0.016167  0  3.61143  0  0  -0.05788  0  3.857838  0  0  -0.051994  0  3.873651  0  0  -0.051309  -0.061594  0  3.847764  0
C  C42  1  0.62894202  0.21227681  0.94689000  1  0  0.06324  0  3.767923  0  0  0.085437  0  4.00804  0  0  0.083891  0  4.033924  0  0  -0.020216  0.08638  0  3.990372  0
C  C43  1  0.37105689  0.78772204  0.05310964  1  0  0.063238  0  3.767909  0  0  0.085429  0  4.008031  0  0  0.083885  0  4.033915  0  0  -0.02023  0.086373  0  3.99036  0
C  C44  1  0.43269534  0.11748755  0.09974105  1  0  0.07162  0  3.770177  0  0  0.094175  0  4.006077  0  0  0.092912  0  4.031745  0  0  -0.013662  0.095089  0  3.988565  0
C  C45  1  0.56730385  0.88251030  0.90025872  1  0  0.071633  0  3.770252  0  0  0.094213  0  4.006126  0  0  0.092947  0  4.031794  0  0  -0.013676  0.095127  0  3.988608  0
C  C46  1  0.73535926  0.23990545  0.68595634  1  0  -0.07319  0  3.656542  0  0  -0.111161  0  3.912379  0  0  -0.110246  0  3.930796  0  0  -0.004174  -0.112018  0  3.900396  0
C  C47  1  0.26464340  0.76009339  0.31404113  1  0  -0.073203  0  3.656437  0  0  -0.111145  0  3.912264  0  0  -0.110229  0  3.93068  0  0  -0.004183  -0.112002  0  3.90028  0
C  C48  1  0.19816142  0.62192444  0.84819978  1  0  0.053475  0  3.735611  0  0  0.047225  0  4.000908  0  0  0.041249  0  4.023022  0  0  0.07333  0.050799  0  3.985791  0
C  C49  1  0.80183793  0.37807741  0.15180070  1  0  0.05334  0  3.735767  0  0  0.04708  0  4.0011  0  0  0.041104  0  4.023214  0  0  0.073262  0.050655  0  3.985981  0
C  C50  1  0.76239952  0.10380098  0.96740164  1  0  -0.118422  0  3.756215  0  0  -0.145291  0  4.010493  0  0  -0.147887  0  4.033058  0  0  -0.09625  -0.143441  0  3.99519  0
C  C51  1  0.23760134  0.89619986  0.03259727  1  0  -0.118423  0  3.756211  0  0  -0.14529  0  4.010484  0  0  -0.147885  0  4.033047  0  0  -0.096304  -0.143441  0  3.995181  0
C  C52  1  0.29179770  0.74915483  0.67913727  1  0  -0.049585  0  3.714008  0  0  -0.021215  0  3.946664  0  0  -0.032223  0  3.969384  0  0  -0.008627  -0.014396  0  3.931923  0
C  C53  1  0.70820165  0.25084702  0.32086321  1  0  -0.049658  0  3.714014  0  0  -0.021298  0  3.946698  0  0  -0.032308  0  3.969418  0  0  -0.00864  -0.014476  0  3.931957  0
C  C54  1  0.23362617  0.50549465  0.80614051  1  0  -0.10563  0  3.703033  0  0  -0.148219  0  3.971259  0  0  -0.143267  0  3.986133  0  0  -0.072938  -0.150537  0  3.960708  0
C  C55  1  0.76637318  0.49450719  0.19385997  1  0  -0.105521  0  3.703218  0  0  -0.148096  0  3.971423  0  0  -0.143142  0  3.986296  0  0  -0.072912  -0.150409  0  3.960864  0
C  C56  1  0.29193067  0.51376028  0.69785107  1  0  -0.042312  0  3.73017  0  0  -0.014829  0  3.96391  0  0  -0.025319  0  3.987062  0  0  -0.006842  -0.008407  0  3.948667  0
C  C57  1  0.70806895  0.48624056  0.30214881  1  0  -0.042212  0  3.730205  0  0  -0.014729  0  3.963921  0  0  -0.025219  0  3.987073  0  0  -0.006777  -0.008324  0  3.948711  0
C  C58  1  0.88768896  0.20736693  0.61310763  1  0  0.00328  0  3.760475  0  0  -0.028411  0  4.024766  0  0  -0.026423  0  4.044514  0  0  -0.005244  -0.029953  0  4.011483  0
C  C59  1  0.11231023  0.79263092  0.38689214  1  0  0.003285  0  3.760428  0  0  -0.028408  0  4.024724  0  0  -0.026421  0  4.044473  0  0  -0.005214  -0.02995  0  4.011439  0
C  C60  1  0.31891878  0.39354079  0.64865363  1  0  0.614936  0  3.961997  0  0  0.567095  0  4.249737  0  0  0.600583  0  4.245976  0  0  0.190834  0.544397  0  4.251099  0
C  C61  1  0.68107960  0.60646005  0.35134722  1  0  0.614876  0  3.96198  0  0  0.56704  0  4.249716  0  0  0.600526  0  4.245957  0  0  0.190829  0.544342  0  4.25107  0
C  C62  1  0.65815278  0.32630314  0.85687604  1  0  -0.034443  0  3.653347  0  0  -0.101193  0  3.89977  0  0  -0.096276  0  3.910133  0  0  -0.045483  -0.104313  0  3.892809  0
C  C63  1  0.34184738  0.67369571  0.14312263  1  0  -0.034421  0  3.653289  0  0  -0.101178  0  3.89971  0  0  -0.096274  0  3.910094  0  0  -0.045436  -0.104302  0  3.892749  0
C  C64  1  0.56724244  0.01084904  0.12051262  1  0  -0.101149  0  3.716508  0  0  -0.125924  0  3.965779  0  0  -0.127821  0  3.986815  0  0  -0.087352  -0.1246  0  3.951538  0
C  C65  1  0.43275968  0.98915180  0.87948606  1  0  -0.101227  0  3.716541  0  0  -0.126041  0  3.965815  0  0  -0.127938  0  3.986852  0  0  -0.087389  -0.124718  0  3.951575  0
C  C66  1  0.33086585  0.87789194  0.61118482  1  0  0.649272  0  3.93545  0  0  0.595966  0  4.229768  0  0  0.631411  0  4.222953  0  0  0.203435  0.571741  0  4.233415  0
C  C67  1  0.66913377  0.12210891  0.38881506  1  0  0.649264  0  3.935494  0  0  0.595977  0  4.229778  0  0  0.631424  0  4.222961  0  0  0.203438  0.571751  0  4.233427  0
C  C68  1  0.73135594  0.00394869  0.05402483  1  0  -0.055964  0  3.762883  0  0  -0.065015  0  4.010572  0  0  -0.067248  0  4.032429  0  0  -0.088945  -0.063273  0  3.995558  0
C  C69  1  0.26864242  0.99605216  0.94597455  1  0  -0.055955  0  3.762899  0  0  -0.064996  0  4.010596  0  0  -0.067227  0  4.032448  0  0  -0.088938  -0.063255  0  3.995584  0
C  C70  1  0.94826119  0.27559433  0.73383974  1  0  0.147055  0  3.680466  0  0  0.088275  0  3.946538  0  0  0.101018  0  3.960226  0  0  0.133132  0.080068  0  3.936462  0
C  C71  1  0.05173772  0.72440452  0.26615917  1  0  0.147126  0  3.68037  0  0  0.088309  0  3.946453  0  0  0.101058  0  3.96014  0  0  0.133175  0.0801  0  3.936378  0
C  C72  1  0.25431613  0.12687143  0.17094147  1  0  -0.04372  0  3.649202  0  0  -0.109816  0  3.897546  0  0  -0.105079  0  3.907393  0  0  -0.047664  -0.113002  0  3.890986  0
C  C73  1  0.74568350  0.87312941  0.82905915  1  0  -0.043721  0  3.649201  0  0  -0.109821  0  3.897541  0  0  -0.105079  0  3.907379  0  0  -0.047657  -0.113008  0  3.890979  0
C  C74  1  0.19070824  0.33175301  0.25683204  1  0  -0.081107  0  3.688229  0  0  -0.122134  0  3.950118  0  0  -0.122209  0  3.971284  0  0  -0.010835  -0.122123  0  3.936073  0
C  C75  1  0.80929138  0.66824783  0.74316857  1  0  -0.081172  0  3.688274  0  0  -0.122202  0  3.950177  0  0  -0.122279  0  3.971345  0  0  -0.010847  -0.122191  0  3.93613  0
C  C76  1  0.27419329  0.13367060  0.34920857  1  0  0.159476  0  3.665039  0  0  0.097723  0  3.926967  0  0  0.112106  0  3.939971  0  0  0.138247  0.088418  0  3.917484  0
C  C77  1  0.72580759  0.86633023  0.65079182  1  0  0.159538  0  3.66501  0  0  0.097782  0  3.926937  0  0  0.112165  0  3.939942  0  0  0.138263  0.088479  0  3.917452  0
C  C78  1  0.20763859  0.34869205  0.35020446  1  0  0.004664  0  3.743928  0  0  -0.0282  0  4.007152  0  0  -0.025726  0  4.027737  0  0  -0.004969  -0.029845  0  3.992796  0
C  C79  1  0.79236258  0.65130779  0.64979678  1  0  0.004715  0  3.743958  0  0  -0.028143  0  4.007174  0  0  -0.025668  0  4.027759  0  0  -0.004963  -0.029785  0  3.992822  0
N  N80  1  0.12857025  0.61552787  0.96063134  1  0  0.506578  0  3.897743  0  0  0.531126  0  4.200569  0  0  0.552962  0  4.208701  0  0  0.054795  0.516474  0  4.195126  0
N  N81  1  0.87143090  0.38447197  0.03936917  1  0  0.506574  0  3.897651  0  0  0.531129  0  4.20047  0  0  0.552966  0  4.2086  0  0  0.054789  0.516477  0  4.195027  0
N  N82  1  0.01884677  0.22991563  0.64401381  1  0  -0.383272  0  3.259057  0  0  -0.312046  0  3.537487  0  0  -0.331813  0  3.555126  0  0  -0.35596  -0.298266  0  3.52492  0
N  N83  1  0.98115435  0.77008421  0.35598377  1  0  -0.383281  0  3.259091  0  0  -0.312048  0  3.537534  0  0  -0.331816  0  3.555173  0  0  -0.355972  -0.298268  0  3.524966  0
N  N84  1  0.77613990  0.28404369  0.76162867  1  0  -0.062527  0  3.590953  0  0  0.032015  0  3.808526  0  0  0.017219  0  3.835238  0  0  -0.24552  0.041845  0  3.790383  0
N  N85  1  0.22385901  0.71595517  0.23837023  1  0  -0.062585  0  3.590847  0  0  0.031961  0  3.808444  0  0  0.017165  0  3.835156  0  0  -0.245595  0.041792  0  3.790299  0
N  N86  1  0.23237165  0.19500059  0.25794142  1  0  -0.055946  0  3.569426  0  0  0.040552  0  3.783304  0  0  0.025323  0  3.809922  0  0  -0.240752  0.050618  0  3.765316  0
N  N87  1  0.76762923  0.80500025  0.74205896  1  0  -0.05584  0  3.569326  0  0  0.04065  0  3.783215  0  0  0.02542  0  3.809833  0  0  -0.24072  0.050716  0  3.765225  0
N  N88  1  0.26007759  0.22419125  0.40663853  1  0  -0.393838  0  3.291433  0  0  -0.313669  0  3.572433  0  0  -0.336201  0  3.590541  0  0  -0.362081  -0.297687  0  3.559187  0
N  N89  1  0.73992358  0.77580859  0.59336271  1  0  -0.393885  0  3.291451  0  0  -0.31372  0  3.572452  0  0  -0.336253  0  3.590561  0  0  -0.362091  -0.297739  0  3.559204  0
O  O90  1  0.33154874  0.27848715  0.70759346  1  0  -0.64794  0  1.934915  0  0  -0.586119  0  2.16683  0  0  -0.613673  0  2.157134  0  0  -0.334617  -0.565373  0  2.173616  0
O  O91  1  0.66845063  0.72151469  0.29240849  1  0  -0.647889  0  1.934863  0  0  -0.586065  0  2.166766  0  0  -0.613619  0  2.15707  0  0  -0.334575  -0.565322  0  2.173563  0
O  O92  1  0.03470528  0.71815351  0.99382096  1  0  -0.363966  0  1.772158  0  0  -0.342077  0  1.989147  0  0  -0.353762  0  1.98584  0  0  -0.116731  -0.334354  0  1.991657  0
O  O93  1  0.96529462  0.28184633  0.00617906  1  0  -0.363969  0  1.77213  0  0  -0.34207  0  1.989112  0  0  -0.353753  0  1.985805  0  0  -0.116724  -0.334346  0  1.991623  0
O  O94  1  0.38098481  0.88276405  0.51270487  1  0  -0.664181  0  1.99376  0  0  -0.60398  0  2.248841  0  0  -0.629996  0  2.234888  0  0  -0.334859  -0.584837  0  2.257821  0
O  O95  1  0.61901482  0.11723679  0.48729574  1  0  -0.664169  0  1.993721  0  0  -0.603973  0  2.248783  0  0  -0.629989  0  2.234829  0  0  -0.334872  -0.584829  0  2.257763  0
O  O96  1  0.32443042  0.41182012  0.55230580  1  0  -0.609972  0  1.934452  0  0  -0.554429  0  2.1661  0  0  -0.581691  0  2.158258  0  0  -0.320974  -0.534426  0  2.170263  0
O  O97  1  0.67556768  0.58818173  0.44769565  1  0  -0.609964  0  1.934439  0  0  -0.554408  0  2.166064  0  0  -0.581671  0  2.158223  0  0  -0.320988  -0.534402  0  2.170224  0
O  O98  1  0.16683760  0.50659759  0.01852995  1  0  -0.389493  0  1.788717  0  0  -0.367217  0  2.007989  0  0  -0.38075  0  2.004678  0  0  -0.13463  -0.35826  0  2.01064  0
O  O99  1  0.83316605  0.49340224  0.98146936  1  0  -0.389488  0  1.788656  0  0  -0.367203  0  2.007897  0  0  -0.380739  0  2.004586  0  0  -0.134628  -0.358245  0  2.010546  0
O  O100  1  0.30915779  0.97315298  0.65983621  1  0  -0.623445  0  2.02989  0  0  -0.559312  0  2.285242  0  0  -0.588901  0  2.275371  0  0  -0.322188  -0.537599  0  2.291995  0
O  O101  1  0.69084279  0.02684887  0.34016257  1  0  -0.623444  0  2.029974  0  0  -0.559306  0  2.285306  0  0  -0.588895  0  2.275435  0  0  -0.322181  -0.537593  0  2.29206  0
