# generated using pymatgen
data_Zn2H18C36BrN8Cl
_symmetry_space_group_name_H-M   'P 1'
_cell_length_a   20.66061831
_cell_length_b   20.55871565
_cell_length_c   19.98974146
_cell_angle_alpha   69.84010402
_cell_angle_beta   74.57872888
_cell_angle_gamma   111.68507982
_symmetry_Int_Tables_number   1
_chemical_formula_structural   Zn2H18C36BrN8Cl
_chemical_formula_sum   'Zn4 H36 C72 Br2 N16 Cl2'
_cell_volume   6611.08930098
_cell_formula_units_Z   2
loop_
 _symmetry_equiv_pos_site_id
 _symmetry_equiv_pos_as_xyz
  1  'x, y, z'
loop_
 _atom_site_type_symbol
 _atom_site_label
 _atom_site_symmetry_multiplicity
 _atom_site_fract_x
 _atom_site_fract_y
 _atom_site_fract_z
 _atom_site_occupancy
 _atom_site_pbe_bader_charge
 _atom_site_pbe_bader_spin_density
 _atom_site_pbe_cm5_charge
 _atom_site_pbe_ddec_charge
 _atom_site_pbe_ddec_spin_density
 _atom_site_pbe_ddec_sum_bond_order
 _atom_site_pbe_magmom
Zn  Zn0  1  0.11278419  0.60053708  0.00648430  1  1.195003  0  0.749486  0.64932  0  2.323369  0
Zn  Zn1  1  0.89118723  0.40196862  0.01754331  1  1.192785  0  0.74879  0.662789  0  2.271423  0
Zn  Zn2  1  0.99020023  0.59882027  0.92088026  1  1.197579  0  0.751442  0.681595  0  2.207061  0
Zn  Zn3  1  0.00889984  0.39156648  0.10984903  1  1.193988  0  0.752845  0.645297  0  2.363573  0
H  H4  1  0.13508489  0.77620910  0.02541175  1  0.104756  0  0.123078  0.113144  0  0.980724  0
H  H5  1  0.47293633  0.09497129  0.40380859  1  0.080478  0  0.109373  0.114437  0  0.969574  0
H  H6  1  0.47298813  0.41839416  0.85939151  1  0.067815  0  0.09831  0.085788  0  0.995841  0
H  H7  1  0.56612640  0.57007940  0.98995876  1  0.056516  0  0.099054  0.086127  0  0.990516  0
H  H8  1  0.61962654  0.56006519  0.78774542  1  0.076058  0  0.099191  0.087242  0  0.99282  0
H  H9  1  0.41800752  0.42726346  0.06241425  1  0.069715  0  0.098875  0.086001  0  0.9903  0
H  H10  1  0.49366538  0.35675566  0.99757744  1  0.043185  0  0.098016  0.084789  0  0.99584  0
H  H11  1  0.54495814  0.63115744  0.85127068  1  0.078121  0  0.097542  0.084279  0  0.994557  0
H  H12  1  0.83945231  0.86834688  0.13468695  1  0.105236  0  0.109817  0.11581  0  0.969428  0
H  H13  1  0.09827250  0.10344106  0.93525612  1  0.108411  0  0.110554  0.116102  0  0.966383  0
H  H14  1  0.73477833  0.30372538  0.17805204  1  0.113275  0  0.121316  0.110741  0  1.001641  0
H  H15  1  0.91825931  0.30465781  0.93506609  1  0.094168  0  0.121382  0.111232  0  0.998953  0
H  H16  1  0.27356157  0.72191520  0.84858021  1  0.095405  0  0.120808  0.108192  0  0.997778  0
H  H17  1  0.87222648  0.98810940  0.98581825  1  0.068112  0  0.108809  0.113624  0  0.969239  0
H  H18  1  0.06479550  0.98261654  0.08479330  1  0.064447  0  0.108988  0.113943  0  0.96884  0
H  H19  1  0.84909594  0.63136207  0.92768667  1  0.074662  0  0.121135  0.110155  0  0.987667  0
H  H20  1  0.15895307  0.36244935  0.09332625  1  0.069557  0  0.121121  0.110475  0  0.988386  0
H  H21  1  0.89255003  0.36531664  0.27259243  1  0.13764  0  0.118212  0.10753  0  1.024575  0
H  H22  1  0.98515458  0.62972883  0.74521191  1  0.058682  0  0.117892  0.106765  0  0.997079  0
H  H23  1  0.72230730  0.37115968  0.06040887  1  0.106513  0  0.118712  0.10669  0  0.992992  0
H  H24  1  0.28151616  0.61890038  0.93322230  1  0.102696  0  0.119366  0.10723  0  1.003998  0
H  H25  1  0.02650948  0.62589436  0.14674112  1  0.07218  0  0.118179  0.107437  0  1.028  0
H  H26  1  0.74999565  0.43990577  0.61343605  1  0.076363  0  0.097098  0.083825  0  0.99631  0
H  H27  1  0.84399826  0.36957136  0.87307717  1  0.077274  0  0.11874  0.107332  0  0.994119  0
H  H28  1  0.86034679  0.21696297  0.29048894  1  0.10537  0  0.124718  0.115924  0  0.979779  0
H  H29  1  0.11882513  0.71453457  0.73835674  1  0.098737  0  0.122653  0.112489  0  0.995388  0
H  H30  1  0.92613124  0.68797331  0.99420797  1  0.09838  0  0.120656  0.112117  0  1.00476  0
H  H31  1  0.07009270  0.29524334  0.04674944  1  0.092793  0  0.12046  0.107483  0  1.003719  0
H  H32  1  0.83018082  0.57709151  0.45923176  1  0.050119  0  0.098236  0.085247  0  0.996094  0
H  H33  1  0.94068504  0.42097982  0.57639682  1  0.057741  0  0.098066  0.085214  0  0.991778  0
H  H34  1  0.02109512  0.55844758  0.42163258  1  0.05576  0  0.098237  0.085077  0  0.992615  0
H  H35  1  0.96156214  0.63842422  0.48755869  1  0.044865  0  0.097252  0.08283  0  0.995138  0
H  H36  1  0.80908144  0.35982351  0.54786449  1  0.084396  0  0.098097  0.085741  0  0.994026  0
H  H37  1  0.39918968  0.07409150  0.55734504  1  0.078703  0  0.109267  0.115541  0  0.969844  0
H  H38  1  0.57302378  0.97300195  0.48550491  1  0.07564  0  0.110185  0.116052  0  0.967257  0
H  H39  1  0.49851923  0.95198128  0.63958287  1  0.066403  0  0.108065  0.112044  0  0.970252  0
C  C40  1  0.08813943  0.74691104  0.01245096  1  0.426741  0  0.017323  -0.043148  0  3.967633  0
C  C41  1  0.96103205  0.53215929  0.46523189  1  -0.031099  0  -0.073278  -0.077731  0  3.637466  0
C  C42  1  0.85487222  0.54247022  0.48555639  1  -0.023577  0  -0.074543  -0.083838  0  3.64102  0
C  C43  1  0.91631332  0.45558474  0.54935866  1  -0.021716  0  -0.074366  -0.078818  0  3.638573  0
C  C44  1  0.91537008  0.49572862  0.31334645  1  -0.010613  0  -0.065495  -0.116768  0  4.203348  0
C  C45  1  0.89655943  0.50212094  0.71347811  1  -0.404892  0  -0.067824  -0.118638  0  4.226467  0
C  C46  1  0.84318149  0.42168641  0.53503206  1  -0.049795  0  -0.073758  -0.080141  0  3.638871  0
C  C47  1  0.92792259  0.57656114  0.50018352  1  -0.011134  0  -0.074078  -0.076835  0  3.642247  0
C  C48  1  0.88816168  0.49795797  0.44852533  1  0.101631  0  0.004602  0.135296  0  3.796941  0
C  C49  1  0.88363103  0.50028940  0.58652899  1  0.125757  0  0.00343  0.135889  0  3.807202  0
C  C50  1  0.89700709  0.49662301  0.37624435  1  -0.351024  0  -0.061625  -0.135454  0  4.139002  0
C  C51  1  0.95518605  0.31317641  0.96475610  1  0.424396  0  0.016228  -0.043647  0  3.925813  0
C  C52  1  0.88647318  0.50166406  0.65609908  1  0.031638  0  -0.067826  -0.146529  0  4.156775  0
C  C53  1  0.43746538  0.05124075  0.54114945  1  -0.014829  0  -0.071623  -0.114596  0  3.617954  0
C  C54  1  0.53378794  0.99459452  0.50237894  1  -0.011062  0  -0.071808  -0.111225  0  3.630108  0
C  C55  1  0.77703388  0.29026116  0.19232659  1  0.426207  0  0.019555  -0.033174  0  3.951938  0
C  C56  1  0.22466997  0.70735054  0.83436803  1  0.464206  0  0.0172  -0.044691  0  3.944627  0
C  C57  1  0.51572681  0.07376042  0.54769247  1  0.164945  0  0.023939  0.126414  0  3.703813  0
C  C58  1  0.45636592  0.97302173  0.49479550  1  0.157958  0  0.024964  0.130629  0  3.707486  0
C  C59  1  0.69720016  0.18935695  0.33851212  1  -0.534297  0  -0.054216  -0.092448  0  4.188028  0
C  C60  1  0.28576436  0.82374402  0.69628880  1  -0.294688  0  -0.056076  -0.096379  0  4.188686  0
C  C61  1  0.47836765  0.06300999  0.45646771  1  -0.026013  0  -0.071883  -0.112485  0  3.625024  0
C  C62  1  0.76703648  0.23829729  0.26687255  1  0.179955  0  -0.029968  0.037  0  4.197184  0
C  C63  1  0.49347805  0.98362073  0.58651018  1  -0.016803  0  -0.071847  -0.109132  0  3.629202  0
C  C64  1  0.55863824  0.08664434  0.46109707  1  0.078967  0  0.00546  0.112914  0  3.799619  0
C  C65  1  0.41332529  0.95910099  0.58174188  1  0.101335  0  0.004469  0.111557  0  3.800778  0
C  C66  1  0.63356483  0.14688770  0.39718158  1  0.18135  0  -0.066944  -0.13705  0  4.138535  0
C  C67  1  0.34217591  0.88922692  0.64351688  1  -0.052215  0  -0.066942  -0.135729  0  4.144219  0
C  C68  1  0.57450949  0.53071412  0.84892375  1  -0.036859  0  -0.072944  -0.082473  0  3.63117  0
C  C69  1  0.46410058  0.45689559  0.00180801  1  -0.031407  0  -0.073415  -0.07421  0  3.641365  0
C  C70  1  0.49343056  0.45192437  0.88886832  1  -0.038637  0  -0.073573  -0.083254  0  3.631303  0
C  C71  1  0.54388409  0.53623653  0.96148415  1  -0.027017  0  -0.072688  -0.075775  0  3.641462  0
C  C72  1  0.31886571  0.48921082  0.96329370  1  -0.040235  0  -0.067139  -0.118202  0  4.20506  0
C  C73  1  0.22338640  0.75020162  0.76296910  1  0.162147  0  -0.026598  0.048114  0  4.192287  0
C  C74  1  0.70054763  0.49886403  0.96117361  1  -0.459958  0  -0.064995  -0.118814  0  4.20255  0
C  C75  1  0.53398129  0.57025595  0.88440154  1  -0.048958  0  -0.073441  -0.079042  0  3.642799  0
C  C76  1  0.50401202  0.41758331  0.96572444  1  -0.008158  0  -0.074346  -0.080032  0  3.645376  0
C  C77  1  0.45136800  0.49128735  0.92539101  1  0.088888  0  0.004258  0.134781  0  3.78992  0
C  C78  1  0.58602629  0.49651695  0.92657610  1  0.100297  0  0.003708  0.133489  0  3.804426  0
C  C79  1  0.82900081  0.56805190  0.96378638  1  0.425558  0  0.010592  -0.055675  0  3.953688  0
C  C80  1  0.17684506  0.42551002  0.06024713  1  0.448251  0  0.013684  -0.047492  0  3.963254  0
C  C81  1  0.37959154  0.48933447  0.93688915  1  -0.328548  0  -0.065322  -0.142695  0  4.127538  0
C  C82  1  0.65143216  0.49824560  0.93783428  1  0.087302  0  -0.062704  -0.135688  0  4.13398  0
C  C83  1  0.94900341  0.98731489  0.10331086  1  0.010992  0  -0.002569  0.096199  0  3.607389  0
C  C84  1  0.75916852  0.50038219  0.98481855  1  0.13891  0  -0.023792  0.063459  0  4.187589  0
C  C85  1  0.98880352  0.98460740  0.96605123  1  0.007212  0  -0.00353  0.094541  0  3.615625  0
C  C86  1  0.89700805  0.92040196  0.08989465  1  -0.039183  0  -0.072326  -0.107338  0  3.617302  0
C  C87  1  0.04111196  0.05072499  0.97973693  1  -0.049148  0  -0.071212  -0.101171  0  3.622674  0
C  C88  1  0.00037012  0.80465319  0.04097759  1  -0.41218  0  -0.053536  -0.08495  0  4.193463  0
C  C89  1  0.98083161  0.19625044  0.99282319  1  0.003418  0  -0.053871  -0.092883  0  4.180691  0
C  C90  1  0.02269867  0.98468109  0.06193590  1  -0.002319  0  -0.072173  -0.10394  0  3.629332  0
C  C91  1  0.91509755  0.98700348  0.00780030  1  -0.001372  0  -0.070891  -0.103081  0  3.62328  0
C  C92  1  0.97114209  0.91594404  0.04856890  1  0.137569  0  0.005637  0.122811  0  3.800324  0
C  C93  1  0.96755502  0.05612976  0.02036130  1  0.079465  0  0.005205  0.117748  0  3.8027  0
C  C94  1  0.98051357  0.84976324  0.05430073  1  0.072827  0  -0.073913  -0.150964  0  4.137843  0
C  C95  1  0.25007972  0.48990288  0.99706483  1  0.145261  0  -0.028075  0.049757  0  4.194538  0
C  C96  1  0.97099712  0.13007832  0.00517947  1  -0.310018  0  -0.066194  -0.135496  0  4.143714  0
C  C97  1  0.93205085  0.42889344  0.22984478  1  0.367529  0  0.017043  -0.034236  0  3.915175  0
C  C98  1  0.95323948  0.56578072  0.78803377  1  0.452338  0  0.008231  -0.057194  0  3.967389  0
C  C99  1  0.76415483  0.43508888  0.03190566  1  0.381712  0  0.009255  -0.056024  0  3.954752  0
C  C100  1  0.23934334  0.55653655  0.97848600  1  0.421494  0  0.014389  -0.040973  0  3.957829  0
C  C101  1  0.00087187  0.56235347  0.16536343  1  0.494074  0  0.016665  -0.03459  0  3.917601  0
C  C102  1  0.88078410  0.43271234  0.85353061  1  0.415524  0  0.01047  -0.055474  0  3.965807  0
C  C103  1  0.84115254  0.24586138  0.24994951  1  0.409249  0  0.017147  -0.048838  0  3.966183  0
C  C104  1  0.14569923  0.70466086  0.77784500  1  0.383286  0  0.016605  -0.04428  0  3.933825  0
C  C105  1  0.98123945  0.70172830  0.99646064  1  0.450237  0  0.016737  -0.035797  0  3.954052  0
C  C106  1  0.94458266  0.49559888  0.24116331  1  0.125858  0  -0.02559  0.052478  0  4.182368  0
C  C107  1  0.03350808  0.30915458  0.02123122  1  0.428064  0  0.017477  -0.040983  0  3.934274  0
C  C108  1  0.02140964  0.75403303  0.02040097  1  0.082495  0  -0.030963  0.033954  0  4.197789  0
C  C109  1  0.99073777  0.26900026  0.98955303  1  0.114007  0  -0.026849  0.048875  0  4.183143  0
C  C110  1  0.90897945  0.50064092  0.77974151  1  0.120049  0  -0.032333  0.047074  0  4.209237  0
C  C111  1  0.81031710  0.46621137  0.57037220  1  -0.042087  0  -0.074201  -0.081053  0  3.638986  0
Br  Br112  1  0.91988167  0.98971529  0.20146342  1  -0.109667  0  -0.039891  -0.138967  0  1.222871  0
Br  Br113  1  0.01669893  0.98105367  0.86865681  1  -0.10317  0  -0.03262  -0.131346  0  1.242874  0
N  N114  1  0.08775656  0.69550747  0.98517406  1  -0.783499  0  -0.268311  -0.19776  0  3.505844  0
N  N115  1  0.16631527  0.53369607  0.02629385  1  -0.807879  0  -0.273726  -0.197666  0  3.554678  0
N  N116  1  0.02098475  0.53666419  0.11399298  1  -0.826949  0  -0.282616  -0.191068  0  3.642419  0
N  N117  1  0.90582565  0.45615367  0.90122220  1  -0.774394  0  -0.269679  -0.186904  0  3.577854  0
N  N118  1  0.89052416  0.29752439  0.17194637  1  -0.779969  0  -0.266499  -0.192485  0  3.490755  0
N  N119  1  0.10455575  0.64135511  0.85269250  1  -0.787082  0  -0.277561  -0.192312  0  3.579045  0
N  N120  1  0.02139534  0.66773127  0.97516773  1  -0.812426  0  -0.273546  -0.21102  0  3.586456  0
N  N121  1  0.02188228  0.37029672  0.01783641  1  -0.782695  0  -0.284025  -0.189483  0  3.597247  0
N  N122  1  0.97374329  0.37286304  0.98304965  1  -0.775649  0  -0.278129  -0.191872  0  3.577234  0
N  N123  1  0.85012913  0.32457559  0.13634873  1  -0.830494  0  -0.274489  -0.201475  0  3.590735  0
N  N124  1  0.15330233  0.64294957  0.88738948  1  -0.805306  0  -0.277358  -0.183234  0  3.595975  0
N  N125  1  0.87243553  0.54447094  0.99413349  1  -0.803578  0  -0.278872  -0.198466  0  3.545941  0
N  N126  1  0.12704611  0.45168551  0.07744191  1  -0.788561  0  -0.273402  -0.194252  0  3.523946  0
N  N127  1  0.97869950  0.45471497  0.15360432  1  -0.778101  0  -0.284734  -0.191392  0  3.651104  0
N  N128  1  0.95083343  0.53834266  0.86078178  1  -0.807944  0  -0.267219  -0.196106  0  3.554257  0
N  N129  1  0.83231381  0.46189550  0.03655276  1  -0.755086  0  -0.281171  -0.206247  0  3.521929  0
Cl  Cl130  1  0.55389056  0.13899296  0.58205127  1  -0.236682  0  -0.062716  -0.143754  0  1.337609  0
Cl  Cl131  1  0.41723727  0.90786381  0.46092009  1  -0.229653  0  -0.058443  -0.139743  0  1.346899  0
