# generated using pymatgen
data_Al2H7C20S2Cl(O5F)2
_symmetry_space_group_name_H-M   'P 1'
_cell_length_a   6.63158748
_cell_length_b   11.15855433
_cell_length_c   12.68757804
_cell_angle_alpha   79.81156016
_cell_angle_beta   75.88763367
_cell_angle_gamma   71.71283390
_symmetry_Int_Tables_number   1
_chemical_formula_structural   Al2H7C20S2Cl(O5F)2
_chemical_formula_sum   'Al2 H7 C20 S2 Cl1 O10 F2'
_cell_volume   859.39398678
_cell_formula_units_Z   1
loop_
 _symmetry_equiv_pos_site_id
 _symmetry_equiv_pos_as_xyz
  1  'x, y, z'
loop_
 _atom_site_type_symbol
 _atom_site_label
 _atom_site_symmetry_multiplicity
 _atom_site_fract_x
 _atom_site_fract_y
 _atom_site_fract_z
 _atom_site_occupancy
 _atom_site_pbe_bader_charge
 _atom_site_pbe_bader_spin_density
 _atom_site_pbe_cm5_charge
 _atom_site_pbe_ddec_charge
 _atom_site_pbe_ddec_spin_density
 _atom_site_pbe_ddec_sum_bond_order
 _atom_site_pbe_magmom
Al  Al0  1  0.49345072  0.49893604  0.49971140  1  2.502941  0  0.39309  1.640526  0  2.579601  0
Al  Al1  1  0.99389819  0.49512818  0.50379127  1  2.501886  0  0.39416  1.635827  0  2.572889  0
H  H2  1  0.23214131  0.41810978  0.63272181  1  0.620185  0  0.339087  0.417096  0  0.887952  0
H  H3  1  0.70119488  0.65230018  0.44096450  1  0.610331  0  0.34195  0.416767  0  0.887699  0
H  H4  1  0.65560846  0.58001944  0.14774893  1  0.133429  0  0.121101  0.146272  0  0.976319  0
H  H5  1  0.26021663  0.24491280  0.37192826  1  0.149125  0  0.11723  0.149669  0  1.024105  0
H  H6  1  0.47133321  0.77784173  0.35277459  1  0.116492  0  0.11871  0.144028  0  1.011967  0
H  H7  1  0.74007677  0.87767912  0.56094691  1  0.099292  0  0.111173  0.116956  0  0.984412  0
H  H8  1  0.62192118  0.11487504  0.55460297  1  0.120555  0  0.113706  0.121591  0  0.981907  0
C  C9  1  0.85716770  0.27374298  0.48727134  1  1.599851  0  0.274598  0.652711  0  4.07636  0
C  C10  1  0.65930669  0.48883397  0.69911920  1  1.567763  0  0.256706  0.660792  0  4.140722  0
C  C11  1  0.13289148  0.72708133  0.49409583  1  1.538312  0  0.267139  0.648339  0  4.082811  0
C  C12  1  0.32531952  0.49958846  0.30669661  1  1.597433  0  0.261564  0.640853  0  4.150513  0
C  C13  1  0.42993049  0.44290883  0.88966692  1  0.129186  0  0.008029  0.099176  0  4.086594  0
C  C14  1  0.55269711  0.53947732  0.11859311  1  0.01518  0  -0.083329  -0.127649  0  3.95201  0
C  C15  1  0.59227620  0.48826254  0.81813861  1  -0.083471  0  -0.02789  -0.192994  0  3.946274  0
C  C16  1  0.38746813  0.49662566  0.18788998  1  -0.158668  0  -0.014637  -0.114349  0  3.966387  0
C  C17  1  0.56570019  0.52195042  0.00942543  1  -0.166591  0  -0.019901  0.005062  0  4.071572  0
C  C18  1  0.41270190  0.46340667  0.99878087  1  -0.10542  0  -0.028587  -0.087943  0  4.089372  0
C  C19  1  0.93568426  0.13473263  0.47658588  1  0.005986  0  -0.002146  -0.069948  0  3.914193  0
C  C20  1  0.15281486  0.07368552  0.42500383  1  0.049911  0  0.004195  0.076361  0  3.946029  0
C  C21  1  0.78847324  0.06511155  0.51978769  1  -0.091534  0  -0.079771  -0.094723  0  3.992147  0
C  C22  1  0.30275840  0.14280978  0.37027820  1  0.019732  0  -0.095353  -0.239938  0  3.964015  0
C  C23  1  0.50255483  0.08128539  0.31397407  1  0.469826  0  0.092552  0.185544  0  4.113894  0
C  C24  1  0.06580384  0.86869310  0.47834957  1  -0.01459  0  -0.008033  -0.07606  0  3.925646  0
C  C25  1  0.85402234  0.93238249  0.52212930  1  0.008849  0  -0.081062  -0.094556  0  4.000092  0
C  C26  1  0.21686966  0.93812416  0.42319981  1  -0.012723  0  0.00329  0.079221  0  3.954322  0
C  C27  1  0.42383199  0.87865361  0.36186716  1  0.072501  0  -0.100147  -0.251871  0  3.989212  0
C  C28  1  0.56240116  0.94898828  0.30872046  1  0.44957  0  0.091663  0.186458  0  4.116573  0
S  S29  1  0.72662338  0.55290192  0.88517083  1  0.289892  0  0.095637  0.145786  0  2.811484  0
S  S30  1  0.24821032  0.43381928  0.12209982  1  0.281127  0  0.101341  0.15279  0  2.773634  0
Cl  Cl31  1  0.27383205  0.36415053  0.85685811  1  -0.173684  0  0.02342  -0.030491  0  1.584412  0
O  O32  1  0.66566150  0.33104326  0.47299050  1  -1.257277  0  -0.228885  -0.574764  0  2.329389  0
O  O33  1  0.84260786  0.50926929  0.65510850  1  -1.252225  0  -0.243537  -0.596261  0  2.315861  0
O  O34  1  0.99733951  0.67142113  0.48551078  1  -1.257117  0  -0.235851  -0.600954  0  2.340253  0
O  O35  1  0.45168838  0.52911019  0.35230955  1  -1.254641  0  -0.233775  -0.580643  0  2.342173  0
O  O36  1  0.31999657  0.67229926  0.51649960  1  -1.259393  0  -0.239577  -0.598351  0  2.341451  0
O  O37  1  0.14946179  0.47311035  0.35538409  1  -1.24972  0  -0.233844  -0.575604  0  2.335105  0
O  O38  1  0.98274895  0.32435947  0.51378490  1  -1.260421  0  -0.232837  -0.586363  0  2.340759  0
O  O39  1  0.52947827  0.46949768  0.64915064  1  -1.258387  0  -0.239106  -0.601961  0  2.383617  0
O  O40  1  0.25094274  0.43909946  0.55394067  1  -1.424773  0  -0.450191  -0.984632  0  2.189251  0
O  O41  1  0.73474509  0.56045133  0.45439298  1  -1.417982  0  -0.450868  -0.986884  0  2.198474  0
F  F42  1  0.64574366  0.14651764  0.26041144  1  -0.626125  0  -0.098229  -0.126244  0  1.344809  0
F  F43  1  0.75886196  0.89288765  0.24877715  1  -0.624613  0  -0.102786  -0.128641  0  1.325912  0
