# generated using pymatgen
data_ZnH22C22(NO)4
_symmetry_space_group_name_H-M   'P 1'
_cell_length_a   5.57748378
_cell_length_b   5.57786345
_cell_length_c   20.55297049
_cell_angle_alpha   79.81535202
_cell_angle_beta   79.81636064
_cell_angle_gamma   57.92208407
_symmetry_Int_Tables_number   1
_chemical_formula_structural   ZnH22C22(NO)4
_chemical_formula_sum   'Zn1 H22 C22 N4 O4'
_cell_volume   530.61284567
_cell_formula_units_Z   1
loop_
 _symmetry_equiv_pos_site_id
 _symmetry_equiv_pos_as_xyz
  1  'x, y, z'
loop_
 _atom_site_type_symbol
 _atom_site_label
 _atom_site_symmetry_multiplicity
 _atom_site_fract_x
 _atom_site_fract_y
 _atom_site_fract_z
 _atom_site_occupancy
 _atom_site_hle17_bader_spin_density
 _atom_site_hle17_ddec_charge
 _atom_site_hle17_ddec_spin_density
 _atom_site_hle17_ddec_sum_bond_order
 _atom_site_hle17_magmom
 _atom_site_hse06_10hf_bader_spin_density
 _atom_site_hse06_10hf_ddec_charge
 _atom_site_hse06_10hf_ddec_spin_density
 _atom_site_hse06_10hf_ddec_sum_bond_order
 _atom_site_hse06_10hf_magmom
 _atom_site_hse06_bader_spin_density
 _atom_site_hse06_ddec_charge
 _atom_site_hse06_ddec_spin_density
 _atom_site_hse06_ddec_sum_bond_order
 _atom_site_hse06_magmom
 _atom_site_pbe_bader_spin_density
 _atom_site_pbe_cm5_charge
 _atom_site_pbe_ddec_charge
 _atom_site_pbe_ddec_spin_density
 _atom_site_pbe_ddec_sum_bond_order
 _atom_site_pbe_magmom
Zn  Zn0  1  0.39839569  0.60169695  0.49998520  1  0  1.06545  0  1.672191  0  0  0.885481  0  2.11334  0  0  0.933998  0  2.059751  0  0  0.689808  0.851467  0  2.150131  0
H  H1  1  0.64829110  0.31773360  0.60151516  1  0  0.31112  0  0.893707  0  0  0.301858  0  0.945137  0  0  0.30829  0  0.94077  0  0  0.298579  0.297269  0  0.948286  0
H  H2  1  0.68231999  0.35163292  0.39848012  1  0  0.310998  0  0.893727  0  0  0.30175  0  0.945158  0  0  0.308181  0  0.940791  0  0  0.298522  0.297162  0  0.948303  0
H  H3  1  0.87311969  0.39318528  0.55164544  1  0  0.314627  0  0.913286  0  0  0.295987  0  0.98183  0  0  0.302756  0  0.977266  0  0  0.293304  0.291109  0  0.985195  0
H  H4  1  0.60677083  0.12692706  0.44837083  1  0  0.314508  0  0.913384  0  0  0.295945  0  0.981866  0  0  0.302705  0  0.977311  0  0  0.29327  0.291067  0  0.985231  0
H  H5  1  0.18642148  0.14828175  0.80201006  1  0  0.296753  0  0.869942  0  0  0.2912  0  0.911565  0  0  0.296349  0  0.909504  0  0  0.331198  0.2876  0  0.913043  0
H  H6  1  0.85161908  0.81366323  0.19799460  1  0  0.296726  0  0.869994  0  0  0.29121  0  0.911562  0  0  0.296361  0  0.909501  0  0  0.331132  0.287607  0  0.913041  0
H  H7  1  0.75908037  0.72825324  0.61684754  1  0  0.069299  0  0.911929  0  0  0.082055  0  0.970375  0  0  0.08378  0  0.969291  0  0  0.113627  0.080751  0  0.971326  0
H  H8  1  0.27170615  0.24097337  0.38315264  1  0  0.069207  0  0.911973  0  0  0.082018  0  0.970388  0  0  0.083704  0  0.969337  0  0  0.113682  0.080721  0  0.97133  0
H  H9  1  0.26380904  0.91073528  0.69216968  1  0  0.08215  0  0.972641  0  0  0.096592  0  1.039459  0  0  0.09761  0  1.039376  0  0  0.094134  0.09577  0  1.039602  0
H  H10  1  0.08925791  0.73624902  0.30783299  1  0  0.082219  0  0.972612  0  0  0.096729  0  1.039327  0  0  0.097772  0  1.039224  0  0  0.094152  0.095908  0  1.039468  0
H  H11  1  0.28161844  0.61150856  0.67087863  1  0  0.084772  0  0.929862  0  0  0.103695  0  0.990376  0  0  0.10465  0  0.989652  0  0  0.097142  0.102958  0  0.990936  0
H  H12  1  0.38852100  0.71838240  0.32912205  1  0  0.084861  0  0.929965  0  0  0.103792  0  0.990441  0  0  0.104748  0  0.989718  0  0  0.09719  0.103054  0  0.991002  0
H  H13  1  0.04967931  0.36160770  0.68624432  1  0  0.102331  0  1.001056  0  0  0.110414  0  1.069065  0  0  0.113825  0  1.065939  0  0  0.110624  0.107937  0  1.071365  0
H  H14  1  0.63832402  0.95039455  0.31375737  1  0  0.102358  0  1.001158  0  0  0.110479  0  1.069111  0  0  0.11389  0  1.065983  0  0  0.110632  0.108  0  1.071413  0
H  H15  1  0.92321866  0.10262355  0.93051015  1  0  0.103822  0  0.949161  0  0  0.116199  0  1.006076  0  0  0.1191  0  1.005299  0  0  0.102472  0.114157  0  1.006702  0
H  H16  1  0.89728942  0.07682269  0.06948968  1  0  0.10359  0  0.949181  0  0  0.116084  0  1.005994  0  0  0.118972  0  1.005234  0  0  0.102393  0.114036  0  1.006628  0
H  H17  1  0.43874289  0.27643492  0.99107649  1  0  0.079177  0  0.983075  0  0  0.091386  0  1.043664  0  0  0.093699  0  1.042852  0  0  0.092493  0.089719  0  1.044277  0
H  H18  1  0.72347192  0.56130024  0.00891876  1  0  0.07924  0  0.983011  0  0  0.091514  0  1.043547  0  0  0.09383  0  1.042737  0  0  0.092506  0.089841  0  1.044173  0
H  H19  1  0.00738222  0.56623966  0.93111322  1  0  0.078798  0  0.985216  0  0  0.089153  0  1.049624  0  0  0.091664  0  1.048941  0  0  0.090916  0.087385  0  1.050156  0
H  H20  1  0.43369715  0.99261687  0.06888636  1  0  0.078727  0  0.985305  0  0  0.089089  0  1.049692  0  0  0.091598  0  1.049013  0  0  0.090888  0.087323  0  1.050231  0
H  H21  1  0.04212226  0.70111034  0.81013637  1  0  0.096449  0  0.949976  0  0  0.107902  0  1.009199  0  0  0.110775  0  1.007848  0  0  0.098219  0.105867  0  1.010188  0
H  H22  1  0.29888631  0.95786927  0.18986037  1  0  0.09644  0  0.950021  0  0  0.107859  0  1.009269  0  0  0.11073  0  1.007921  0  0  0.098204  0.105823  0  1.010256  0
C  C23  1  0.37797461  0.00453940  0.57073615  1  0  0.632943  0  3.857149  0  0  0.582774  0  4.160544  0  0  0.61561  0  4.154106  0  0  0.206905  0.560479  0  4.164191  0
C  C24  1  0.99545213  0.62204661  0.42926573  1  0  0.633072  0  3.857169  0  0  0.582974  0  4.160516  0  0  0.615809  0  4.154063  0  0  0.206981  0.560677  0  4.164166  0
C  C25  1  0.57337056  0.71962885  0.60957900  1  0  0.071631  0  3.604736  0  0  0.051488  0  3.848365  0  0  0.051102  0  3.861342  0  0  -0.000197  0.051627  0  3.839493  0
C  C26  1  0.28035385  0.42666349  0.39042188  1  0  0.071831  0  3.604423  0  0  0.051618  0  3.848068  0  0  0.05126  0  3.861027  0  0  -0.000244  0.051751  0  3.839196  0
C  C27  1  0.41488320  0.69569704  0.67739217  1  0  -0.161334  0  3.708049  0  0  -0.208833  0  3.957416  0  0  -0.208816  0  3.970006  0  0  -0.156913  -0.208575  0  3.948673  0
C  C28  1  0.30430628  0.58514145  0.32260829  1  0  -0.161876  0  3.708197  0  0  -0.209369  0  3.957543  0  0  -0.209366  0  3.970118  0  0  -0.157094  -0.209115  0  3.948803  0
C  C29  1  0.89492596  0.38099720  0.72852737  1  0  -0.033886  0  3.726576  0  0  -0.081186  0  4.003051  0  0  -0.075998  0  4.019258  0  0  -0.011581  -0.084439  0  3.991898  0
C  C30  1  0.61895616  0.10513144  0.27147655  1  0  -0.034012  0  3.726858  0  0  -0.081373  0  4.003329  0  0  -0.076175  0  4.019534  0  0  -0.011688  -0.084627  0  3.992171  0
C  C31  1  0.60200579  0.52038896  0.73191803  1  0  -0.03984  0  3.805558  0  0  -0.027468  0  4.064196  0  0  -0.0313  0  4.090205  0  0  -0.050117  -0.024896  0  4.046452  0
C  C32  1  0.47957048  0.39804945  0.26808130  1  0  -0.039495  0  3.805548  0  0  -0.027221  0  4.064235  0  0  -0.031064  0  4.090263  0  0  -0.049979  -0.024648  0  4.046484  0
C  C33  1  0.50460296  0.47717904  0.80035012  1  0  -0.059747  0  3.835398  0  0  -0.047679  0  4.07217  0  0  -0.050518  0  4.096836  0  0  -0.03488  -0.04585  0  4.05553  0
C  C34  1  0.52275860  0.49542996  0.19964874  1  0  -0.059841  0  3.835059  0  0  -0.047625  0  4.07178  0  0  -0.050462  0  4.096452  0  0  -0.034934  -0.045789  0  4.055131  0
C  C35  1  0.75092079  0.30814253  0.83588901  1  0  0.182437  0  3.816566  0  0  0.175162  0  4.061645  0  0  0.181136  0  4.083796  0  0  0.087413  0.171202  0  4.046625  0
C  C36  1  0.69177746  0.24913053  0.16410496  1  0  0.18254  0  3.816225  0  0  0.175031  0  4.061588  0  0  0.181005  0  4.08374  0  0  0.087459  0.171072  0  4.04656  0
C  C37  1  0.73271991  0.23171254  0.90438912  1  0  -0.173558  0  3.785279  0  0  -0.190016  0  4.036959  0  0  -0.194431  0  4.057921  0  0  -0.103564  -0.187115  0  4.022741  0
C  C38  1  0.76823072  0.26731827  0.09560807  1  0  -0.17324  0  3.784899  0  0  -0.189738  0  4.036621  0  0  -0.194132  0  4.057576  0  0  -0.103481  -0.186834  0  4.022396  0
C  C39  1  0.46186011  0.32717213  0.93754592  1  0  -0.080701  0  3.821043  0  0  -0.09415  0  4.069888  0  0  -0.094944  0  4.09236  0  0  -0.107202  -0.093355  0  4.054427  0
C  C40  1  0.67277789  0.53816630  0.06245066  1  0  -0.080915  0  3.820777  0  0  -0.094441  0  4.069647  0  0  -0.095242  0  4.09212  0  0  -0.107265  -0.093642  0  4.054188  0
C  C41  1  0.21604507  0.49371245  0.90357066  1  0  -0.109286  0  3.831316  0  0  -0.125195  0  4.090701  0  0  -0.129001  0  4.112895  0  0  -0.114833  -0.122677  0  4.075565  0
C  C42  1  0.50625104  0.78395870  0.09642774  1  0  -0.109047  0  3.831466  0  0  -0.124958  0  4.090859  0  0  -0.12876  0  4.113055  0  0  -0.114756  -0.12245  0  4.075727  0
C  C43  1  0.23449353  0.56987275  0.83547510  1  0  -0.111142  0  3.79995  0  0  -0.135508  0  4.062778  0  0  -0.134401  0  4.081104  0  0  -0.105664  -0.136073  0  4.050268  0
C  C44  1  0.43009987  0.76552280  0.16452081  1  0  -0.111182  0  3.799844  0  0  -0.135547  0  4.062634  0  0  -0.134444  0  4.080968  0  0  -0.105632  -0.136109  0  4.050121  0
N  N45  1  0.66597697  0.47703027  0.57198230  1  0  -0.660262  0  3.130503  0  0  -0.60233  0  3.384968  0  0  -0.622962  0  3.381122  0  0  -0.627325  -0.587976  0  3.387528  0
N  N46  1  0.52297995  0.33403416  0.42801909  1  0  -0.659888  0  3.130398  0  0  -0.60206  0  3.384768  0  0  -0.622674  0  3.380945  0  0  -0.627166  -0.587706  0  3.387324  0
N  N47  1  0.98332447  0.25096995  0.79055743  1  0  -0.32874  0  3.487984  0  0  -0.27332  0  3.728537  0  0  -0.289811  0  3.74488  0  0  -0.403033  -0.262122  0  3.717174  0
N  N48  1  0.74895564  0.01674722  0.20944631  1  0  -0.328764  0  3.488008  0  0  -0.273245  0  3.728496  0  0  -0.289738  0  3.74484  0  0  -0.402897  -0.262045  0  3.717124  0
O  O49  1  0.33482900  0.22771639  0.59006025  1  0  -0.647622  0  1.965936  0  0  -0.598429  0  2.212212  0  0  -0.622574  0  2.20078  0  0  -0.325425  -0.581558  0  2.219585  0
O  O50  1  0.77224159  0.66520276  0.40995228  1  0  -0.647707  0  1.966115  0  0  -0.59859  0  2.212507  0  0  -0.622736  0  2.201061  0  0  -0.32548  -0.581718  0  2.219885  0
O  O51  1  0.26086819  0.00309698  0.52242903  1  0  -0.63296  0  2.021487  0  0  -0.554517  0  2.272841  0  0  -0.582604  0  2.259421  0  0  -0.321222  -0.534947  0  2.281415  0
O  O52  1  0.99693967  0.73915688  0.47756425  1  0  -0.633031  0  2.021416  0  0  -0.554639  0  2.272745  0  0  -0.582756  0  2.259386  0  0  -0.321273  -0.535073  0  2.281322  0
