# generated using pymatgen
data_Cu2Mo3H4C4(NO5)2
_symmetry_space_group_name_H-M   'P 1'
_cell_length_a   7.69615049
_cell_length_b   8.65411622
_cell_length_c   8.65412946
_cell_angle_alpha   91.19073163
_cell_angle_beta   89.99996097
_cell_angle_gamma   89.99998530
_symmetry_Int_Tables_number   1
_chemical_formula_structural   Cu2Mo3H4C4(NO5)2
_chemical_formula_sum   'Cu4 Mo6 H8 C8 N4 O20'
_cell_volume   576.26981265
_cell_formula_units_Z   2
loop_
 _symmetry_equiv_pos_site_id
 _symmetry_equiv_pos_as_xyz
  1  'x, y, z'
loop_
 _atom_site_type_symbol
 _atom_site_label
 _atom_site_symmetry_multiplicity
 _atom_site_fract_x
 _atom_site_fract_y
 _atom_site_fract_z
 _atom_site_occupancy
 _atom_site_hle17_bader_spin_density
 _atom_site_hle17_ddec_charge
 _atom_site_hle17_ddec_spin_density
 _atom_site_hle17_ddec_sum_bond_order
 _atom_site_hle17_magmom
 _atom_site_hse06_10hf_bader_spin_density
 _atom_site_hse06_10hf_ddec_charge
 _atom_site_hse06_10hf_ddec_spin_density
 _atom_site_hse06_10hf_ddec_sum_bond_order
 _atom_site_hse06_10hf_magmom
 _atom_site_hse06_bader_spin_density
 _atom_site_hse06_ddec_charge
 _atom_site_hse06_ddec_spin_density
 _atom_site_hse06_ddec_sum_bond_order
 _atom_site_hse06_magmom
 _atom_site_pbe_bader_spin_density
 _atom_site_pbe_cm5_charge
 _atom_site_pbe_ddec_charge
 _atom_site_pbe_ddec_spin_density
 _atom_site_pbe_ddec_sum_bond_order
 _atom_site_pbe_magmom
Cu  Cu0  1  0.25000117  0.45180233  0.99052646  1  0  0.841259  0  1.61968  0  0  0.754075  0  2.087079  0  0  0.73514  0  2.045571  0  0  0.576096  0.768461  0  2.113634  0
Cu  Cu1  1  0.74999955  0.54820430  0.00947462  1  0  0.841266  0  1.619691  0  0  0.754108  0  2.087136  0  0  0.735147  0  2.045677  0  0  0.576097  0.768489  0  2.113684  0
Cu  Cu2  1  0.74999942  0.00947190  0.54819072  1  0  0.841316  0  1.619682  0  0  0.754095  0  2.087129  0  0  0.735157  0  2.045627  0  0  0.576081  0.768479  0  2.11367  0
Cu  Cu3  1  0.25000130  0.99052780  0.45180904  1  0  0.841368  0  1.619658  0  0  0.754074  0  2.087123  0  0  0.735141  0  2.045623  0  0  0.576076  0.76846  0  2.113669  0
Mo  Mo4  1  0.24999988  0.83325033  0.83325780  1  0  2.199152  0  4.05894  0  0  2.195688  0  4.584426  0  0  2.29442  0  4.551672  0  0  1.491059  2.123745  0  4.612423  0
Mo  Mo5  1  0.75000214  0.16676092  0.16674454  1  0  2.199092  0  4.058755  0  0  2.19565  0  4.584263  0  0  2.294375  0  4.55151  0  0  1.490949  2.1237  0  4.612276  0
Mo  Mo6  1  0.99999587  0.85789098  0.14211024  1  0  2.238203  0  3.958945  0  0  2.250345  0  4.4565  0  0  2.349713  0  4.423975  0  0  1.489973  2.174533  0  4.490956  0
Mo  Mo7  1  0.49999897  0.14211328  0.85788716  1  0  2.238218  0  3.9589  0  0  2.250376  0  4.456425  0  0  2.349729  0  4.423914  0  0  1.490038  2.174558  0  4.490883  0
Mo  Mo8  1  0.00000485  0.14211797  0.85788858  1  0  2.23815  0  3.959077  0  0  2.250262  0  4.456652  0  0  2.349636  0  4.424113  0  0  1.48995  2.174442  0  4.491106  0
Mo  Mo9  1  0.50000175  0.85788874  0.14210803  1  0  2.238191  0  3.958918  0  0  2.250329  0  4.456467  0  0  2.349697  0  4.423942  0  0  1.489958  2.174522  0  4.490926  0
H  H10  1  0.24999751  0.64112543  0.29324500  1  0  0.076768  0  0.973825  0  0  0.080653  0  1.047463  0  0  0.081948  0  1.045353  0  0  0.118639  0.079583  0  1.048971  0
H  H11  1  0.74999931  0.35886614  0.70676497  1  0  0.076717  0  0.973905  0  0  0.080652  0  1.047512  0  0  0.081939  0  1.045409  0  0  0.118648  0.079574  0  1.049022  0
H  H12  1  0.74999939  0.70674520  0.35886515  1  0  0.076485  0  0.974076  0  0  0.080553  0  1.047526  0  0  0.081841  0  1.045425  0  0  0.118587  0.079476  0  1.049036  0
H  H13  1  0.25000132  0.29323949  0.64112502  1  0  0.076853  0  0.97399  0  0  0.080761  0  1.047594  0  0  0.082047  0  1.045497  0  0  0.118699  0.079687  0  1.049103  0
H  H14  1  0.25000131  0.57477122  0.57477592  1  0  0.136964  0  0.960057  0  0  0.144239  0  1.018883  0  0  0.146552  0  1.020011  0  0  0.115539  0.142557  0  1.018341  0
H  H15  1  0.74999941  0.42521689  0.42523396  1  0  0.137275  0  0.960107  0  0  0.14457  0  1.018848  0  0  0.146883  0  1.019974  0  0  0.115631  0.142883  0  1.018316  0
H  H16  1  0.25000022  0.17422764  0.17423048  1  0  0.093598  0  0.967536  0  0  0.097852  0  1.031828  0  0  0.100888  0  1.026031  0  0  0.130519  0.09529  0  1.036236  0
H  H17  1  0.75000050  0.82577668  0.82577054  1  0  0.093779  0  0.967407  0  0  0.098003  0  1.031732  0  0  0.101039  0  1.025937  0  0  0.130521  0.095436  0  1.036139  0
C  C18  1  0.24999881  0.52185030  0.32961330  1  0  0.209112  0  3.62621  0  0  0.174776  0  3.873113  0  0  0.185495  0  3.890405  0  0  0.072684  0.167624  0  3.86184  0
C  C19  1  0.74999801  0.47814819  0.67040723  1  0  0.209218  0  3.625403  0  0  0.174789  0  3.872399  0  0  0.185511  0  3.889689  0  0  0.072602  0.167636  0  3.861132  0
C  C20  1  0.74999805  0.67037728  0.47815796  1  0  0.209236  0  3.626283  0  0  0.1748  0  3.873145  0  0  0.185512  0  3.890457  0  0  0.07266  0.16765  0  3.86187  0
C  C21  1  0.25000136  0.32960386  0.52186679  1  0  0.209007  0  3.625392  0  0  0.174621  0  3.872331  0  0  0.185336  0  3.88963  0  0  0.072634  0.167468  0  3.861059  0
C  C22  1  0.25000006  0.48494371  0.48494000  1  0  -0.165561  0  3.661013  0  0  -0.16705  0  3.893918  0  0  -0.180676  0  3.919293  0  0  -0.074327  -0.158501  0  3.877525  0
C  C23  1  0.74999806  0.51504792  0.51505033  1  0  -0.166074  0  3.661077  0  0  -0.167602  0  3.894072  0  0  -0.181232  0  3.919442  0  0  -0.074469  -0.159056  0  3.877692  0
C  C24  1  0.24999887  0.26334045  0.26334018  1  0  0.32843  0  3.620558  0  0  0.277668  0  3.889115  0  0  0.292646  0  3.897297  0  0  0.178576  0.267305  0  3.884918  0
C  C25  1  0.74999795  0.73663849  0.73664407  1  0  0.328252  0  3.620812  0  0  0.277582  0  3.889245  0  0  0.292555  0  3.89743  0  0  0.178757  0.267221  0  3.885031  0
N  N26  1  0.24999757  0.41081068  0.21745066  1  0  -0.363201  0  3.255462  0  0  -0.293505  0  3.561859  0  0  -0.308117  0  3.56914  0  0  -0.343795  -0.284555  0  3.557561  0
N  N27  1  0.74999795  0.58919248  0.78255149  1  0  -0.363206  0  3.255929  0  0  -0.293469  0  3.562283  0  0  -0.308078  0  3.569554  0  0  -0.343813  -0.284525  0  3.557981  0
N  N28  1  0.74999800  0.78254568  0.58918225  1  0  -0.362996  0  3.255367  0  0  -0.293372  0  3.561841  0  0  -0.307981  0  3.569122  0  0  -0.343759  -0.284424  0  3.55753  0
N  N29  1  0.25000012  0.21744826  0.41080812  1  0  -0.363215  0  3.255183  0  0  -0.293502  0  3.561583  0  0  -0.308116  0  3.568866  0  0  -0.343786  -0.284549  0  3.557276  0
O  O30  1  0.25000146  0.85921178  0.09131808  1  0  -1.037871  0  1.981433  0  0  -1.02711  0  2.288624  0  0  -1.072497  0  2.286305  0  0  -0.625763  -0.992091  0  2.290085  0
O  O31  1  0.75000186  0.14079716  0.90868305  1  0  -1.037886  0  1.981541  0  0  -1.027108  0  2.288699  0  0  -1.072372  0  2.286084  0  0  -0.625736  -0.992064  0  2.290135  0
O  O32  1  0.75000205  0.90868770  0.14079319  1  0  -1.037811  0  1.981413  0  0  -1.027064  0  2.288634  0  0  -1.072275  0  2.285905  0  0  -0.625756  -0.992039  0  2.290092  0
O  O33  1  0.24999997  0.09132009  0.85920445  1  0  -1.037835  0  1.981616  0  0  -1.027069  0  2.288815  0  0  -1.072286  0  2.286118  0  0  -0.625731  -0.992027  0  2.29026  0
O  O34  1  0.01620244  0.89164214  0.89164063  1  0  -0.984979  0  1.80701  0  0  -0.974132  0  2.096873  0  0  -1.014747  0  2.090773  0  0  -0.598433  -0.942591  0  2.100713  0
O  O35  1  0.51620217  0.10836225  0.10835707  1  0  -0.984987  0  1.807029  0  0  -0.974133  0  2.096858  0  0  -1.014736  0  2.090728  0  0  -0.598423  -0.942587  0  2.100699  0
O  O36  1  0.98380087  0.10836565  0.10835701  1  0  -0.985059  0  1.807159  0  0  -0.974178  0  2.096961  0  0  -1.014766  0  2.090783  0  0  -0.598438  -0.942631  0  2.100799  0
O  O37  1  0.48379595  0.89164323  0.89164282  1  0  -0.984967  0  1.807015  0  0  -0.974125  0  2.096883  0  0  -1.01476  0  2.090849  0  0  -0.598435  -0.942592  0  2.100738  0
O  O38  1  0.24999990  0.63288588  0.85662316  1  0  -0.761067  0  1.698606  0  0  -0.738396  0  2.017936  0  0  -0.757432  0  1.997834  0  0  -0.547046  -0.725198  0  2.032444  0
O  O39  1  0.75000212  0.36712190  0.14337794  1  0  -0.760989  0  1.698587  0  0  -0.738398  0  2.018029  0  0  -0.757444  0  1.99793  0  0  -0.546958  -0.725206  0  2.032545  0
O  O40  1  0.75000077  0.14338392  0.36711591  1  0  -0.761141  0  1.698265  0  0  -0.73842  0  2.017533  0  0  -0.757476  0  1.997446  0  0  -0.546932  -0.725222  0  2.032038  0
O  O41  1  0.25000255  0.85661924  0.63288508  1  0  -0.761154  0  1.698265  0  0  -0.738384  0  2.017517  0  0  -0.757432  0  1.997428  0  0  -0.546954  -0.72518  0  2.032014  0
O  O42  1  0.04674246  0.33882412  0.88461956  1  0  -0.757201  0  1.667244  0  0  -0.750378  0  1.995406  0  0  -0.763189  0  1.972301  0  0  -0.531554  -0.740403  0  2.012051  0
O  O43  1  0.54674073  0.66118141  0.11537815  1  0  -0.757221  0  1.667119  0  0  -0.750461  0  1.995364  0  0  -0.763258  0  1.972247  0  0  -0.53158  -0.740491  0  2.012029  0
O  O44  1  0.95326072  0.11537510  0.66117364  1  0  -0.757272  0  1.667041  0  0  -0.750458  0  1.99521  0  0  -0.763267  0  1.972098  0  0  -0.531554  -0.74048  0  2.011855  0
O  O45  1  0.45326402  0.88462570  0.33882371  1  0  -0.757263  0  1.667063  0  0  -0.750417  0  1.99522  0  0  -0.763223  0  1.972123  0  0  -0.531495  -0.74045  0  2.011891  0
O  O46  1  0.95326215  0.66118252  0.11537690  1  0  -0.757178  0  1.667074  0  0  -0.750449  0  1.995352  0  0  -0.763241  0  1.972227  0  0  -0.531575  -0.740472  0  2.012006  0
O  O47  1  0.45325868  0.33882175  0.88462053  1  0  -0.757233  0  1.667122  0  0  -0.750456  0  1.995315  0  0  -0.763257  0  1.972197  0  0  -0.531588  -0.740497  0  2.011997  0
O  O48  1  0.04673610  0.88462460  0.33882380  1  0  -0.757273  0  1.667072  0  0  -0.75043  0  1.995224  0  0  -0.763232  0  1.972122  0  0  -0.531507  -0.740458  0  2.011886  0
O  O49  1  0.54673930  0.11537400  0.66117374  1  0  -0.75727  0  1.667101  0  0  -0.750453  0  1.99526  0  0  -0.763256  0  1.972151  0  0  -0.531567  -0.740488  0  2.01193  0
