# generated using pymatgen
data_NdAgH8C14(NO4)2
_symmetry_space_group_name_H-M   'P 1'
_cell_length_a   9.16183434
_cell_length_b   9.77556912
_cell_length_c   22.40150000
_cell_angle_alpha   90.00000000
_cell_angle_beta   90.00000000
_cell_angle_gamma   116.76187906
_symmetry_Int_Tables_number   1
_chemical_formula_structural   NdAgH8C14(NO4)2
_chemical_formula_sum   'Nd4 Ag4 H32 C56 N8 O32'
_cell_volume   1791.41995364
_cell_formula_units_Z   4
loop_
 _symmetry_equiv_pos_site_id
 _symmetry_equiv_pos_as_xyz
  1  'x, y, z'
loop_
 _atom_site_type_symbol
 _atom_site_label
 _atom_site_symmetry_multiplicity
 _atom_site_fract_x
 _atom_site_fract_y
 _atom_site_fract_z
 _atom_site_occupancy
 _atom_site_hle17_bader_spin_density
 _atom_site_hle17_ddec_charge
 _atom_site_hle17_ddec_spin_density
 _atom_site_hle17_ddec_sum_bond_order
 _atom_site_hle17_magmom
 _atom_site_hse06_10hf_bader_spin_density
 _atom_site_hse06_10hf_ddec_charge
 _atom_site_hse06_10hf_ddec_spin_density
 _atom_site_hse06_10hf_ddec_sum_bond_order
 _atom_site_hse06_10hf_magmom
 _atom_site_hse06_bader_spin_density
 _atom_site_hse06_ddec_charge
 _atom_site_hse06_ddec_spin_density
 _atom_site_hse06_ddec_sum_bond_order
 _atom_site_hse06_magmom
 _atom_site_pbe_bader_charge
 _atom_site_pbe_bader_spin_density
 _atom_site_pbe_cm5_charge
 _atom_site_pbe_ddec_charge
 _atom_site_pbe_ddec_spin_density
 _atom_site_pbe_ddec_sum_bond_order
 _atom_site_pbe_magmom
Nd  Nd0  1  0.61600713  0.85509881  0.99054662  1  0  2.283211  0  1.675152  0  0  2.126496  0  2.144515  0  0  2.220742  0  2.003426  0  2.247618  0  1.478711  2.092312  0  2.181574  0
Nd  Nd1  1  0.88399772  0.14490750  0.49054617  1  0  2.283196  0  1.675203  0  0  2.126472  0  2.144575  0  0  2.220723  0  2.003479  0  2.247734  0  1.478695  2.092329  0  2.181563  0
Nd  Nd2  1  0.38399905  0.14490864  0.00945472  1  0  2.283183  0  1.675206  0  0  2.126431  0  2.144626  0  0  2.220714  0  2.003476  0  2.247732  0  1.478704  2.092304  0  2.18159  0
Nd  Nd3  1  0.11600572  0.85509652  0.50945249  1  0  2.283234  0  1.675115  0  0  2.126491  0  2.144532  0  0  2.220768  0  2.003377  0  2.247671  0  1.478766  2.092304  0  2.181593  0
Ag  Ag4  1  0.02478062  0.18593075  0.14901368  1  0  0.527361  0  1.36029  0  0  0.367416  0  1.772255  0  0  0.4018  0  1.72802  0  0.564757  0  0.478311  0.344662  0  1.802671  0
Ag  Ag5  1  0.47521977  0.81406983  0.64901413  1  0  0.527351  0  1.360335  0  0  0.367402  0  1.772308  0  0  0.401785  0  1.728074  0  0.56472  0  0.478298  0.344647  0  1.802721  0
Ag  Ag6  1  0.97521899  0.81406983  0.85098543  1  0  0.527391  0  1.360277  0  0  0.36745  0  1.772227  0  0  0.401833  0  1.727995  0  0.564599  0  0.478311  0.344689  0  1.802642  0
Ag  Ag7  1  0.52478092  0.18593075  0.35098721  1  0  0.52736  0  1.36029  0  0  0.367398  0  1.772273  0  0  0.401783  0  1.728037  0  0.564735  0  0.478297  0.344646  0  1.802688  0
H  H8  1  0.19945658  0.46764695  0.06781644  1  0  0.099012  0  0.935994  0  0  0.108366  0  0.998603  0  0  0.110927  0  0.996001  0  0.12926  0  0.125915  0.106483  0  1.000275  0
H  H9  1  0.30054382  0.53235592  0.56781823  1  0  0.099009  0  0.935976  0  0  0.108375  0  0.998572  0  0  0.110935  0  0.995966  0  0.129243  0  0.125915  0.106492  0  1.000243  0
H  H10  1  0.80054303  0.53235363  0.93218222  1  0  0.099006  0  0.935978  0  0  0.108371  0  0.998577  0  0  0.110931  0  0.995972  0  0.129252  0  0.125916  0.106488  0  1.000248  0
H  H11  1  0.69945634  0.46764580  0.43218401  1  0  0.099024  0  0.935981  0  0  0.10836  0  0.998608  0  0  0.110921  0  0.996005  0  0.129243  0  0.125906  0.106478  0  1.000279  0
H  H12  1  0.76594558  0.29927599  0.16410196  1  0  0.062084  0  0.966352  0  0  0.073285  0  1.031926  0  0  0.074661  0  1.030474  0  0.073488  0  0.111073  0.072237  0  1.032968  0
H  H13  1  0.73405652  0.70072459  0.66410151  1  0  0.062124  0  0.966402  0  0  0.073351  0  1.031945  0  0  0.074725  0  1.030498  0  0.073465  0  0.111106  0.072304  0  1.032985  0
H  H14  1  0.23405785  0.70072573  0.83589894  1  0  0.06212  0  0.966366  0  0  0.073302  0  1.031958  0  0  0.074679  0  1.030507  0  0.072681  0  0.111079  0.072255  0  1.032999  0
H  H15  1  0.26594691  0.29927714  0.33589804  1  0  0.062083  0  0.966395  0  0  0.073282  0  1.03197  0  0  0.07466  0  1.030517  0  0.073505  0  0.111062  0.072235  0  1.033012  0
H  H16  1  0.71276025  0.51780468  0.13258264  1  0  0.122555  0  0.933631  0  0  0.135015  0  0.98499  0  0  0.138766  0  0.983139  0  0.116099  0  0.116923  0.132379  0  0.986275  0
H  H17  1  0.78723746  0.48219132  0.63258398  1  0  0.122557  0  0.933614  0  0  0.135013  0  0.984979  0  0  0.138764  0  0.983129  0  0.116111  0  0.11693  0.132377  0  0.986264  0
H  H18  1  0.28723879  0.48219246  0.86741647  1  0  0.122549  0  0.93361  0  0  0.134998  0  0.984983  0  0  0.138749  0  0.983133  0  0.11608  0  0.116929  0.132362  0  0.986268  0
H  H19  1  0.21276158  0.51780583  0.36741736  1  0  0.122561  0  0.933621  0  0  0.135011  0  0.984992  0  0  0.138762  0  0.983142  0  0.115952  0  0.116927  0.132375  0  0.986277  0
H  H20  1  0.92423554  0.72745896  0.07065330  1  0  0.115034  0  0.945763  0  0  0.123068  0  1.009722  0  0  0.125906  0  1.007567  0  0.114679  0  0.11747  0.120998  0  1.011289  0
H  H21  1  0.57575507  0.27253589  0.57065509  1  0  0.115097  0  0.945664  0  0  0.123137  0  1.009622  0  0  0.125976  0  1.007467  0  0.114895  0  0.117486  0.121065  0  1.011193  0
H  H22  1  0.07575694  0.27253589  0.92934446  1  0  0.115101  0  0.945625  0  0  0.123131  0  1.009598  0  0  0.125971  0  1.00744  0  0.114605  0  0.117477  0.12106  0  1.011168  0
H  H23  1  0.42423633  0.72745896  0.42934759  1  0  0.115033  0  0.945739  0  0  0.123067  0  1.009697  0  0  0.125905  0  1.007542  0  0.114672  0  0.117468  0.120997  0  1.011266  0
H  H24  1  0.98607063  0.15316668  0.28072763  1  0  0.089864  0  0.937454  0  0  0.098243  0  1.00215  0  0  0.102085  0  0.997312  0  0.152464  0  0.121251  0.095569  0  1.005452  0
H  H25  1  0.51392928  0.84683390  0.78072852  1  0  0.089892  0  0.937514  0  0  0.098261  0  1.002211  0  0  0.102099  0  0.997378  0  0.152693  0  0.121269  0.095587  0  1.005513  0
H  H26  1  0.01392843  0.84683275  0.71926969  1  0  0.089904  0  0.937516  0  0  0.098269  0  1.002221  0  0  0.102107  0  0.997387  0  0.152674  0  0.121268  0.095595  0  1.005524  0
H  H27  1  0.48606977  0.15316553  0.21927371  1  0  0.089884  0  0.937451  0  0  0.098274  0  1.002132  0  0  0.102116  0  0.997295  0  0.152473  0  0.121255  0.0956  0  1.005436  0
H  H28  1  0.12075571  0.91152339  0.15814477  1  0  0.09865  0  0.924368  0  0  0.106026  0  0.98766  0  0  0.10885  0  0.98513  0  0.124267  0  0.126725  0.103723  0  0.990027  0
H  H29  1  0.37923974  0.08846916  0.65814432  1  0  0.098649  0  0.924356  0  0  0.106026  0  0.987652  0  0  0.108842  0  0.985131  0  0.124278  0  0.126713  0.103721  0  0.990022  0
H  H30  1  0.87924388  0.08847260  0.84185434  1  0  0.09869  0  0.924406  0  0  0.106073  0  0.987698  0  0  0.108896  0  0.98517  0  0.124318  0  0.126757  0.10377  0  0.990066  0
H  H31  1  0.62075711  0.91152339  0.34185568  1  0  0.098618  0  0.924372  0  0  0.105994  0  0.987663  0  0  0.108817  0  0.985135  0  0.124238  0  0.126714  0.10369  0  0.99003  0
H  H32  1  0.14979874  0.74925431  0.23928041  1  0  0.107295  0  0.933583  0  0  0.122439  0  0.980271  0  0  0.125042  0  0.98147  0  0.098054  0  0.113422  0.12056  0  0.979655  0
H  H33  1  0.35019562  0.25074054  0.73927862  1  0  0.107351  0  0.9336  0  0  0.122499  0  0.980279  0  0  0.125102  0  0.981477  0  0.098052  0  0.113436  0.12062  0  0.979663  0
H  H34  1  0.85020249  0.25074512  0.76071959  1  0  0.107293  0  0.933608  0  0  0.122443  0  0.980285  0  0  0.125047  0  0.981482  0  0.09808  0  0.113412  0.120564  0  0.979668  0
H  H35  1  0.64979905  0.74925431  0.26072004  1  0  0.107349  0  0.933586  0  0  0.122486  0  0.980279  0  0  0.125089  0  0.981477  0  0.098039  0  0.113432  0.120607  0  0.979662  0
H  H36  1  0.10140872  0.80035608  0.34660938  1  0  0.129167  0  0.922732  0  0  0.137827  0  0.982011  0  0  0.141908  0  0.977916  0  0.150475  0  0.126209  0.134633  0  0.985423  0
H  H37  1  0.39858894  0.19964564  0.84660804  1  0  0.129139  0  0.922772  0  0  0.137817  0  0.98204  0  0  0.141897  0  0.977948  0  0.150486  0  0.126203  0.134622  0  0.98545  0
H  H38  1  0.89859198  0.19964679  0.65338973  1  0  0.129266  0  0.92267  0  0  0.137924  0  0.981944  0  0  0.142004  0  0.977853  0  0.150432  0  0.126264  0.134727  0  0.985359  0
H  H39  1  0.60140903  0.80035608  0.15339107  1  0  0.129198  0  0.922701  0  0  0.137861  0  0.981973  0  0  0.141943  0  0.977878  0  0.150493  0  0.126223  0.134666  0  0.985385  0
C  C40  1  0.07881638  0.61385479  0.06493672  1  0  -0.112481  0  3.714411  0  0  -0.08609  0  3.947808  0  0  -0.098453  0  3.970503  0  -0.042525  0  -0.009891  -0.0781  0  3.932214  0
C  C41  1  0.42117855  0.38614579  0.56493851  1  0  -0.112277  0  3.714402  0  0  -0.085848  0  3.947808  0  0  -0.098212  0  3.970507  0  -0.042711  0  -0.009794  -0.077858  0  3.932216  0
C  C42  1  0.92117995  0.38614579  0.93506149  1  0  -0.112347  0  3.714461  0  0  -0.085924  0  3.947865  0  0  -0.098286  0  3.970562  0  -0.042764  0  -0.009828  -0.077936  0  3.932274  0
C  C43  1  0.57881778  0.61385479  0.43506372  1  0  -0.112402  0  3.714305  0  0  -0.085995  0  3.947701  0  0  -0.098359  0  3.970398  0  -0.042473  0  -0.009841  -0.078005  0  3.932105  0
C  C44  1  0.09502250  0.48408856  0.08234136  1  0  0.119074  0  3.649877  0  0  0.079431  0  3.888203  0  0  0.08818  0  3.906585  0  0.454274  0  0.053627  0.073847  0  3.875394  0
C  C45  1  0.40497789  0.51591431  0.58234225  1  0  0.119042  0  3.64995  0  0  0.079396  0  3.888276  0  0  0.088149  0  3.906653  0  0.4544  0  0.053633  0.073812  0  3.875466  0
C  C46  1  0.90497820  0.51591431  0.91765819  1  0  0.119066  0  3.649943  0  0  0.079419  0  3.888275  0  0  0.088171  0  3.906651  0  0.454454  0  0.053627  0.073834  0  3.875465  0
C  C47  1  0.59502445  0.48408970  0.41765953  1  0  0.119046  0  3.649841  0  0  0.079411  0  3.888169  0  0  0.088162  0  3.906547  0  0.454172  0  0.053626  0.073827  0  3.875359  0
C  C48  1  0.85240463  0.39019232  0.13582528  1  0  0.12371  0  3.710251  0  0  0.092103  0  3.95233  0  0  0.100315  0  3.971747  0  0.471904  0  0.047222  0.086746  0  3.939257  0
C  C49  1  0.64759364  0.60980711  0.63582707  1  0  0.123702  0  3.71018  0  0  0.092081  0  3.95225  0  0  0.100294  0  3.971669  0  0.471874  0  0.047242  0.086725  0  3.939177  0
C  C50  1  0.14759497  0.60980826  0.86417383  1  0  0.123697  0  3.71015  0  0  0.092109  0  3.952223  0  0  0.100321  0  3.971643  0  0.47266  0  0.047241  0.086752  0  3.939151  0
C  C51  1  0.35240597  0.39019347  0.36417472  1  0  0.123698  0  3.710306  0  0  0.092081  0  3.952386  0  0  0.100295  0  3.971802  0  0.471879  0  0.047213  0.086726  0  3.939312  0
C  C52  1  0.82488571  0.51353932  0.11918488  1  0  -0.101227  0  3.716807  0  0  -0.111412  0  3.963367  0  0  -0.119223  0  3.984467  0  0.009578  0  -0.07337  -0.106504  0  3.949312  0
C  C53  1  0.67510762  0.48645209  0.61918577  1  0  -0.101171  0  3.716681  0  0  -0.111345  0  3.96324  0  0  -0.11916  0  3.984347  0  0.00965  0  -0.073379  -0.106438  0  3.949186  0
C  C54  1  0.17510895  0.48645323  0.88081423  1  0  -0.101168  0  3.716661  0  0  -0.111326  0  3.963202  0  0  -0.11914  0  3.984307  0  0.009659  0  -0.073392  -0.106419  0  3.949147  0
C  C55  1  0.32488868  0.51354162  0.38081512  1  0  -0.101236  0  3.716858  0  0  -0.111408  0  3.963415  0  0  -0.119221  0  3.984517  0  0.009797  0  -0.073399  -0.106501  0  3.94936  0
C  C56  1  0.94083791  0.62819637  0.08394081  1  0  -0.002134  0  3.66266  0  0  -0.031334  0  3.910402  0  0  -0.025568  0  3.927138  0  0.013907  0  -0.053907  -0.034939  0  3.899269  0
C  C57  1  0.55914943  0.37179848  0.58394125  1  0  -0.002352  0  3.662634  0  0  -0.031568  0  3.910395  0  0  -0.025802  0  3.927133  0  0.013797  0  -0.054003  -0.035173  0  3.899267  0
C  C58  1  0.05915130  0.37179848  0.91605919  1  0  -0.002332  0  3.662571  0  0  -0.031544  0  3.910331  0  0  -0.025779  0  3.927069  0  0.014066  0  -0.053948  -0.035147  0  3.899199  0
C  C59  1  0.44083869  0.62819637  0.41606009  1  0  -0.002177  0  3.662596  0  0  -0.031374  0  3.910338  0  0  -0.025607  0  3.927077  0  0.013874  0  -0.053893  -0.034979  0  3.899207  0
C  C60  1  0.21125563  0.73907383  0.02891458  1  0  0.709436  0  3.892297  0  0  0.661036  0  4.186255  0  0  0.696945  0  4.178949  0  1.628671  0  0.227317  0.63703  0  4.192016  0
C  C61  1  0.28874587  0.26093133  0.52891503  1  0  0.709591  0  3.892217  0  0  0.661089  0  4.186344  0  0  0.696998  0  4.179037  0  1.628727  0  0.227297  0.637078  0  4.192117  0
C  C62  1  0.78874727  0.26093133  0.97108453  1  0  0.709592  0  3.892255  0  0  0.661116  0  4.186329  0  0  0.697024  0  4.179023  0  1.628724  0  0.227295  0.637111  0  4.192094  0
C  C63  1  0.71125538  0.73907268  0.47108631  1  0  0.709609  0  3.892204  0  0  0.66117  0  4.186225  0  0  0.697079  0  4.178916  0  1.628836  0  0.227316  0.637164  0  4.19199  0
C  C64  1  0.04019394  0.98147613  0.32064505  1  0  -0.113019  0  3.739654  0  0  -0.085945  0  3.972068  0  0  -0.098619  0  3.995294  0  -0.050464  0  -0.008647  -0.077688  0  3.955733  0
C  C65  1  0.45980427  0.01852445  0.82064505  1  0  -0.112969  0  3.739622  0  0  -0.085849  0  3.972046  0  0  -0.098527  0  3.995276  0  -0.050355  0  -0.008594  -0.077593  0  3.955713  0
C  C66  1  0.95980348  0.01852445  0.67935361  1  0  -0.11304  0  3.739694  0  0  -0.085932  0  3.972102  0  0  -0.09861  0  3.995333  0  -0.050352  0  -0.00863  -0.077678  0  3.955772  0
C  C67  1  0.54019534  0.98147613  0.17935540  1  0  -0.113004  0  3.739596  0  0  -0.085904  0  3.972029  0  0  -0.098576  0  3.995252  0  -0.050479  0  -0.00862  -0.077647  0  3.955693  0
C  C68  1  0.02409155  0.06412926  0.27247372  1  0  0.091861  0  3.726072  0  0  0.051777  0  3.969309  0  0  0.059666  0  3.988914  0  0.434803  0  0.046355  0.046338  0  3.956601  0
C  C69  1  0.47590829  0.93587017  0.77247506  1  0  0.091821  0  3.726307  0  0  0.051727  0  3.969558  0  0  0.059627  0  3.989144  0  0.435191  0  0.046336  0.046288  0  3.956853  0
C  C70  1  0.97590969  0.93587017  0.72752316  1  0  0.091825  0  3.726262  0  0  0.051723  0  3.969517  0  0  0.059624  0  3.989102  0  0.435146  0  0.046329  0.046278  0  3.956806  0
C  C71  1  0.52409131  0.06412811  0.22752717  1  0  0.091868  0  3.726081  0  0  0.051776  0  3.969315  0  0  0.059665  0  3.988919  0  0.434826  0  0.046382  0.04634  0  3.956609  0
C  C72  1  0.09747967  0.92760526  0.20471531  1  0  0.139429  0  3.657676  0  0  0.105115  0  3.906549  0  0  0.113885  0  3.924738  0  0.473603  0  0.057114  0.09949  0  3.894384  0
C  C73  1  0.40251687  0.07238959  0.70471486  1  0  0.139456  0  3.657553  0  0  0.105139  0  3.906403  0  0  0.113913  0  3.924599  0  0.473749  0  0.057133  0.099516  0  3.894241  0
C  C74  1  0.90251719  0.07239188  0.79528291  1  0  0.13939  0  3.65775  0  0  0.10504  0  3.906636  0  0  0.11381  0  3.924831  0  0.473526  0  0.057072  0.099409  0  3.894469  0
C  C75  1  0.59748107  0.92760526  0.29528558  1  0  0.13949  0  3.657667  0  0  0.105186  0  3.906518  0  0  0.113957  0  3.92471  0  0.473639  0  0.057128  0.099565  0  3.894356  0
C  C76  1  0.11435081  0.83866178  0.25039082  1  0  -0.125404  0  3.741318  0  0  -0.135868  0  3.991848  0  0  -0.14533  0  4.015147  0  -0.069969  0  -0.080495  -0.129743  0  3.976072  0
C  C77  1  0.38564740  0.16133879  0.75039038  1  0  -0.125508  0  3.741192  0  0  -0.135973  0  3.991747  0  0  -0.145436  0  4.015045  0  -0.07005  0  -0.080528  -0.129848  0  3.975973  0
C  C78  1  0.88565043  0.16133765  0.74960739  1  0  -0.125371  0  3.741346  0  0  -0.135825  0  3.991865  0  0  -0.145288  0  4.015166  0  -0.070021  0  -0.080482  -0.129701  0  3.97609  0
C  C79  1  0.61435056  0.83866064  0.24961007  1  0  -0.125545  0  3.741214  0  0  -0.136017  0  3.991763  0  0  -0.145479  0  4.015059  0  -0.069952  0  -0.080548  -0.129891  0  3.975988  0
C  C80  1  0.08753978  0.86627603  0.30956141  1  0  0.001188  0  3.648721  0  0  -0.026325  0  3.893448  0  0  -0.01959  0  3.908282  0  0.005009  0  -0.046093  -0.030446  0  3.88314  0
C  C81  1  0.41245733  0.13372225  0.80956141  1  0  0.001221  0  3.648628  0  0  -0.026323  0  3.89338  0  0  -0.019592  0  3.908219  0  0.004911  0  -0.046094  -0.030441  0  3.88307  0
C  C82  1  0.91245983  0.13372454  0.69043680  1  0  0.001032  0  3.648693  0  0  -0.026488  0  3.893432  0  0  -0.019757  0  3.908269  0  0.004886  0  -0.046166  -0.030609  0  3.883127  0
C  C83  1  0.58753955  0.86627718  0.19043903  1  0  0.001166  0  3.648636  0  0  -0.026338  0  3.893355  0  0  -0.019603  0  3.908186  0  0.005012  0  -0.046092  -0.030459  0  3.883047  0
C  C84  1  0.00396370  0.02156737  0.38173783  1  0  0.690041  0  3.926032  0  0  0.641574  0  4.217192  0  0  0.676137  0  4.213502  0  1.627484  0  0.223893  0.618197  0  4.221746  0
C  C85  1  0.49604326  0.97843779  0.88173649  1  0  0.690169  0  3.925816  0  0  0.641611  0  4.217107  0  0  0.676179  0  4.213416  0  1.6274  0  0.223816  0.618235  0  4.221659  0
C  C86  1  0.99604245  0.97843321  0.61826262  1  0  0.690234  0  3.925961  0  0  0.641706  0  4.217197  0  0  0.676269  0  4.213512  0  1.62753  0  0.223798  0.618329  0  4.221751  0
C  C87  1  0.50396401  0.02156737  0.11826306  1  0  0.690272  0  3.925652  0  0  0.641714  0  4.216954  0  0  0.676278  0  4.21326  0  1.62748  0  0.223926  0.618336  0  4.221509  0
C  C88  1  0.99576696  0.02149175  0.03297011  1  0  0.559529  0  3.940806  0  0  0.513296  0  4.234303  0  0  0.543362  0  4.230337  0  1.578379  0  0.207376  0.492701  0  4.239556  0
C  C89  1  0.50424277  0.97850653  0.53296877  1  0  0.559569  0  3.940821  0  0  0.513332  0  4.234319  0  0  0.543405  0  4.230346  0  1.603105  0  0.207423  0.492741  0  4.239572  0
C  C90  1  0.00424517  0.97850310  0.96703212  1  0  0.559616  0  3.940717  0  0  0.513403  0  4.234183  0  0  0.543477  0  4.23021  0  1.603059  0  0.207438  0.492811  0  4.239436  0
C  C91  1  0.49576447  0.02149175  0.46703078  1  0  0.559615  0  3.940789  0  0  0.513407  0  4.234248  0  0  0.543468  0  4.230285  0  1.578408  0  0.207419  0.492809  0  4.239505  0
C  C92  1  0.49119737  0.49230535  0.96528268  1  0  0.550712  0  3.951101  0  0  0.507671  0  4.254136  0  0  0.537063  0  4.25007  0  1.608929  0  0.209815  0.487336  0  4.259933  0
C  C93  1  0.00879648  0.50769752  0.46528491  1  0  0.550791  0  3.950932  0  0  0.507815  0  4.253835  0  0  0.53721  0  4.249767  0  1.568869  0  0.209848  0.487478  0  4.259633  0
C  C94  1  0.50879570  0.50769981  0.03471285  1  0  0.550889  0  3.950792  0  0  0.507786  0  4.2539  0  0  0.537179  0  4.249832  0  1.568922  0  0.209793  0.487451  0  4.259697  0
C  C95  1  0.99120095  0.49230535  0.53471643  1  0  0.550718  0  3.951004  0  0  0.507647  0  4.254022  0  0  0.53704  0  4.249956  0  1.608945  0  0.209786  0.487311  0  4.259819  0
N  N96  1  0.98529755  0.37508772  0.11802424  1  0  -0.304321  0  3.365393  0  0  -0.213017  0  3.651584  0  0  -0.233621  0  3.667032  0  -1.212387  0  -0.347006  -0.199512  0  3.641065  0
N  N97  1  0.51469964  0.62491401  0.61802558  1  0  -0.304402  0  3.365386  0  0  -0.213115  0  3.651622  0  0  -0.233717  0  3.667064  0  -1.212435  0  -0.347057  -0.199611  0  3.641105  0
N  N98  1  0.01469987  0.62491286  0.88197442  1  0  -0.304389  0  3.365345  0  0  -0.213103  0  3.651564  0  0  -0.233705  0  3.66701  0  -1.212418  0  -0.347026  -0.199598  0  3.641047  0
N  N99  1  0.48529997  0.37508886  0.38197576  1  0  -0.304329  0  3.365252  0  0  -0.213008  0  3.651434  0  0  -0.233612  0  3.66688  0  -1.212363  0  -0.346987  -0.199504  0  3.640915  0
N  N100  1  0.05352542  0.03984549  0.21560922  1  0  -0.29822  0  3.361946  0  0  -0.207112  0  3.644738  0  0  -0.227804  0  3.661205  0  -1.187305  0  -0.344621  -0.192952  0  3.632868  0
N  N101  1  0.44647387  0.96015279  0.71561056  1  0  -0.298216  0  3.362023  0  0  -0.207082  0  3.644777  0  0  -0.227777  0  3.661248  0  -1.188045  0  -0.344589  -0.192928  0  3.632913  0
N  N102  1  0.94647363  0.96015394  0.78438765  1  0  -0.298234  0  3.362037  0  0  -0.207079  0  3.644778  0  0  -0.227775  0  3.661252  0  -1.187612  0  -0.344568  -0.192903  0  3.632896  0
N  N103  1  0.55352354  0.03984320  0.28439122  1  0  -0.298254  0  3.362073  0  0  -0.207143  0  3.64486  0  0  -0.227836  0  3.66133  0  -1.187379  0  -0.344646  -0.192994  0  3.632996  0
O  O104  1  0.31630078  0.70807869  0.00321898  1  0  -0.731294  0  2.014576  0  0  -0.682489  0  2.267213  0  0  -0.715245  0  2.258283  0  -1.202142  0  -0.382229  -0.663982  0  2.272085  0
O  O105  1  0.18369910  0.29192991  0.50322077  1  0  -0.731372  0  2.014474  0  0  -0.682554  0  2.267219  0  0  -0.715314  0  2.258288  0  -1.201966  0  -0.382225  -0.664053  0  2.272094  0
O  O106  1  0.68370104  0.29192877  0.99678057  1  0  -0.731338  0  2.014442  0  0  -0.682528  0  2.26719  0  0  -0.715295  0  2.258258  0  -1.201954  0  -0.382205  -0.664032  0  2.272062  0
O  O107  1  0.81630108  0.70807869  0.49678102  1  0  -0.731388  0  2.014552  0  0  -0.682565  0  2.267215  0  0  -0.715328  0  2.25828  0  -1.202178  0  -0.382237  -0.664059  0  2.272089  0
O  O108  1  0.20790025  0.86741254  0.02887351  1  0  -0.734461  0  2.059138  0  0  -0.679916  0  2.309746  0  0  -0.712743  0  2.30006  0  -1.201211  0  -0.375687  -0.661399  0  2.314928  0
O  O109  1  0.29210072  0.13259605  0.52886950  1  0  -0.73455  0  2.059245  0  0  -0.680005  0  2.309988  0  0  -0.712824  0  2.300281  0  -1.201486  0  -0.375693  -0.661467  0  2.315158  0
O  O110  1  0.79210048  0.13259491  0.97113006  1  0  -0.734575  0  2.059276  0  0  -0.680044  0  2.310017  0  0  -0.71286  0  2.300312  0  -1.201445  0  -0.375722  -0.661509  0  2.315182  0
O  O111  1  0.70789781  0.86740911  0.47112827  1  0  -0.734529  0  2.059175  0  0  -0.679998  0  2.30984  0  0  -0.712815  0  2.300144  0  -1.201331  0  -0.375694  -0.661475  0  2.315017  0
O  O112  1  0.93651705  0.10970887  0.38445684  1  0  -0.679627  0  1.9788  0  0  -0.632146  0  2.222833  0  0  -0.661871  0  2.211827  0  -1.180988  0  -0.36996  -0.614956  0  2.228885  0
O  O113  1  0.56348889  0.89029744  0.88445729  1  0  -0.679641  0  1.978738  0  0  -0.632124  0  2.2228  0  0  -0.661852  0  2.211793  0  -1.18103  0  -0.369909  -0.614932  0  2.228861  0
O  O114  1  0.06348913  0.89029858  0.61554226  1  0  -0.679648  0  1.97883  0  0  -0.632158  0  2.222915  0  0  -0.661873  0  2.211873  0  -1.181098  0  -0.369925  -0.614968  0  2.228982  0
O  O115  1  0.43651784  0.10970887  0.11554405  1  0  -0.679719  0  1.978658  0  0  -0.6322  0  2.222736  0  0  -0.661932  0  2.211734  0  -1.180982  0  -0.369966  -0.615014  0  2.228791  0
O  O116  1  0.04178841  0.96704748  0.42728657  1  0  -0.777129  0  2.124897  0  0  -0.722501  0  2.389586  0  0  -0.757059  0  2.376026  0  -1.217437  0  -0.399659  -0.705367  0  2.39836  0
O  O117  1  0.45821253  0.03295425  0.92728746  1  0  -0.777276  0  2.124835  0  0  -0.722622  0  2.389581  0  0  -0.757153  0  2.375951  0  -1.217305  0  -0.399652  -0.705492  0  2.398345  0
O  O118  1  0.95821554  0.03294852  0.57271254  1  0  -0.777267  0  2.124787  0  0  -0.722613  0  2.38949  0  0  -0.757147  0  2.375879  0  -1.217415  0  -0.399606  -0.705481  0  2.398255  0
O  O119  1  0.54179145  0.96704862  0.07271388  1  0  -0.777218  0  2.124728  0  0  -0.722588  0  2.389517  0  0  -0.757145  0  2.375963  0  -1.217401  0  -0.399668  -0.705451  0  2.398291  0
O  O120  1  0.12833276  0.12087922  0.05587171  1  0  -0.666435  0  2.106588  0  0  -0.601914  0  2.372359  0  0  -0.633678  0  2.359408  0  -1.177283  0  -0.377323  -0.583354  0  2.379769  0
O  O121  1  0.37167581  0.87912022  0.55586858  1  0  -0.666374  0  2.106587  0  0  -0.601851  0  2.37236  0  0  -0.633613  0  2.359401  0  -1.177615  0  -0.37725  -0.583285  0  2.379768  0
O  O122  1  0.87167775  0.87911907  0.94413142  1  0  -0.666399  0  2.106579  0  0  -0.601896  0  2.372346  0  0  -0.633654  0  2.35939  0  -1.177574  0  -0.377246  -0.583329  0  2.379756  0
O  O123  1  0.62833144  0.12088036  0.44413008  1  0  -0.666487  0  2.106635  0  0  -0.601976  0  2.372396  0  0  -0.633733  0  2.359443  0  -1.177281  0  -0.377344  -0.583414  0  2.379807  0
O  O124  1  0.85989934  0.95657599  0.05941299  1  0  -0.649414  0  2.047036  0  0  -0.598985  0  2.29974  0  0  -0.627355  0  2.287747  0  -1.163933  0  -0.358004  -0.582248  0  2.306367  0
O  O125  1  0.64011203  0.04342344  0.55941343  1  0  -0.649491  0  2.047014  0  0  -0.59905  0  2.299696  0  0  -0.627432  0  2.287706  0  -1.164119  0  -0.358058  -0.582293  0  2.306256  0
O  O126  1  0.14011335  0.04342230  0.94058791  1  0  -0.64951  0  2.046929  0  0  -0.599074  0  2.299608  0  0  -0.627459  0  2.287617  0  -1.164103  0  -0.358089  -0.582327  0  2.306192  0
O  O127  1  0.35989904  0.95657828  0.44058657  1  0  -0.649444  0  2.04702  0  0  -0.599019  0  2.299718  0  0  -0.627395  0  2.287726  0  -1.163941  0  -0.358027  -0.582279  0  2.306336  0
O  O128  1  0.54754576  0.61494547  0.93546950  1  0  -0.647  0  2.031148  0  0  -0.602341  0  2.27558  0  0  -0.62878  0  2.262981  0  -1.171986  0  -0.372444  -0.587402  0  2.283082  0
O  O129  1  0.95245196  0.38505281  0.43547084  1  0  -0.647071  0  2.031062  0  0  -0.602431  0  2.275446  0  0  -0.628871  0  2.262844  0  -1.171971  0  -0.372506  -0.587497  0  2.282949  0
O  O130  1  0.45244895  0.38505854  0.06452827  1  0  -0.647098  0  2.031016  0  0  -0.602409  0  2.275471  0  0  -0.628846  0  2.262857  0  -1.171977  0  -0.372521  -0.587478  0  2.282972  0
O  O131  1  0.04754819  0.61494662  0.56452961  1  0  -0.646988  0  2.031116  0  0  -0.602328  0  2.275558  0  0  -0.62877  0  2.262952  0  -1.171951  0  -0.372455  -0.587388  0  2.283061  0
O  O132  1  0.42115991  0.35749356  0.94396447  1  0  -0.677091  0  2.025085  0  0  -0.632781  0  2.274095  0  0  -0.661324  0  2.261666  0  -1.192243  0  -0.389428  -0.616679  0  2.281245  0
O  O133  1  0.07884047  0.64250473  0.44396759  1  0  -0.677067  0  2.025153  0  0  -0.632772  0  2.274105  0  0  -0.661315  0  2.261675  0  -1.192218  0  -0.389415  -0.616659  0  2.281258  0
O  O134  1  0.57883204  0.64250473  0.05603152  1  0  -0.677095  0  2.025059  0  0  -0.632759  0  2.274069  0  0  -0.661301  0  2.261652  0  -1.192181  0  -0.389366  -0.616646  0  2.281222  0
O  O135  1  0.92116240  0.35749356  0.55603553  1  0  -0.677091  0  2.0251  0  0  -0.632783  0  2.274101  0  0  -0.661326  0  2.261682  0  -1.192225  0  -0.389416  -0.616679  0  2.281252  0
