# generated using pymatgen
data_Yb2U3H26(C3O4)10
_symmetry_space_group_name_H-M   'P 1'
_cell_length_a   10.45590248
_cell_length_b   11.36892766
_cell_length_c   13.50057019
_cell_angle_alpha   67.64223094
_cell_angle_beta   78.09442842
_cell_angle_gamma   64.00900360
_symmetry_Int_Tables_number   1
_chemical_formula_structural   Yb2U3H26(C3O4)10
_chemical_formula_sum   'Yb2 U3 H26 C30 O40'
_cell_volume   1332.58089527
_cell_formula_units_Z   1
loop_
 _symmetry_equiv_pos_site_id
 _symmetry_equiv_pos_as_xyz
  1  'x, y, z'
loop_
 _atom_site_type_symbol
 _atom_site_label
 _atom_site_symmetry_multiplicity
 _atom_site_fract_x
 _atom_site_fract_y
 _atom_site_fract_z
 _atom_site_occupancy
 _atom_site_pbe_bader_charge
 _atom_site_pbe_bader_spin_density
 _atom_site_pbe_cm5_charge
 _atom_site_pbe_ddec_charge
 _atom_site_pbe_ddec_spin_density
 _atom_site_pbe_ddec_sum_bond_order
 _atom_site_pbe_magmom
Yb  Yb0  1  0.58266669  0.24824954  0.74515055  1  2.219607  0  1.588441  2.170115  0  2.020839  0
Yb  Yb1  1  0.41732959  0.75175716  0.25484776  1  2.219586  0  1.588431  2.170083  0  2.020929  0
U  U2  1  0.61829942  0.71754613  0.83950440  1  2.919585  0  2.198709  2.446073  0  4.805318  0
U  U3  1  0.38169914  0.28245744  0.16049750  1  2.919752  0  2.198651  2.446041  0  4.805078  0
U  U4  1  0.00000178  0.49999534  0.50000015  1  2.909969  0  2.157638  2.426113  0  4.684947  0
H  H5  1  0.09186993  0.36924187  0.96917308  1  0.160132  0  0.123372  0.140913  0  1.000675  0
H  H6  1  0.90813101  0.63076068  0.03082877  1  0.160165  0  0.123396  0.140923  0  1.000701  0
H  H7  1  0.14838634  0.11102122  0.72680973  1  0.108894  0  0.115736  0.127883  0  0.993409  0
H  H8  1  0.85161027  0.88898236  0.27319025  1  0.108851  0  0.115723  0.127876  0  0.993433  0
H  H9  1  0.73252692  0.00249166  0.41397212  1  0.091602  0  0.118504  0.128953  0  0.977208  0
H  H10  1  0.26747499  0.99750158  0.58602878  1  0.091658  0  0.118482  0.128957  0  0.977145  0
H  H11  1  0.65905672  0.21602548  0.53493320  1  0.66987  0  0.296429  0.397346  0  0.941171  0
H  H12  1  0.34094162  0.78397398  0.46506558  1  0.669887  0  0.296426  0.397327  0  0.941195  0
H  H13  1  0.71201389  0.06622318  0.62536935  1  0.626602  0  0.331188  0.429766  0  0.858568  0
H  H14  1  0.28798585  0.93377524  0.37463028  1  0.626612  0  0.331228  0.429814  0  0.858506  0
H  H15  1  0.54783364  0.52223579  0.58157914  1  0.658523  0  0.310726  0.409305  0  0.918081  0
H  H16  1  0.45216383  0.47776575  0.41841838  1  0.658532  0  0.310758  0.409334  0  0.918054  0
H  H17  1  0.71149409  0.41844338  0.59641320  1  0.644281  0  0.312292  0.407886  0  0.924166  0
H  H18  1  0.28850631  0.58155821  0.40358237  1  0.644472  0  0.31233  0.407941  0  0.924101  0
H  H19  1  0.34289254  0.50481415  0.66098960  1  0.636605  0  0.329167  0.424553  0  0.870307  0
H  H20  1  0.65710785  0.49518740  0.33900894  1  0.636627  0  0.329178  0.424586  0  0.870258  0
H  H21  1  0.26779153  0.41487783  0.65664844  1  0.656191  0  0.317041  0.438164  0  0.866445  0
H  H22  1  0.73220930  0.58512269  0.34334961  1  0.656169  0  0.317043  0.438153  0  0.866454  0
H  H23  1  0.50781605  0.51511002  0.78572141  1  0.651418  0  0.310627  0.411254  0  0.914968  0
H  H24  1  0.49218099  0.48489254  0.21427660  1  0.651428  0  0.310652  0.411288  0  0.914921  0
H  H25  1  0.49906520  0.40270999  0.89879655  1  0.637673  0  0.317979  0.434584  0  0.874132  0
H  H26  1  0.50093563  0.59729055  0.10120076  1  0.637647  0  0.317956  0.434547  0  0.874177  0
H  H27  1  0.82484867  0.02613524  0.85492252  1  0.631986  0  0.332297  0.424763  0  0.863032  0
H  H28  1  0.17514935  0.97386731  0.14507757  1  0.632071  0  0.332288  0.424739  0  0.863067  0
H  H29  1  0.72976570  0.94072788  0.87026563  1  0.650816  0  0.309427  0.412133  0  0.917764  0
H  H30  1  0.27023275  0.05927365  0.12973322  1  0.650801  0  0.30942  0.412135  0  0.917748  0
C  C31  1  0.98921904  0.34403096  0.86055760  1  0.006525  0  0.000334  -0.037199  0  3.941991  0
C  C32  1  0.01077811  0.65597365  0.13944272  1  0.006529  0  0.000299  -0.037261  0  3.942044  0
C  C33  1  0.10535297  0.31224575  0.91587623  1  -0.026699  0  -0.057312  -0.078359  0  3.879837  0
C  C34  1  0.89464688  0.68775473  0.08412495  1  -0.026987  0  -0.057321  -0.078359  0  3.880139  0
C  C35  1  0.23972514  0.21533441  0.89791173  1  -0.00339  0  -0.00638  -0.08392  0  3.967197  0
C  C36  1  0.76028045  0.78466404  0.10208919  1  -0.003397  0  -0.006357  -0.083803  0  3.96723  0
C  C37  1  0.25554135  0.14595828  0.82624649  1  -0.058885  0  0.009549  -0.018937  0  3.913248  0
C  C38  1  0.74445710  0.85404322  0.17375459  1  -0.058368  0  0.009542  -0.019034  0  3.913119  0
C  C39  1  0.13590979  0.16765404  0.77996080  1  0.03632  0  -0.070927  -0.126625  0  3.928793  0
C  C40  1  0.86408682  0.83234950  0.22004216  1  0.035542  0  -0.070902  -0.12653  0  3.928633  0
C  C41  1  0.00306030  0.26842298  0.79439507  1  -0.020304  0  0.015647  -0.020555  0  3.916205  0
C  C42  1  0.99693869  0.73157958  0.20560412  1  -0.019885  0  0.015668  -0.020532  0  3.916207  0
C  C43  1  0.62945847  0.00294574  0.45140411  1  0.037676  0  -0.065332  -0.104686  0  3.915666  0
C  C44  1  0.37054344  0.99704752  0.54859530  1  0.037728  0  -0.065223  -0.104648  0  3.915685  0
C  C45  1  0.61959958  0.87516250  0.50740130  1  -0.039306  0  0.008359  -0.010876  0  3.917064  0
C  C46  1  0.38040233  0.12483073  0.49260034  1  -0.039747  0  0.008347  -0.010815  0  3.917067  0
C  C47  1  0.48815860  0.87211081  0.55706257  1  0.000381  0  0.005628  -0.062013  0  3.95306  0
C  C48  1  0.51184201  0.12788556  0.44293608  1  0.000557  0  0.005696  -0.06183  0  3.95283  0
C  C49  1  0.85671167  0.46617965  0.86388660  1  1.518283  0  0.210865  0.569286  0  4.18982  0
C  C50  1  0.14329121  0.53382292  0.13611493  1  1.518419  0  0.210937  0.569373  0  4.189847  0
C  C51  1  0.36041763  0.19102223  0.95634880  1  1.572409  0  0.254573  0.660269  0  4.10581  0
C  C52  1  0.63958363  0.80897725  0.04365026  1  1.572456  0  0.254563  0.660183  0  4.105647  0
C  C53  1  0.39715703  0.05160711  0.79281927  1  1.629173  0  0.248017  0.663362  0  4.149111  0
C  C54  1  0.60283893  0.94839333  0.20718254  1  1.629439  0  0.247953  0.663194  0  4.149376  0
C  C55  1  0.88304046  0.29435989  0.73300296  1  1.636234  0  0.255185  0.67381  0  4.101343  0
C  C56  1  0.11695896  0.70564160  0.26700020  1  1.636149  0  0.255252  0.673917  0  4.101173  0
C  C57  1  0.46747339  0.74050414  0.62348343  1  1.605643  0  0.250328  0.636896  0  4.139304  0
C  C58  1  0.53252106  0.25949527  0.37651671  1  1.60564  0  0.250292  0.636758  0  4.139537  0
C  C59  1  0.74942558  0.74609165  0.51118711  1  1.55587  0  0.210252  0.565985  0  4.212745  0
C  C60  1  0.25057893  0.25390472  0.48881389  1  1.556018  0  0.210208  0.565898  0  4.213118  0
O  O61  1  0.52756602  0.63476380  0.95626813  1  -0.884317  0  -0.745802  -0.70253  0  1.849348  0
O  O62  1  0.47242994  0.36523665  0.04373293  1  -0.884241  0  -0.745809  -0.702487  0  1.849329  0
O  O63  1  0.71136628  0.80219610  0.72756375  1  -0.854285  0  -0.758074  -0.692682  0  1.81475  0
O  O64  1  0.28863066  0.19780438  0.27243567  1  -0.854298  0  -0.757998  -0.692646  0  1.814601  0
O  O65  1  0.08540570  0.48817296  0.61023051  1  -0.890787  0  -0.749221  -0.717807  0  1.862134  0
O  O66  1  0.91459588  0.51182340  0.38976947  1  -0.890817  0  -0.74921  -0.717807  0  1.862298  0
O  O67  1  0.84502837  0.54193691  0.91799987  1  -1.128247  0  -0.341094  -0.575914  0  2.17  0
O  O68  1  0.15497018  0.45806664  0.08200352  1  -1.128094  0  -0.341141  -0.575976  0  2.170195  0
O  O69  1  0.75447843  0.50097007  0.80636194  1  -1.122673  0  -0.337506  -0.564437  0  2.285081  0
O  O70  1  0.24552597  0.49903356  0.19363903  1  -1.122858  0  -0.337538  -0.564493  0  2.285134  0
O  O71  1  0.79544834  0.23967026  0.78092347  1  -1.187363  0  -0.374602  -0.643739  0  2.278558  0
O  O72  1  0.20455303  0.76033125  0.21907863  1  -1.187349  0  -0.374631  -0.643767  0  2.278478  0
O  O73  1  0.88249966  0.36180812  0.63251608  1  -1.157743  0  -0.34127  -0.597713  0  2.370117  0
O  O74  1  0.11750376  0.63818615  0.36748648  1  -1.157715  0  -0.341292  -0.597797  0  2.370063  0
O  O75  1  0.41331811  0.92628284  0.81481267  1  -1.157518  0  -0.369489  -0.626236  0  2.2729  0
O  O76  1  0.58668034  0.07371865  0.18518915  1  -1.157852  0  -0.369506  -0.626165  0  2.272908  0
O  O77  1  0.48795610  0.10077632  0.74235060  1  -1.187665  0  -0.37514  -0.660516  0  2.329179  0
O  O78  1  0.51204051  0.89922725  0.25764938  1  -1.187717  0  -0.3751  -0.660429  0  2.329382  0
O  O79  1  0.48112968  0.17943219  0.91226406  1  -1.186001  0  -0.368243  -0.632714  0  2.334193  0
O  O80  1  0.51887158  0.82056727  0.08773648  1  -1.185962  0  -0.368243  -0.632679  0  2.334099  0
O  O81  1  0.33070833  0.18376898  0.05614532  1  -1.171236  0  -0.371312  -0.636688  0  2.354565  0
O  O82  1  0.66929390  0.81623051  0.94385358  1  -1.171184  0  -0.371303  -0.636641  0  2.354529  0
O  O83  1  0.49592372  0.69021987  0.72289519  1  -1.171196  0  -0.352356  -0.615749  0  2.329795  0
O  O84  1  0.50407505  0.30977855  0.27710459  1  -1.171064  0  -0.352337  -0.615711  0  2.329916  0
O  O85  1  0.41451427  0.68952453  0.58261367  1  -1.189996  0  -0.281542  -0.524666  0  2.176903  0
O  O86  1  0.58547628  0.31047483  0.41738784  1  -1.190033  0  -0.281541  -0.524648  0  2.176971  0
O  O87  1  0.74158660  0.62814030  0.55273937  1  -1.138132  0  -0.321313  -0.573527  0  2.269227  0
O  O88  1  0.25841531  0.37185291  0.44726376  1  -1.138155  0  -0.321281  -0.573451  0  2.269435  0
O  O89  1  0.86877697  0.75285514  0.47009290  1  -1.131078  0  -0.339885  -0.580865  0  2.204522  0
O  O90  1  0.13122678  0.24713603  0.52990910  1  -1.131026  0  -0.339902  -0.580896  0  2.204556  0
O  O91  1  0.70052329  0.16178861  0.60749584  1  -1.261347  0  -0.65219  -0.848107  0  2.054893  0
O  O92  1  0.29947657  0.83821190  0.39250311  1  -1.261385  0  -0.65223  -0.848121  0  2.054962  0
O  O93  1  0.61335864  0.42378128  0.59899329  1  -1.272195  0  -0.659787  -0.852808  0  2.09736  0
O  O94  1  0.38664067  0.57621824  0.40100161  1  -1.272288  0  -0.659865  -0.852914  0  2.097417  0
O  O95  1  0.35666431  0.40876005  0.67660401  1  -1.263683  0  -0.63135  -0.861945  0  2.037757  0
O  O96  1  0.64333706  0.59124151  0.32339438  1  -1.263673  0  -0.631349  -0.861959  0  2.037709  0
O  O97  1  0.50487128  0.42231803  0.82054312  1  -1.263939  0  -0.651806  -0.888041  0  2.074573  0
O  O98  1  0.49513052  0.57768249  0.17945552  1  -1.263934  0  -0.651806  -0.888042  0  2.074545  0
O  O99  1  0.74919490  0.02393180  0.82507656  1  -1.249454  0  -0.637603  -0.846598  0  2.081646  0
O  O100  1  0.25080495  0.97606871  0.17492240  1  -1.249538  0  -0.637606  -0.84659  0  2.081722  0
