# generated using pymatgen
data_CdH17C25(NO)5
_symmetry_space_group_name_H-M   'P 1'
_cell_length_a   12.43345790
_cell_length_b   15.81016202
_cell_length_c   16.04520176
_cell_angle_alpha   113.49855942
_cell_angle_beta   89.96933829
_cell_angle_gamma   113.12705828
_symmetry_Int_Tables_number   1
_chemical_formula_structural   CdH17C25(NO)5
_chemical_formula_sum   'Cd4 H68 C100 N20 O20'
_cell_volume   2614.11736353
_cell_formula_units_Z   4
loop_
 _symmetry_equiv_pos_site_id
 _symmetry_equiv_pos_as_xyz
  1  'x, y, z'
loop_
 _atom_site_type_symbol
 _atom_site_label
 _atom_site_symmetry_multiplicity
 _atom_site_fract_x
 _atom_site_fract_y
 _atom_site_fract_z
 _atom_site_occupancy
 _atom_site_pbe_bader_charge
 _atom_site_pbe_bader_spin_density
 _atom_site_pbe_cm5_charge
 _atom_site_pbe_ddec_charge
 _atom_site_pbe_ddec_spin_density
 _atom_site_pbe_ddec_sum_bond_order
 _atom_site_pbe_magmom
Cd  Cd0  1  0.43587164  0.85529248  0.99118935  1  1.268335  0  0.778801  0.893351  0  2.148607  0
Cd  Cd1  1  0.57993662  0.14389133  0.50852074  1  1.267971  0  0.778573  0.893349  0  2.150104  0
Cd  Cd2  1  0.56412064  0.14471243  0.00881292  1  1.268373  0  0.778776  0.893305  0  2.148538  0
Cd  Cd3  1  0.42005904  0.85608170  0.49147876  1  1.267662  0  0.778561  0.893229  0  2.150246  0
H  H4  1  0.52518897  0.69617057  0.82159916  1  0.175458  0  0.140376  0.11366  0  0.992029  0
H  H5  1  0.82789037  0.30353723  0.67816817  1  0.16377  0  0.140286  0.113673  0  0.991456  0
H  H6  1  0.47480382  0.30383536  0.17841721  1  0.175228  0  0.140396  0.113722  0  0.992048  0
H  H7  1  0.17211537  0.69646243  0.32183709  1  0.163684  0  0.140359  0.113751  0  0.991416  0
H  H8  1  0.45379908  0.93544630  0.81982519  1  0.144114  0  0.125804  0.133543  0  1.001301  0
H  H9  1  0.51808340  0.06390360  0.68017787  1  0.151083  0  0.125589  0.132973  0  1.002349  0
H  H10  1  0.54619532  0.06455480  0.18017626  1  0.144247  0  0.125784  0.133532  0  1.001292  0
H  H11  1  0.48192220  0.93610059  0.31982662  1  0.151005  0  0.125588  0.132974  0  1.0023  0
H  H12  1  0.54954472  0.86399260  0.66500195  1  0.204886  0  0.124382  0.14088  0  1.073953  0
H  H13  1  0.68520642  0.13571554  0.83492731  1  0.208074  0  0.12407  0.14036  0  1.074187  0
H  H14  1  0.45045575  0.13600939  0.33500669  1  0.204794  0  0.124398  0.140948  0  1.07371  0
H  H15  1  0.31480054  0.86428495  0.16508200  1  0.208244  0  0.124117  0.1405  0  1.074178  0
H  H16  1  0.70773258  0.51878091  0.48336220  1  0.07747  0  0.115308  0.133615  0  0.986397  0
H  H17  1  0.18786245  0.48037528  0.01612754  1  0.068477  0  0.11514  0.13376  0  0.987229  0
H  H18  1  0.29226638  0.48121645  0.51664156  1  0.077313  0  0.115321  0.133612  0  0.986378  0
H  H19  1  0.81214673  0.51962802  0.98386976  1  0.068475  0  0.115143  0.133724  0  0.987258  0
H  H20  1  0.74878678  0.68586161  0.48130178  1  0.119557  0  0.112972  0.11027  0  0.986817  0
H  H21  1  0.06140528  0.31350491  0.01842413  1  0.116928  0  0.113029  0.109744  0  0.987439  0
H  H22  1  0.25120976  0.31413734  0.51870633  1  0.119599  0  0.112967  0.110331  0  0.986742  0
H  H23  1  0.93859985  0.68650316  0.98158558  1  0.116542  0  0.113025  0.109732  0  0.987489  0
H  H24  1  0.67228043  0.80284422  0.59249255  1  0.162709  0  0.113541  0.145978  0  1.035729  0
H  H25  1  0.86797941  0.19698610  0.90743817  1  0.165487  0  0.113423  0.145863  0  1.035315  0
H  H26  1  0.32771849  0.19715466  0.40751179  1  0.16252  0  0.113545  0.146097  0  1.035619  0
H  H27  1  0.13201848  0.80302199  0.09257216  1  0.165463  0  0.113454  0.145906  0  1.035212  0
H  H28  1  0.46164614  0.46590465  0.69965335  1  0.149773  0  0.126477  0.128752  0  1.009238  0
H  H29  1  0.99571432  0.53378929  0.79993052  1  0.166419  0  0.126578  0.129002  0  1.010534  0
H  H30  1  0.53834236  0.53409107  0.30034356  1  0.149531  0  0.126525  0.128848  0  1.009183  0
H  H31  1  0.00428815  0.46621187  0.20007407  1  0.166296  0  0.126615  0.129003  0  1.010595  0
H  H32  1  0.68521334  0.38627971  0.51197870  1  0.155038  0  0.135875  0.111813  0  1.007173  0
H  H33  1  0.29816329  0.61271614  0.98758815  1  0.169402  0  0.135807  0.111123  0  1.007724  0
H  H34  1  0.31478178  0.61371157  0.48802400  1  0.15538  0  0.135885  0.111794  0  1.0073  0
H  H35  1  0.70184036  0.38728417  0.01241112  1  0.169409  0  0.135771  0.111116  0  1.007656  0
H  H36  1  0.28236261  0.09294242  0.96158345  1  0.110812  0  0.105643  0.109918  0  1.029012  0
H  H37  1  0.18895826  0.90674207  0.53836510  1  0.072826  0  0.105613  0.109966  0  1.028442  0
H  H38  1  0.71764833  0.90705960  0.03842707  1  0.110555  0  0.105625  0.109857  0  1.028869  0
H  H39  1  0.81101786  0.09325142  0.46163408  1  0.072639  0  0.105563  0.109887  0  1.028416  0
H  H40  1  0.18208808  0.21005496  0.01838167  1  0.064322  0  0.105606  0.120799  0  0.998959  0
H  H41  1  0.97178389  0.78965119  0.48155505  1  0.078523  0  0.105537  0.120387  0  0.998974  0
H  H42  1  0.81792597  0.78994844  0.98162127  1  0.064269  0  0.105604  0.120795  0  0.99895  0
H  H43  1  0.02819182  0.21033502  0.51841955  1  0.078478  0  0.10553  0.120401  0  0.999004  0
H  H44  1  0.08559481  0.11317083  0.23464436  1  0.085397  0  0.103796  0.120328  0  1.010505  0
H  H45  1  0.97230272  0.88647511  0.26528200  1  0.081434  0  0.103255  0.119498  0  1.01036  0
H  H46  1  0.91439727  0.88682723  0.76535656  1  0.085348  0  0.10379  0.120303  0  1.010399  0
H  H47  1  0.02770526  0.11353865  0.73470743  1  0.081489  0  0.103225  0.119526  0  1.01053  0
H  H48  1  0.18430635  0.99579714  0.17564499  1  0.086528  0  0.102117  0.102518  0  1.019058  0
H  H49  1  0.18822209  0.00387343  0.32425849  1  0.068383  0  0.10204  0.101854  0  1.020205  0
H  H50  1  0.81568020  0.00419629  0.82435105  1  0.086439  0  0.10213  0.102536  0  1.019171  0
H  H51  1  0.81178855  0.99613441  0.67573866  1  0.068384  0  0.101987  0.101794  0  1.020362  0
H  H52  1  0.11266082  0.37604830  0.32803409  1  0.075991  0  0.101001  0.116177  0  1.006738  0
H  H53  1  0.73699010  0.62347764  0.17182212  1  0.079386  0  0.101002  0.116274  0  1.007427  0
H  H54  1  0.88735265  0.62394749  0.67196720  1  0.076068  0  0.101052  0.116245  0  1.006742  0
H  H55  1  0.26301872  0.37651687  0.82815127  1  0.078824  0  0.100988  0.116291  0  1.007461  0
H  H56  1  0.96586144  0.36115370  0.43660848  1  0.090622  0  0.101877  0.10626  0  1.004145  0
H  H57  1  0.60468434  0.63789508  0.06330181  1  0.083393  0  0.101639  0.106757  0  1.004319  0
H  H58  1  0.03415124  0.63884214  0.56339533  1  0.09073  0  0.101879  0.106249  0  1.004143  0
H  H59  1  0.39531865  0.36210871  0.93668134  1  0.083448  0  0.101668  0.106786  0  1.004349  0
H  H60  1  0.72746850  0.06600018  0.22788406  1  0.122278  0  0.108256  0.116316  0  1.022514  0
H  H61  1  0.66134904  0.93346985  0.27146511  1  0.12253  0  0.108128  0.116241  0  1.023805  0
H  H62  1  0.27253819  0.93399493  0.77212134  1  0.122082  0  0.108276  0.116393  0  1.022402  0
H  H63  1  0.33863470  0.06652278  0.72852876  1  0.122091  0  0.108161  0.116329  0  1.023725  0
H  H64  1  0.87285901  0.07987236  0.12114984  1  0.087129  0  0.104404  0.120529  0  1.030548  0
H  H65  1  0.79289777  0.91990066  0.37832037  1  0.104821  0  0.104577  0.120505  0  1.030295  0
H  H66  1  0.12714273  0.92012572  0.87885233  1  0.087109  0  0.104383  0.120476  0  1.030597  0
H  H67  1  0.20709961  0.08009029  0.62166475  1  0.10501  0  0.104575  0.120521  0  1.030186  0
H  H68  1  0.44022157  0.27161068  0.66374357  1  0.130656  0  0.114576  0.111372  0  1.034475  0
H  H69  1  0.16886046  0.72787192  0.83581152  1  0.121091  0  0.114775  0.111626  0  1.034352  0
H  H70  1  0.55977376  0.72838746  0.33626111  1  0.130759  0  0.114597  0.111409  0  1.034508  0
H  H71  1  0.83112747  0.27213395  0.16420109  1  0.121243  0  0.114781  0.111613  0  1.034367  0
C  C72  1  0.51620790  0.75058253  0.80062004  1  0.967962  0  0.145534  0.109177  0  3.904922  0
C  C73  1  0.76465869  0.24916009  0.69924851  1  0.94798  0  0.14679  0.110409  0  3.904518  0
C  C74  1  0.48379402  0.24942235  0.19938097  1  0.96781  0  0.145527  0.109113  0  3.904571  0
C  C75  1  0.23533820  0.75083795  0.30075115  1  0.948032  0  0.14675  0.110346  0  3.904525  0
C  C76  1  0.48284904  0.87486741  0.79680728  1  0.426127  0  0.004994  -0.007722  0  3.948876  0
C  C77  1  0.60756513  0.12460131  0.70308846  1  0.467014  0  0.005778  -0.006439  0  3.94869  0
C  C78  1  0.51714328  0.12513596  0.20319378  1  0.425826  0  0.004937  -0.007834  0  3.948818  0
C  C79  1  0.39243779  0.87539913  0.29691834  1  0.466654  0  0.005893  -0.006295  0  3.948889  0
C  C80  1  0.52932346  0.84003704  0.71985714  1  0.249502  0  0.00232  -0.091662  0  3.860621  0
C  C81  1  0.68885581  0.15956874  0.77999178  1  0.202056  0  0.002743  -0.091194  0  3.861352  0
C  C82  1  0.47067225  0.15996184  0.28014720  1  0.249449  0  0.002351  -0.091692  0  3.860661  0
C  C83  1  0.31115217  0.84043701  0.22001517  1  0.202369  0  0.002589  -0.091487  0  3.861566  0
C  C84  1  0.59617247  0.69956505  0.65674917  1  0.866355  0  0.232069  0.332042  0  4.047647  0
C  C85  1  0.89562935  0.30022806  0.84309086  1  0.87125  0  0.231989  0.330801  0  4.049623  0
C  C86  1  0.40383032  0.30044156  0.34326309  1  0.867205  0  0.232014  0.332083  0  4.047381  0
C  C87  1  0.10437503  0.69977529  0.15690957  1  0.871199  0  0.231929  0.330767  0  4.049553  0
C  C88  1  0.61428485  0.54917527  0.59899860  1  0.913025  0  0.226537  0.324371  0  4.069473  0
C  C89  1  0.06428585  0.45028075  0.90068211  1  0.914431  0  0.226222  0.322867  0  4.067966  0
C  C90  1  0.38570975  0.45081979  0.40100366  1  0.915791  0  0.226554  0.324272  0  4.069731  0
C  C91  1  0.93571980  0.54972032  0.09931745  1  0.914356  0  0.226132  0.322756  0  4.067975  0
C  C92  1  0.67841752  0.57198694  0.53319773  1  0.003318  0  -0.094608  -0.239201  0  3.971938  0
C  C93  1  0.10533826  0.42736028  0.96646768  1  0.018204  0  -0.094303  -0.239712  0  3.974917  0
C  C94  1  0.32158252  0.42801578  0.46680932  1  0.0027  0  -0.094567  -0.239071  0  3.971795  0
C  C95  1  0.89466741  0.57264083  0.03353439  1  0.018266  0  -0.094255  -0.239602  0  3.974753  0
C  C96  1  0.70035915  0.66505084  0.53199441  1  -0.085913  0  -0.063946  0.0054  0  3.987027  0
C  C97  1  0.03398233  0.33447988  0.96781590  1  -0.076688  0  -0.063613  0.007582  0  3.988113  0
C  C98  1  0.29964244  0.33495500  0.46801757  1  -0.085633  0  -0.063999  0.005324  0  3.987114  0
C  C99  1  0.96602716  0.66552888  0.03218970  1  -0.076415  0  -0.06358  0.00761  0  3.988157  0
C  C100  1  0.65888933  0.73112920  0.59421124  1  0.075745  0  -0.087709  -0.219356  0  3.908381  0
C  C101  1  0.92645373  0.26865771  0.90572848  1  0.048653  0  -0.088595  -0.220894  0  3.908992  0
C  C102  1  0.34111304  0.26887820  0.40580257  1  0.075347  0  -0.087612  -0.219508  0  3.908402  0
C  C103  1  0.07354788  0.73134494  0.09427481  1  0.048614  0  -0.088657  -0.221003  0  3.909112  0
C  C104  1  0.50296623  0.41994635  0.65615467  1  0.30669  0  0.000249  -0.097544  0  3.923208  0
C  C105  1  0.08290507  0.57958942  0.84340428  1  0.256171  0  0.000112  -0.098316  0  3.923466  0
C  C106  1  0.49701763  0.58004170  0.34383745  1  0.307209  0  0.000123  -0.097747  0  3.923363  0
C  C107  1  0.91709805  0.42041786  0.15660325  1  0.255987  0  7.5e-05  -0.098298  0  3.923412  0
C  C108  1  0.61930557  0.38036192  0.55621018  1  0.969904  0  0.142488  0.102583  0  3.902612  0
C  C109  1  0.23846496  0.61876295  0.94328855  1  0.972381  0  0.14301  0.103774  0  3.901172  0
C  C110  1  0.38068619  0.61963388  0.44379112  1  0.969377  0  0.142499  0.1026  0  3.902737  0
C  C111  1  0.76153866  0.38123891  0.05671256  1  0.972772  0  0.143026  0.103733  0  3.901212  0
C  C112  1  0.30250406  0.97031565  0.03410045  1  1.497762  0  0.19014  0.556325  0  4.235709  0
C  C113  1  0.33160963  0.02952358  0.46557513  1  1.520763  0  0.191228  0.557011  0  4.237155  0
C  C114  1  0.69749783  0.02969238  0.96590675  1  1.497624  0  0.190408  0.556829  0  4.235154  0
C  C115  1  0.66838843  0.97047519  0.53442294  1  1.520704  0  0.191185  0.556829  0  4.237237  0
C  C116  1  0.23818789  0.03635330  0.06454736  1  0.004788  0  -0.032447  -0.069369  0  4.016536  0
C  C117  1  0.20144150  0.96330547  0.43533390  1  0.034279  0  -0.033635  -0.071422  0  4.018281  0
C  C118  1  0.76181643  0.96365478  0.93546298  1  0.005102  0  -0.032577  -0.069693  0  4.016473  0
C  C119  1  0.79856184  0.03668936  0.56465644  1  0.0341  0  -0.033577  -0.071255  0  4.017998  0
C  C120  1  0.23778762  0.09722387  0.02058742  1  -0.021011  0  -0.083106  -0.072718  0  3.991993  0
C  C121  1  0.14027385  0.90238787  0.47927571  1  -0.016421  0  -0.082843  -0.072619  0  3.991933  0
C  C122  1  0.76221880  0.90278034  0.97941833  1  -0.020206  0  -0.083083  -0.072524  0  3.991618  0
C  C123  1  0.85972100  0.09760767  0.52071178  1  -0.016653  0  -0.082746  -0.072536  0  3.991839  0
C  C124  1  0.18254860  0.16241497  0.05208823  1  -0.010827  0  -0.103805  -0.202359  0  3.984715  0
C  C125  1  0.01992531  0.83716617  0.44776745  1  -0.002392  0  -0.10344  -0.200957  0  3.985781  0
C  C126  1  0.81746338  0.83759073  0.94791621  1  -0.011581  0  -0.103854  -0.20241  0  3.984685  0
C  C127  1  0.98006741  0.16283317  0.55222023  1  -0.001802  0  -0.103536  -0.201142  0  3.985921  0
C  C128  1  0.12818549  0.16813597  0.12934924  1  0.374355  0  0.08779  0.273934  0  4.035037  0
C  C129  1  0.95992084  0.83147931  0.37053486  1  0.35717  0  0.08731  0.272736  0  4.037967  0
C  C130  1  0.87182291  0.83186899  0.87065617  1  0.37476  0  0.087871  0.273932  0  4.035128  0
C  C131  1  0.04007820  0.16852300  0.62945022  1  0.356376  0  0.087488  0.273173  0  4.03753  0
C  C132  1  0.12743357  0.10787029  0.17423006  1  0.00166  0  -0.111715  -0.223244  0  4.012614  0
C  C133  1  0.01939345  0.89174897  0.32565609  1  -0.046753  0  -0.11122  -0.22183  0  4.012473  0
C  C134  1  0.87256567  0.89213246  0.82577825  1  0.001767  0  -0.111723  -0.223191  0  4.012433  0
C  C135  1  0.98061071  0.10825877  0.67433541  1  -0.046494  0  -0.111326  -0.222185  0  4.012948  0
C  C136  1  0.18191161  0.04212087  0.14101803  1  -0.05694  0  -0.085538  -0.066681  0  3.995677  0
C  C137  1  0.13947961  0.95748008  0.35883348  1  0.000813  0  -0.084893  -0.065373  0  3.994628  0
C  C138  1  0.81808638  0.95788258  0.85898743  1  -0.057355  0  -0.085512  -0.066671  0  3.995717  0
C  C139  1  0.86052557  0.04252165  0.64116135  1  0.001107  0  -0.084886  -0.06529  0  3.994872  0
C  C140  1  0.00023137  0.22844996  0.21986473  1  0.388071  0  0.079047  0.247316  0  4.060098  0
C  C141  1  0.77192551  0.77120326  0.27986841  1  0.330605  0  0.079328  0.249272  0  4.057856  0
C  C142  1  0.99976869  0.77154959  0.78013488  1  0.388036  0  0.079043  0.247354  0  4.060092  0
C  C143  1  0.22807462  0.22878837  0.72011260  1  0.33058  0  0.079207  0.249119  0  4.058287  0
C  C144  1  0.02777340  0.30902110  0.30746230  1  -0.046652  0  -0.105164  -0.203845  0  4.010799  0
C  C145  1  0.71905222  0.69051548  0.19235145  1  0.02578  0  -0.105267  -0.204278  0  4.011562  0
C  C146  1  0.97223360  0.69097625  0.69254083  1  -0.046543  0  -0.105321  -0.204033  0  4.010917  0
C  C147  1  0.28094746  0.30947686  0.80762734  1  0.02604  0  -0.105208  -0.204293  0  4.011757  0
C  C148  1  0.94654428  0.30055329  0.36703600  1  -0.078067  0  -0.086828  -0.07889  0  3.992964  0
C  C149  1  0.64614153  0.69875081  0.13273239  1  -0.089925  0  -0.086413  -0.079486  0  3.994921  0
C  C150  1  0.05346158  0.69944177  0.63296689  1  -0.078282  0  -0.086769  -0.078829  0  3.992848  0
C  C151  1  0.35385689  0.30124544  0.86725288  1  -0.089217  0  -0.086366  -0.07943  0  3.994703  0
C  C152  1  0.83867905  0.21278886  0.33938159  1  -0.003095  0  -0.024824  -0.04715  0  3.975986  0
C  C153  1  0.62588040  0.78649202  0.16019214  1  -0.006286  0  -0.02472  -0.047025  0  3.976345  0
C  C154  1  0.16132214  0.78721293  0.66061638  1  -0.003235  0  -0.024852  -0.047238  0  3.975914  0
C  C155  1  0.37411246  0.21350277  0.83979569  1  -0.005824  0  -0.024696  -0.04694  0  3.976709  0
C  C156  1  0.81195258  0.13355736  0.25020888  1  -0.027788  0  -0.077991  -0.067198  0  3.948911  0
C  C157  1  0.67836676  0.86590925  0.24925869  1  -0.067851  0  -0.078071  -0.066846  0  3.947276  0
C  C158  1  0.18805388  0.86644374  0.74979257  1  -0.027486  0  -0.077968  -0.067179  0  3.948787  0
C  C159  1  0.32162806  0.13408945  0.75073562  1  -0.067651  0  -0.078134  -0.067142  0  3.947506  0
C  C160  1  0.89254051  0.14106640  0.19033836  1  -0.013201  0  -0.09948  -0.197067  0  3.98232  0
C  C161  1  0.75145240  0.85855052  0.30919795  1  0.019473  0  -0.099712  -0.198224  0  3.98113  0
C  C162  1  0.10746160  0.85893242  0.80966221  1  -0.013253  0  -0.099511  -0.197081  0  3.982426  0
C  C163  1  0.24854614  0.14144113  0.69078432  1  0.018985  0  -0.099634  -0.197961  0  3.980933  0
C  C164  1  0.75508170  0.20362091  0.40621264  1  1.555698  0  0.184568  0.544745  0  4.265653  0
C  C165  1  0.55113716  0.79529282  0.09331807  1  1.554086  0  0.183831  0.543786  0  4.268447  0
C  C166  1  0.24491811  0.79637490  0.59378992  1  1.555267  0  0.184537  0.54496  0  4.265413  0
C  C167  1  0.44885589  0.20469590  0.90666932  1  1.555621  0  0.183746  0.543699  0  4.268686  0
C  C168  1  0.49395806  0.32476764  0.63735561  1  0.384046  0  0.001079  -0.017468  0  3.990185  0
C  C169  1  0.16924047  0.67464494  0.86217654  1  0.42179  0  0.000379  -0.018664  0  3.991751  0
C  C170  1  0.50604166  0.67522961  0.36264251  1  0.383746  0  0.001101  -0.017437  0  3.990192  0
C  C171  1  0.83075543  0.32536239  0.13783351  1  0.421571  0  0.000443  -0.01857  0  3.991647  0
N  N172  1  0.47623647  0.81910059  0.84640000  1  -1.220332  0  -0.35433  -0.289261  0  3.552501  0
N  N173  1  0.65638953  0.18046937  0.65352606  1  -1.187868  0  -0.355637  -0.291504  0  3.555797  0
N  N174  1  0.52375741  0.18090591  0.15360599  1  -1.219633  0  -0.354277  -0.289197  0  3.552502  0
N  N175  1  0.34360738  0.81952870  0.34647548  1  -1.187919  0  -0.355662  -0.291514  0  3.555919  0
N  N176  1  0.54969394  0.76046881  0.72233872  1  -1.258312  0  -0.221525  -0.026927  0  3.781714  0
N  N177  1  0.78843108  0.23933014  0.77751625  1  -1.258184  0  -0.22222  -0.026304  0  3.781674  0
N  N178  1  0.45030550  0.23952789  0.27767040  1  -1.258164  0  -0.221555  -0.026834  0  3.781378  0
N  N179  1  0.21157174  0.76067170  0.22248423  1  -1.25815  0  -0.22219  -0.026203  0  3.781453  0
N  N180  1  0.57440443  0.61120170  0.65957963  1  -1.23725  0  -0.317078  -0.406809  0  3.321192  0
N  N181  1  0.96242614  0.38848723  0.84017962  1  -1.242463  0  -0.316685  -0.40539  0  3.319537  0
N  N182  1  0.42559721  0.38880262  0.34043177  1  -1.23988  0  -0.317178  -0.406951  0  3.321539  0
N  N183  1  0.03757820  0.61151767  0.15982265  1  -1.242448  0  -0.316614  -0.405331  0  3.319479  0
N  N184  1  0.58304420  0.45519359  0.60399617  1  -1.262964  0  -0.223784  -0.02943  0  3.786007  0
N  N185  1  0.12738910  0.54414682  0.89554855  1  -1.26845  0  -0.223776  -0.028429  0  3.782463  0
N  N186  1  0.41695038  0.54480143  0.39600422  1  -1.263453  0  -0.2237  -0.029263  0  3.786115  0
N  N187  1  0.87261221  0.45585040  0.10444830  1  -1.268147  0  -0.223801  -0.028456  0  3.782615  0
N  N188  1  0.56672663  0.30148895  0.57544924  1  -1.193499  0  -0.344095  -0.27799  0  3.507868  0
N  N189  1  0.26507009  0.69769320  0.92405736  1  -1.195832  0  -0.344617  -0.278721  0  3.506685  0
N  N190  1  0.43327329  0.69850227  0.42455032  1  -1.192828  0  -0.344103  -0.277973  0  3.508244  0
N  N191  1  0.73492705  0.30231339  0.07595365  1  -1.195931  0  -0.344648  -0.278759  0  3.506701  0
O  O192  1  0.37214093  0.97931892  0.97622833  1  -1.165299  0  -0.329781  -0.565973  0  2.262954  0
O  O193  1  0.39261514  0.02054126  0.52322782  1  -1.179985  0  -0.33075  -0.566057  0  2.26637  0
O  O194  1  0.62786573  0.02069061  0.02377819  1  -1.165346  0  -0.329862  -0.566081  0  2.262699  0
O  O195  1  0.60738094  0.97945677  0.47677121  1  -1.17997  0  -0.330695  -0.565937  0  2.266398  0
O  O196  1  0.28801658  0.90688600  0.06802496  1  -1.174288  0  -0.325565  -0.565024  0  2.28021  0
O  O197  1  0.38006857  0.09308410  0.43176935  1  -1.17524  0  -0.325588  -0.565158  0  2.278764  0
O  O198  1  0.71200005  0.09312739  0.93198552  1  -1.174136  0  -0.325659  -0.565181  0  2.279914  0
O  O199  1  0.61992516  0.90691082  0.56822538  1  -1.17525  0  -0.325592  -0.565077  0  2.278815  0
O  O200  1  0.08090560  0.23866674  0.16016737  1  -1.103178  0  -0.162299  -0.231713  0  2.537974  0
O  O201  1  0.84223685  0.76104973  0.33966804  1  -1.105164  0  -0.162051  -0.232037  0  2.538258  0
O  O202  1  0.91909644  0.76133354  0.83983064  1  -1.103112  0  -0.162277  -0.231703  0  2.538102  0
O  O203  1  0.15777308  0.23894864  0.66030867  1  -1.105134  0  -0.162053  -0.232145  0  2.537853  0
O  O204  1  0.66018032  0.11906531  0.37890926  1  -1.142536  0  -0.332719  -0.550796  0  2.236966  0
O  O205  1  0.54106675  0.88000240  0.12034099  1  -1.145199  0  -0.332423  -0.549758  0  2.239346  0
O  O206  1  0.33981088  0.88093582  0.62109345  1  -1.142009  0  -0.33269  -0.550914  0  2.236882  0
O  O207  1  0.45891881  0.11998260  0.87964997  1  -1.145434  0  -0.332354  -0.549707  0  2.239284  0
O  O208  1  0.78166918  0.27630847  0.48601943  1  -1.192719  0  -0.34833  -0.585809  0  2.130897  0
O  O209  1  0.50452312  0.72219679  0.01381204  1  -1.190358  0  -0.34831  -0.585395  0  2.130679  0
O  O210  1  0.21833029  0.72369633  0.51397719  1  -1.192748  0  -0.348276  -0.585823  0  2.130889  0
O  O211  1  0.49547386  0.27779336  0.98617091  1  -1.191806  0  -0.34829  -0.585343  0  2.130874  0
