# generated using pymatgen
data_ZnH16C26(NO4)2
_symmetry_space_group_name_H-M   'P 1'
_cell_length_a   10.23616563
_cell_length_b   12.34382644
_cell_length_c   12.09684543
_cell_angle_alpha   102.46297529
_cell_angle_beta   95.14188159
_cell_angle_gamma   121.57396506
_symmetry_Int_Tables_number   1
_chemical_formula_structural   ZnH16C26(NO4)2
_chemical_formula_sum   'Zn2 H32 C52 N4 O16'
_cell_volume   1233.23144119
_cell_formula_units_Z   2
loop_
 _symmetry_equiv_pos_site_id
 _symmetry_equiv_pos_as_xyz
  1  'x, y, z'
loop_
 _atom_site_type_symbol
 _atom_site_label
 _atom_site_symmetry_multiplicity
 _atom_site_fract_x
 _atom_site_fract_y
 _atom_site_fract_z
 _atom_site_occupancy
 _atom_site_pbe_bader_charge
 _atom_site_pbe_bader_spin_density
 _atom_site_pbe_cm5_charge
 _atom_site_pbe_ddec_charge
 _atom_site_pbe_ddec_spin_density
 _atom_site_pbe_ddec_sum_bond_order
 _atom_site_pbe_magmom
Zn  Zn0  1  0.83366735  0.88470334  0.28337695  1  1.251836  0  0.702577  0.768214  0  2.371716  0
Zn  Zn1  1  0.16632916  0.11528515  0.71662232  1  1.251831  0  0.702572  0.768212  0  2.371639  0
H  H2  1  0.03649154  0.76768002  0.79275760  1  0.661503  0  0.302232  0.371765  0  0.967796  0
H  H3  1  0.96354714  0.23233717  0.20724359  1  0.661891  0  0.302252  0.371853  0  0.967775  0
H  H4  1  0.62036584  0.16416100  0.34923735  1  0.618706  0  0.334052  0.367145  0  0.87836  0
H  H5  1  0.37962791  0.83583292  0.65076192  1  0.618774  0  0.334085  0.367205  0  0.878309  0
H  H6  1  0.22331215  0.65363280  0.92785290  1  0.08782  0  0.1057  0.108693  0  1.009107  0
H  H7  1  0.77672272  0.34638625  0.07215415  1  0.08769  0  0.105704  0.108693  0  1.009129  0
H  H8  1  0.29651758  0.55938166  0.06364501  1  0.087225  0  0.103851  0.112148  0  0.991561  0
H  H9  1  0.70350187  0.44062096  0.93635780  1  0.087593  0  0.103875  0.112244  0  0.991615  0
H  H10  1  0.20629140  0.55603100  0.24937044  1  0.081024  0  0.101716  0.109145  0  1.009151  0
H  H11  1  0.79371902  0.44397645  0.75062931  1  0.081113  0  0.101697  0.109142  0  1.009081  0
H  H12  1  0.88049436  0.41445714  0.25584723  1  0.13371  0  0.106198  0.117248  0  1.05381  0
H  H13  1  0.11950460  0.58554249  0.74414440  1  0.133521  0  0.106193  0.117243  0  1.053771  0
H  H14  1  0.83885404  0.57981151  0.59224506  1  0.122818  0  0.108205  0.111781  0  1.015047  0
H  H15  1  0.16113652  0.42018552  0.40774463  1  0.122705  0  0.10823  0.111876  0  1.015034  0
H  H16  1  0.13311047  0.84116113  0.40932732  1  0.101337  0  0.105204  0.115613  0  1.01157  0
H  H17  1  0.86687187  0.15883703  0.59065949  1  0.101432  0  0.105204  0.115645  0  1.011661  0
H  H18  1  0.58158219  0.59349426  0.20348086  1  0.128778  0  0.126317  0.111214  0  0.99954  0
H  H19  1  0.41842272  0.40648832  0.79651958  1  0.129169  0  0.12632  0.111306  0  0.999508  0
H  H20  1  0.43621471  0.41476635  0.29248352  1  0.057653  0  0.117079  0.124832  0  0.987107  0
H  H21  1  0.56377214  0.58522243  0.70751758  1  0.057733  0  0.117126  0.124885  0  0.987031  0
H  H22  1  0.66015044  0.72384634  0.62880549  1  0.097425  0  0.115776  0.123373  0  0.992814  0
H  H23  1  0.33982885  0.27614815  0.37118868  1  0.09734  0  0.115792  0.123437  0  0.992884  0
H  H24  1  0.78700754  0.88870705  0.52384784  1  0.135993  0  0.125104  0.106472  0  0.992679  0
H  H25  1  0.21297918  0.11128328  0.47614610  1  0.135829  0  0.125095  0.106438  0  0.992684  0
H  H26  1  0.81677644  0.90178130  0.03708344  1  0.158239  0  0.133595  0.12148  0  0.977053  0
H  H27  1  0.18321737  0.09823129  0.96293259  1  0.157909  0  0.133565  0.121383  0  0.977421  0
H  H28  1  0.68722811  0.97270963  0.91620884  1  0.088367  0  0.116466  0.123701  0  0.998441  0
H  H29  1  0.31279072  0.02733407  0.08382898  1  0.089084  0  0.116363  0.123516  0  0.998636  0
H  H30  1  0.40667923  0.95429527  0.16875230  1  0.07305  0  0.112232  0.114244  0  1.012292  0
H  H31  1  0.59332929  0.04571881  0.83127255  1  0.074778  0  0.112364  0.114432  0  1.01223  0
H  H32  1  0.54879909  0.88440043  0.27895884  1  0.088905  0  0.122278  0.092338  0  0.979956  0
H  H33  1  0.45120081  0.11560051  0.72106041  1  0.088795  0  0.122249  0.092185  0  0.980041  0
C  C34  1  0.93390589  0.74600041  0.16671821  1  1.602233  0  0.198333  0.580587  0  4.247994  0
C  C35  1  0.06609437  0.25399465  0.83327431  1  1.603146  0  0.198378  0.580713  0  4.247933  0
C  C36  1  0.04330271  0.70251268  0.13927079  1  -0.034906  0  0.000852  -0.061851  0  3.885012  0
C  C37  1  0.95669487  0.29747613  0.86071291  1  -0.034994  0  0.000812  -0.061859  0  3.884952  0
C  C38  1  0.09339953  0.70396630  0.03459513  1  -0.023398  0  -0.021465  -0.087173  0  3.993233  0
C  C39  1  0.90660939  0.29602842  0.96539631  1  -0.02463  0  -0.021499  -0.087291  0  3.993103  0
C  C40  1  0.18523161  0.65280902  0.00894875  1  -0.030009  0  -0.082679  -0.085533  0  3.983266  0
C  C41  1  0.81478197  0.34719199  0.99104918  1  -0.029859  0  -0.08265  -0.085513  0  3.983125  0
C  C42  1  0.22743000  0.60094763  0.08597776  1  -0.038408  0  -0.094001  -0.090654  0  4.02157  0
C  C43  1  0.77257936  0.39905294  0.91401730  1  -0.038439  0  -0.094116  -0.090844  0  4.021728  0
C  C44  1  0.17575838  0.59774332  0.18886493  1  -0.043125  0  -0.081051  -0.106519  0  3.956166  0
C  C45  1  0.82424336  0.40224915  0.81113052  1  -0.043536  0  -0.080889  -0.106383  0  3.956313  0
C  C46  1  0.08221541  0.64676525  0.21596190  1  -0.002201  0  -0.003691  0.036834  0  3.947799  0
C  C47  1  0.91777841  0.35322375  0.78403231  1  -0.001812  0  -0.003718  0.03684  0  3.947952  0
C  C48  1  0.04121430  0.75506048  0.95103989  1  1.529108  0  0.221875  0.564302  0  4.148584  0
C  C49  1  0.95881326  0.24495111  0.04896025  1  1.529192  0  0.221964  0.564636  0  4.148295  0
C  C50  1  0.01521961  0.63011248  0.32019101  1  -0.039408  0  -0.001765  0.082484  0  3.969001  0
C  C51  1  0.98477507  0.36988312  0.67980203  1  -0.039629  0  -0.001764  0.082468  0  3.968778  0
C  C52  1  0.90995438  0.50126060  0.32614132  1  0.020157  0  -0.071387  -0.11774  0  3.866656  0
C  C53  1  0.09004456  0.49873899  0.67384948  1  0.020573  0  -0.071472  -0.117956  0  3.866527  0
C  C54  1  0.84465002  0.48313183  0.42302611  1  -0.03416  0  -0.024437  -0.054248  0  4.019668  0
C  C55  1  0.15533930  0.51686309  0.57696061  1  -0.034267  0  -0.024469  -0.053954  0  4.01942  0
C  C56  1  0.88750243  0.59406503  0.51622441  1  -0.028429  0  -0.075618  -0.106061  0  3.954743  0
C  C57  1  0.11248327  0.40592872  0.48376347  1  -0.032864  0  -0.075593  -0.106251  0  3.954871  0
C  C58  1  0.99134676  0.72275611  0.51087668  1  -0.021179  0  -0.024544  -0.047354  0  4.001522  0
C  C59  1  0.00864129  0.27724341  0.48910999  1  -0.01029  0  -0.024723  -0.047458  0  4.001637  0
C  C60  1  0.05359776  0.74018940  0.41270671  1  -0.029726  0  -0.073486  -0.114165  0  3.893427  0
C  C61  1  0.94638947  0.25980531  0.58727899  1  -0.035709  0  -0.073381  -0.114089  0  3.893361  0
C  C62  1  0.03162754  0.84186648  0.60801796  1  1.554122  0  0.205485  0.566884  0  4.217686  0
C  C63  1  0.96836217  0.15812569  0.39196993  1  1.553611  0  0.205546  0.566753  0  4.217633  0
C  C64  1  0.73178537  0.34826665  0.43133607  1  1.46993  0  0.225695  0.566253  0  4.122827  0
C  C65  1  0.26820777  0.65172971  0.56865534  1  1.469614  0  0.225714  0.566262  0  4.122761  0
C  C66  1  0.59098303  0.61687102  0.29710969  1  0.494295  0  0.055746  0.102895  0  3.920415  0
C  C67  1  0.40901421  0.38311365  0.70288727  1  0.493792  0  0.055645  0.102539  0  3.920502  0
C  C68  1  0.51286730  0.51787727  0.34883895  1  0.031076  0  -0.071679  -0.153132  0  3.913627  0
C  C69  1  0.48712208  0.48211251  0.65115922  1  0.031211  0  -0.071729  -0.153073  0  3.913704  0
C  C70  1  0.53677773  0.55177223  0.47066879  1  0.009913  0  0.019924  0.105784  0  3.960553  0
C  C71  1  0.46320868  0.44821921  0.52932947  1  0.049859  0  0.019819  0.105531  0  3.960793  0
C  C72  1  0.63485290  0.68831666  0.53415423  1  -0.004782  0  -0.073049  -0.150596  0  3.924429  0
C  C73  1  0.36513145  0.31167637  0.46584087  1  -0.005113  0  -0.072947  -0.150513  0  3.924444  0
C  C74  1  0.70780125  0.78222986  0.47660986  1  0.45698  0  0.054379  0.104014  0  3.913024  0
C  C75  1  0.29219242  0.21776395  0.52338690  1  0.457257  0  0.054357  0.103991  0  3.913222  0
C  C76  1  0.72480176  0.91438253  0.06254134  1  0.494659  0  0.068605  0.12196  0  3.87777  0
C  C77  1  0.27519584  0.08563146  0.93747855  1  0.494653  0  0.068665  0.122083  0  3.87781  0
C  C78  1  0.65065916  0.95437628  0.99554515  1  0.015279  0  -0.070059  -0.153169  0  3.902535  0
C  C79  1  0.34935188  0.04565234  0.00448428  1  0.013401  0  -0.069945  -0.15287  0  3.902601  0
C  C80  1  0.53761459  0.97543304  0.03303805  1  0.022968  0  0.020983  0.112002  0  3.940684  0
C  C81  1  0.46238819  0.02458641  0.96698986  1  -0.021125  0  0.020999  0.112056  0  3.940515  0
C  C82  1  0.49857838  0.94718516  0.13636383  1  0.0296  0  -0.075582  -0.160686  0  3.956338  0
C  C83  1  0.50141501  0.05282316  0.86366295  1  0.028833  0  -0.075832  -0.160952  0  3.956321  0
C  C84  1  0.57631674  0.90668616  0.19827885  1  0.442742  0  0.048273  0.086403  0  3.965581  0
C  C85  1  0.42367646  0.09331338  0.80174129  1  0.442117  0  0.048475  0.086698  0  3.965762  0
N  N86  1  0.68932020  0.74716759  0.35999560  1  -1.283053  0  -0.327582  -0.231163  0  3.55883  0
N  N87  1  0.31068235  0.25282118  0.64000004  1  -1.283059  0  -0.327477  -0.230899  0  3.558833  0
N  N88  1  0.68947766  0.89282340  0.16346239  1  -1.251963  0  -0.328698  -0.226875  0  3.594104  0
N  N89  1  0.31051242  0.10717084  0.83654990  1  -1.251651  0  -0.328803  -0.227076  0  3.594085  0
O  O90  1  0.00127660  0.86609794  0.23886974  1  -1.154135  0  -0.339967  -0.553367  0  2.277588  0
O  O91  1  0.99872329  0.13390337  0.76111566  1  -1.154056  0  -0.339956  -0.553363  0  2.277526  0
O  O92  1  0.78833176  0.66397129  0.12831644  1  -1.167365  0  -0.318939  -0.550158  0  2.122109  0
O  O93  1  0.21166419  0.33601970  0.87167664  1  -1.167347  0  -0.318991  -0.550277  0  2.122202  0
O  O94  1  0.97558898  0.81371957  0.97528001  1  -1.144498  0  -0.29046  -0.487396  0  2.133728  0
O  O95  1  0.02444672  0.18629928  0.02472127  1  -1.14479  0  -0.290546  -0.487534  0  2.133543  0
O  O96  1  0.07310535  0.73063465  0.84681188  1  -1.174883  0  -0.335995  -0.5002  0  2.35526  0
O  O97  1  0.92693811  0.26939074  0.15319617  1  -1.175117  0  -0.336028  -0.50044  0  2.35517  0
O  O98  1  0.09884568  0.95377236  0.58471621  1  -1.178234  0  -0.326585  -0.552713  0  2.339513  0
O  O99  1  0.90113977  0.04622259  0.41527767  1  -1.178222  0  -0.326524  -0.552619  0  2.339512  0
O  O100  1  0.99657933  0.83000920  0.70392629  1  -1.182852  0  -0.317469  -0.558423  0  2.21904  0
O  O101  1  0.00342099  0.16998593  0.29606790  1  -1.182323  0  -0.317515  -0.558378  0  2.219034  0
O  O102  1  0.67858580  0.32522338  0.51648598  1  -1.149714  0  -0.290473  -0.501111  0  2.158138  0
O  O103  1  0.32141406  0.67477267  0.48350835  1  -1.149854  0  -0.290472  -0.501178  0  2.158085  0
O  O104  1  0.68908801  0.24766618  0.33217777  1  -1.128404  0  -0.338055  -0.479502  0  2.269457  0
O  O105  1  0.31089733  0.75232184  0.66780901  1  -1.128384  0  -0.338039  -0.479514  0  2.26955  0
