# generated using pymatgen
data_Zn4H11C28S2Br2O13F
_symmetry_space_group_name_H-M   'P 1'
_cell_length_a   18.46413311
_cell_length_b   19.65685508
_cell_length_c   32.66355482
_cell_angle_alpha   86.17187496
_cell_angle_beta   73.75836736
_cell_angle_gamma   62.30350926
_symmetry_Int_Tables_number   1
_chemical_formula_structural   Zn4H11C28S2Br2O13F
_chemical_formula_sum   'Zn16 H44 C112 S8 Br8 O52 F4'
_cell_volume   10049.95784657
_cell_formula_units_Z   4
loop_
 _symmetry_equiv_pos_site_id
 _symmetry_equiv_pos_as_xyz
  1  'x, y, z'
loop_
 _atom_site_type_symbol
 _atom_site_label
 _atom_site_symmetry_multiplicity
 _atom_site_fract_x
 _atom_site_fract_y
 _atom_site_fract_z
 _atom_site_occupancy
 _atom_site_pbe_bader_charge
 _atom_site_pbe_bader_spin_density
 _atom_site_pbe_cm5_charge
 _atom_site_pbe_ddec_charge
 _atom_site_pbe_ddec_spin_density
 _atom_site_pbe_ddec_sum_bond_order
 _atom_site_pbe_magmom
Zn  Zn0  1  0.87488337  0.55043564  0.51847190  1  1.305976  0  0.673828  0.966185  0  2.341166  0
Zn  Zn1  1  0.04284177  0.48136339  0.43784768  1  1.315741  0  0.675207  0.96882  0  2.389614  0
Zn  Zn2  1  0.04831705  0.39984275  0.52402591  1  1.309687  0  0.673948  0.966129  0  2.387678  0
Zn  Zn3  1  0.04197129  0.56608254  0.51700966  1  1.316723  0  0.672838  0.96612  0  2.37017  0
Zn  Zn4  1  0.62500970  0.18908873  0.73334502  1  1.312383  0  0.671666  0.962415  0  2.359566  0
Zn  Zn5  1  0.46849436  0.35154293  0.72540196  1  1.311545  0  0.672612  0.956977  0  2.39368  0
Zn  Zn6  1  0.45165134  0.26787880  0.81166211  1  1.315205  0  0.672967  0.967343  0  2.361265  0
Zn  Zn7  1  0.45245074  0.19593140  0.72632467  1  1.318555  0  0.671698  0.963103  0  2.376778  0
Zn  Zn8  1  0.46515154  0.76077021  0.31390540  1  1.299914  0  0.670241  0.954777  0  2.38099  0
Zn  Zn9  1  0.45832044  0.68606242  0.23147161  1  1.32241  0  0.675858  0.968775  0  2.377503  0
Zn  Zn10  1  0.62613404  0.69735563  0.23016648  1  1.319569  0  0.671883  0.960867  0  2.375989  0
Zn  Zn11  1  0.45302470  0.84973211  0.22787324  1  1.315976  0  0.672787  0.966348  0  2.371683  0
Zn  Zn12  1  0.03288817  0.90072721  0.02504951  1  1.318562  0  0.671868  0.959872  0  2.36998  0
Zn  Zn13  1  0.05564470  0.05434078  0.01801048  1  1.31826  0  0.671481  0.959274  0  2.352923  0
Zn  Zn14  1  0.87543185  0.06162534  0.02063076  1  1.314086  0  0.671584  0.958254  0  2.392293  0
Zn  Zn15  1  0.03267032  0.98816302  0.93764131  1  1.308218  0  0.67052  0.959159  0  2.372761  0
H  H16  1  0.80117569  0.95992323  0.65757072  1  0.115938  0  0.122466  0.148194  0  0.967105  0
H  H17  1  0.32240197  0.97334004  0.40464625  1  0.143887  0  0.121135  0.146143  0  0.970456  0
H  H18  1  0.82281724  0.23612327  0.65792106  1  0.114098  0  0.105653  0.124437  0  1.003184  0
H  H19  1  0.55836437  0.47231998  0.61889340  1  0.056853  0  0.100746  0.112431  0  0.976286  0
H  H20  1  0.56048662  0.51688517  0.66398077  1  0.076687  0  0.101355  0.113344  0  0.975694  0
H  H21  1  0.66199880  0.55990789  0.61523396  1  0.061255  0  0.101329  0.113945  0  0.97546  0
H  H22  1  0.66019905  0.51488986  0.57026704  1  0.047736  0  0.099837  0.111059  0  0.979767  0
H  H23  1  0.28233830  0.61237923  0.29488233  1  0.098891  0  0.10779  0.128183  0  1.000015  0
H  H24  1  0.35498175  0.66453263  0.43392941  1  0.036493  0  0.098132  0.107271  0  0.982193  0
H  H25  1  0.26607037  0.75565098  0.43351334  1  0.078911  0  0.098633  0.108071  0  0.98029  0
H  H26  1  0.16637366  0.70752784  0.47849107  1  0.066613  0  0.099364  0.112825  0  0.977914  0
H  H27  1  0.25517930  0.61659473  0.47932020  1  0.045454  0  0.094712  0.106923  0  0.993362  0
H  H28  1  0.81505197  0.59759040  0.29370634  1  0.101573  0  0.107163  0.126072  0  1.001513  0
H  H29  1  0.55653212  0.76028875  0.43064293  1  0.058091  0  0.099159  0.108711  0  0.980272  0
H  H30  1  0.54898797  0.67289346  0.43255718  1  0.056433  0  0.098505  0.107579  0  0.983005  0
H  H31  1  0.65069236  0.61943449  0.47807494  1  0.054842  0  0.099532  0.110571  0  0.981198  0
H  H32  1  0.65809012  0.70681183  0.47648623  1  0.061436  0  0.100651  0.112988  0  0.976178  0
H  H33  1  0.31900425  0.46365006  0.64295445  1  0.118997  0  0.106938  0.126146  0  1.002022  0
H  H34  1  0.31800417  0.19341504  0.63194922  1  0.070548  0  0.099293  0.110839  0  0.97861  0
H  H35  1  0.22559033  0.24055763  0.67604987  1  0.066733  0  0.096632  0.108392  0  0.986805  0
H  H36  1  0.13502968  0.29450049  0.62482401  1  0.066073  0  0.097162  0.111086  0  0.987006  0
H  H37  1  0.22766642  0.24815919  0.58087911  1  0.078835  0  0.099951  0.11353  0  0.975987  0
H  H38  1  0.18098838  0.66172233  0.96261647  1  0.126416  0  0.123191  0.149394  0  0.965838  0
H  H39  1  0.68116806  0.14385281  0.95975478  1  0.089392  0  0.10784  0.128565  0  0.997424  0
H  H40  1  0.94041160  0.08787610  0.81972011  1  0.046628  0  0.101  0.112561  0  0.976599  0
H  H41  1  0.94222783  0.99629443  0.82101499  1  0.065067  0  0.100278  0.111923  0  0.977992  0
H  H42  1  0.83863256  0.04259724  0.77635604  1  0.060125  0  0.100319  0.112107  0  0.97673  0
H  H43  1  0.83715000  0.13396335  0.77503901  1  0.068996  0  0.101188  0.114348  0  0.975318  0
H  H44  1  0.18065612  0.05896133  0.84200643  1  0.099942  0  0.107017  0.126992  0  1.00017  0
H  H45  1  0.18288623  0.20714873  0.97278530  1  0.050588  0  0.09894  0.109034  0  0.979082  0
H  H46  1  0.27521526  0.11752907  0.97104102  1  0.049853  0  0.09895  0.108977  0  0.980322  0
H  H47  1  0.36604263  0.16752120  0.91893531  1  0.083019  0  0.095945  0.108888  0  0.991021  0
H  H48  1  0.27351003  0.25663879  0.92039729  1  0.067499  0  0.100199  0.114076  0  0.976347  0
H  H49  1  0.93866540  0.28812925  0.09012153  1  0.127958  0  0.121637  0.146673  0  0.968598  0
H  H50  1  0.18464774  0.79163909  0.10643147  1  0.109207  0  0.106456  0.126184  0  1.001354  0
H  H51  1  0.27325125  0.01812470  0.07430792  1  0.047338  0  0.098738  0.108579  0  0.98152  0
H  H52  1  0.18117943  0.06340874  0.11881961  1  0.066842  0  0.099247  0.10909  0  0.979854  0
H  H53  1  0.27276463  0.00862414  0.16920517  1  0.083385  0  0.100749  0.115236  0  0.975465  0
H  H54  1  0.36515677  0.96443271  0.12481160  1  0.056771  0  0.095966  0.108543  0  0.990523  0
H  H55  1  0.68182895  0.01261626  0.09384785  1  0.109597  0  0.107953  0.128171  0  0.998638  0
H  H56  1  0.94067300  0.72937494  0.08680401  1  0.068409  0  0.099133  0.109023  0  0.979988  0
H  H57  1  0.94271195  0.77194104  0.13271659  1  0.056991  0  0.101098  0.112422  0  0.975953  0
H  H58  1  0.83889616  0.73033742  0.17986860  1  0.046677  0  0.102328  0.116083  0  0.97415  0
H  H59  1  0.83711354  0.68716313  0.13417161  1  0.046892  0  0.100134  0.111691  0  0.977076  0
C  C60  1  0.87014094  0.56495001  0.42911612  1  1.556148  0  0.227733  0.622604  0  4.160802  0
C  C61  1  0.12000225  0.31388841  0.44011244  1  1.580109  0  0.215971  0.629747  0  4.214823  0
C  C62  1  0.87688984  0.42072773  0.57089977  1  1.570275  0  0.226706  0.618726  0  4.166143  0
C  C63  1  0.14645953  0.44585341  0.56399830  1  1.574297  0  0.225806  0.616999  0  4.169687  0
C  C64  1  0.86488318  0.68221316  0.56157040  1  1.623622  0  0.215907  0.629764  0  4.213198  0
C  C65  1  0.13558559  0.56910220  0.42995739  1  1.568944  0  0.227441  0.623407  0  4.15843  0
C  C66  1  0.64933761  0.31142434  0.68380293  1  1.567785  0  0.228994  0.611507  0  4.171562  0
C  C67  1  0.37908872  0.43702057  0.80999547  1  1.602305  0  0.215138  0.62764  0  4.218509  0
C  C68  1  0.62266226  0.17799367  0.82469664  1  1.583985  0  0.228523  0.621922  0  4.161782  0
C  C69  1  0.35639550  0.18240038  0.81186782  1  1.593774  0  0.225489  0.618637  0  4.162819  0
C  C70  1  0.62279249  0.06928915  0.68464632  1  1.596501  0  0.219046  0.612327  0  4.213555  0
C  C71  1  0.36344296  0.32807545  0.67993579  1  1.570465  0  0.229628  0.610658  0  4.168657  0
C  C72  1  0.36138653  0.68167791  0.31966219  1  1.554475  0  0.230685  0.614519  0  4.16776  0
C  C73  1  0.63306216  0.56414660  0.19096961  1  1.590141  0  0.215466  0.627971  0  4.218675  0
C  C74  1  0.64314640  0.68109426  0.31808303  1  1.585717  0  0.22893  0.610388  0  4.171123  0
C  C75  1  0.62318302  0.82841163  0.17913536  1  1.548537  0  0.227827  0.620404  0  4.163115  0
C  C76  1  0.37831963  0.93005519  0.31444883  1  1.573435  0  0.218565  0.610949  0  4.220649  0
C  C77  1  0.36054087  0.80807168  0.18324456  1  1.583657  0  0.227552  0.6217  0  4.15942  0
C  C78  1  0.13898983  0.92697331  0.06916483  1  1.571288  0  0.229356  0.611957  0  4.166396  0
C  C79  1  0.88936790  0.18435082  0.06094480  1  1.614124  0  0.217037  0.60781  0  4.222384  0
C  C80  1  0.85472040  0.93705701  0.06945277  1  1.567327  0  0.229439  0.609472  0  4.170814  0
C  C81  1  0.85416256  0.07268851  0.93396928  1  1.575641  0  0.230362  0.610549  0  4.169267  0
C  C82  1  0.11621217  0.81813779  0.93907762  1  1.58222  0  0.21903  0.611472  0  4.216159  0
C  C83  1  0.13868549  0.06719274  0.92846282  1  1.546783  0  0.228981  0.609945  0  4.170831  0
C  C84  1  0.72797397  0.80626602  0.59822418  1  0.475292  0  0.100659  0.250655  0  4.079479  0
C  C85  1  0.75673616  0.94529386  0.64929334  1  0.051499  0  -0.087433  -0.132653  0  3.961087  0
C  C86  1  0.81502406  0.75722665  0.58629571  1  -0.076003  0  -0.036872  -0.245326  0  3.976901  0
C  C87  1  0.66981615  0.99366291  0.66037077  1  -0.144243  0  -0.021532  -0.115019  0  3.971921  0
C  C88  1  0.77747135  0.87712391  0.62649648  1  -0.192435  0  -0.020714  0.005925  0  4.088348  0
C  C89  1  0.70537016  0.87509645  0.62099937  1  -0.091734  0  -0.032062  -0.135732  0  4.10073  0
C  C90  1  0.19275163  0.22280491  0.37178442  1  0.581571  0  0.103055  0.253617  0  4.078781  0
C  C91  1  0.30412466  0.01915696  0.38317250  1  -0.020033  0  -0.087943  -0.133447  0  3.961907  0
C  C92  1  0.16887776  0.23891757  0.41566601  1  -0.102824  0  -0.036755  -0.244161  0  3.980316  0
C  C93  1  0.32768733  0.00503130  0.33927765  1  -0.132755  0  -0.021592  -0.114758  0  3.976793  0
C  C94  1  0.25503905  0.09895626  0.39489599  1  -0.141704  0  -0.019179  0.008145  0  4.083558  0
C  C95  1  0.24215089  0.14338072  0.35939981  1  -0.129033  0  -0.031975  -0.135077  0  4.107124  0
C  C96  1  0.70812531  0.33795936  0.65523447  1  -0.007746  0  -0.010278  -0.059613  0  3.978499  0
C  C97  1  0.82362567  0.38861818  0.59965026  1  -0.003419  0  -0.015255  -0.124024  0  3.924461  0
C  C98  1  0.67856540  0.40870845  0.63725392  1  -0.018882  0  -0.00483  0.059684  0  3.88657  0
C  C99  1  0.85319681  0.31634340  0.61801626  1  -0.132411  0  -0.006509  0.101437  0  3.909342  0
C  C100  1  0.73480052  0.43230330  0.61047502  1  0.072346  0  0.000383  0.07487  0  3.877946  0
C  C101  1  0.79717905  0.29211443  0.64476821  1  0.018051  0  -0.091357  -0.159461  0  3.966656  0
C  C102  1  0.59998681  0.48119555  0.63387133  1  -0.03116  0  -0.149791  -0.200677  0  3.88202  0
C  C103  1  0.66357071  0.50807291  0.60343712  1  -0.016928  0  -0.149396  -0.197427  0  3.877135  0
C  C104  1  0.30239040  0.65481704  0.34763582  1  -0.037342  0  -0.012002  -0.063716  0  3.979379  0
C  C105  1  0.18969303  0.59902029  0.40022684  1  -0.020607  0  -0.015563  -0.121566  0  3.938811  0
C  C106  1  0.27933095  0.66325289  0.39213761  1  0.079775  0  -0.004835  0.057721  0  3.887572  0
C  C107  1  0.21234644  0.59168373  0.35489155  1  -0.035192  0  -0.005797  0.100348  0  3.922426  0
C  C108  1  0.22438687  0.63659888  0.41710152  1  -0.052215  0  -0.000678  0.075292  0  3.883602  0
C  C109  1  0.26675842  0.61883058  0.32958128  1  0.022485  0  -0.088951  -0.154443  0  3.955774  0
C  C110  1  0.29000249  0.69301560  0.43053999  1  -0.026643  0  -0.149283  -0.194857  0  3.881502  0
C  C111  1  0.22759435  0.66283083  0.45892041  1  -0.02176  0  -0.151034  -0.200255  0  3.868384  0
C  C112  1  0.70098952  0.65114507  0.34607717  1  -0.032085  0  -0.010374  -0.061152  0  3.980238  0
C  C113  1  0.81623152  0.59123354  0.39910068  1  0.056883  0  -0.015548  -0.125844  0  3.935522  0
C  C114  1  0.67149918  0.66211773  0.39051789  1  -0.001778  0  -0.004629  0.059101  0  3.889707  0
C  C115  1  0.84572761  0.57918497  0.35377601  1  -0.099869  0  -0.005652  0.101813  0  3.917462  0
C  C116  1  0.72769714  0.63273763  0.41568930  1  -0.023033  0  -0.000122  0.076443  0  3.883111  0
C  C117  1  0.78977251  0.60844682  0.32831665  1  0.048239  0  -0.090434  -0.157022  0  3.96418  0
C  C118  1  0.59321982  0.69718448  0.42861090  1  -0.027486  0  -0.150656  -0.198292  0  3.887121  0
C  C119  1  0.65683621  0.66381643  0.45725018  1  -0.021385  0  -0.149751  -0.198605  0  3.875859  0
C  C120  1  0.30716560  0.35931704  0.65122124  1  -0.001201  0  -0.010063  -0.057838  0  3.975018  0
C  C121  1  0.20190565  0.42077237  0.59332072  1  0.084576  0  -0.014837  -0.124872  0  3.929036  0
C  C122  1  0.26956632  0.31974487  0.63912083  1  0.006008  0  -0.003745  0.059537  0  3.886208  0
C  C123  1  0.23989442  0.46101694  0.60616943  1  -0.08141  0  -0.007471  0.100417  0  3.916239  0
C  C124  1  0.21925712  0.34993690  0.61112292  1  -0.083409  0  0.000541  0.078447  0  3.878383  0
C  C125  1  0.29075802  0.43105866  0.63409948  1  -0.007297  0  -0.089569  -0.156964  0  3.960949  0
C  C126  1  0.25896193  0.24739377  0.64371548  1  -0.041757  0  -0.150887  -0.199267  0  3.877206  0
C  C127  1  0.20216701  0.28142494  0.61181532  1  -0.035839  0  -0.15066  -0.198237  0  3.87099  0
C  C128  1  0.30011152  0.58539985  0.82067657  1  0.575001  0  0.10261  0.253794  0  4.077354  0
C  C129  1  0.19558597  0.67091627  0.92872669  1  -0.017262  0  -0.085532  -0.129746  0  3.955743  0
C  C130  1  0.32836211  0.51173941  0.83488712  1  -0.052048  0  -0.036457  -0.245212  0  3.976496  0
C  C131  1  0.16795175  0.74363491  0.91365116  1  -0.160025  0  -0.023351  -0.118714  0  3.973714  0
C  C132  1  0.24368142  0.61334716  0.89457258  1  -0.169442  0  -0.020166  0.006558  0  4.084996  0
C  C133  1  0.25165132  0.64399256  0.85422682  1  -0.181185  0  -0.032363  -0.136406  0  4.104267  0
C  C134  1  0.79485850  0.09871635  0.90665116  1  0.111323  0  -0.010014  -0.059705  0  3.97475  0
C  C135  1  0.67691117  0.15122844  0.85473400  1  0.028062  0  -0.016382  -0.129675  0  3.927782  0
C  C136  1  0.82301723  0.08881248  0.86217966  1  -0.027523  0  -0.002976  0.060863  0  3.890859  0
C  C137  1  0.64874341  0.16025018  0.90018108  1  -0.151543  0  -0.005768  0.102552  0  3.911001  0
C  C138  1  0.76569235  0.11450868  0.83758173  1  -0.004657  0  -2.2e-05  0.07682  0  3.878797  0
C  C139  1  0.70586756  0.13512746  0.92505449  1  -0.030748  0  -0.090168  -0.157835  0  3.955583  0
C  C140  1  0.90072484  0.05880067  0.82364940  1  -0.014458  0  -0.150318  -0.202217  0  3.886552  0
C  C141  1  0.83595592  0.08780047  0.79566315  1  -0.017174  0  -0.149731  -0.19771  0  3.880015  0
C  C142  1  0.19388252  0.09629185  0.89878905  1  -0.01185  0  -0.010669  -0.059804  0  3.973481  0
C  C143  1  0.29959421  0.15262784  0.83943175  1  -0.052405  0  -0.014169  -0.121005  0  3.928876  0
C  C144  1  0.23150177  0.13400419  0.91276424  1  0.025494  0  -0.004528  0.057179  0  3.887345  0
C  C145  1  0.26069052  0.11444988  0.82543086  1  -0.091894  0  -0.00603  0.100963  0  3.917739  0
C  C146  1  0.28180635  0.16126399  0.88386714  1  -0.007198  0  -0.000482  0.076297  0  3.877752  0
C  C147  1  0.20962357  0.08747758  0.85418603  1  0.064394  0  -0.090381  -0.15812  0  3.960281  0
C  C148  1  0.24199696  0.16269981  0.95154743  1  -0.011164  0  -0.148649  -0.195453  0  3.881233  0
C  C149  1  0.29896895  0.19377560  0.91884606  1  -0.044078  0  -0.150704  -0.199529  0  3.868594  0
C  C150  1  0.65610912  0.44274261  0.15282847  1  0.617555  0  0.102651  0.253646  0  4.081249  0
C  C151  1  0.87113076  0.30433592  0.09855849  1  0.046282  0  -0.087445  -0.132495  0  3.957814  0
C  C152  1  0.68418323  0.48984977  0.16575932  1  -0.11661  0  -0.036336  -0.242677  0  3.977604  0
C  C153  1  0.84069434  0.25897994  0.08615678  1  -0.256877  0  -0.022304  -0.118158  0  3.978784  0
C  C154  1  0.80329043  0.37182877  0.12278625  1  -0.14431  0  -0.019026  0.009158  0  4.077885  0
C  C155  1  0.72298424  0.37554678  0.12824227  1  -0.169288  0  -0.031871  -0.13781  0  4.11265  0
C  C156  1  0.19507089  0.89669804  0.09814733  1  -0.024785  0  -0.011873  -0.060953  0  3.971959  0
C  C157  1  0.30283213  0.83488021  0.15501847  1  0.013345  0  -0.01417  -0.12219  0  3.928485  0
C  C158  1  0.23177501  0.93691112  0.11057390  1  -0.047808  0  -0.005997  0.05542  0  3.885302  0
C  C159  1  0.26488714  0.79440137  0.14240723  1  -0.104404  0  -0.005827  0.101266  0  3.92158  0
C  C160  1  0.28304254  0.90667804  0.13819432  1  0.023716  0  0.000958  0.078719  0  3.878094  0
C  C161  1  0.21285124  0.82450950  0.11500740  1  0.056283  0  -0.091287  -0.159867  0  3.961012  0
C  C162  1  0.24074470  0.01008605  0.10655623  1  -0.022386  0  -0.148837  -0.195585  0  3.882937  0
C  C163  1  0.29849962  0.97605385  0.13803739  1  -0.034485  0  -0.150633  -0.200365  0  3.870919  0
C  C164  1  0.79541686  0.90960267  0.09662100  1  0.014129  0  -0.010393  -0.059105  0  3.972195  0
C  C165  1  0.67738267  0.85963544  0.15036238  1  0.004163  0  -0.015248  -0.12569  0  3.9269  0
C  C166  1  0.82351706  0.83802541  0.11373391  1  -0.000294  0  -0.004058  0.0591  0  3.888394  0
C  C167  1  0.64925660  0.93218102  0.13232568  1  -0.092414  0  -0.00596  0.100979  0  3.915035  0
C  C168  1  0.76610712  0.81486715  0.13971454  1  0.014146  0  0.000587  0.076762  0  3.878413  0
C  C169  1  0.70643932  0.95617441  0.10659192  1  0.0017  0  -0.090359  -0.157842  0  3.957531  0
C  C170  1  0.90109768  0.76453512  0.11706412  1  -0.030296  0  -0.150166  -0.199735  0  3.885222  0
C  C171  1  0.83619938  0.73820138  0.14663347  1  0.011062  0  -0.149083  -0.197224  0  3.875811  0
S  S172  1  0.87070340  0.79557425  0.60340923  1  0.288784  0  0.086433  0.141839  0  2.756351  0
S  S173  1  0.61246616  0.95705111  0.64340145  1  0.283149  0  0.093683  0.156665  0  2.739668  0
S  S174  1  0.20718815  0.15545538  0.44244865  1  0.269846  0  0.08353  0.136074  0  2.7426  0
S  S175  1  0.29085542  0.08771192  0.31182292  1  0.313831  0  0.096634  0.160082  0  2.749077  0
S  S176  1  0.29516237  0.51393064  0.89044461  1  0.305841  0  0.086825  0.141285  0  2.741484  0
S  S177  1  0.20002073  0.74307912  0.85816411  1  0.325488  0  0.095194  0.158979  0  2.739148  0
S  S178  1  0.79471751  0.45125915  0.14752390  1  0.289667  0  0.083241  0.134553  0  2.731597  0
S  S179  1  0.73028383  0.29726169  0.10359024  1  0.321631  0  0.098836  0.165919  0  2.752696  0
Br  Br180  1  0.97107045  0.24401517  0.60791516  1  -0.052164  0  0.006569  -0.076188  0  1.386227  0
Br  Br181  1  0.16625056  0.54915049  0.32473418  1  -0.042338  0  0.010433  -0.069346  0  1.411905  0
Br  Br182  1  0.96274581  0.51881638  0.32325925  1  -0.040409  0  0.014068  -0.062248  0  1.414959  0
Br  Br183  1  0.22700927  0.55867620  0.58655549  1  -0.052609  0  0.006993  -0.077613  0  1.385702  0
Br  Br184  1  0.53130165  0.20702608  0.93222492  1  -0.045902  0  0.010092  -0.072803  0  1.386986  0
Br  Br185  1  0.27052810  0.09941252  0.76658579  1  -0.048754  0  0.008583  -0.073548  0  1.375005  0
Br  Br186  1  0.27738832  0.69765342  0.16314509  1  -0.043449  0  0.012361  -0.065085  0  1.36634  0
Br  Br187  1  0.53180786  0.00500872  0.14174802  1  -0.046192  0  0.010858  -0.071494  0  1.38382  0
O  O188  1  0.99984281  0.50018311  0.50043462  1  -1.218321  0  -0.575223  -1.032356  0  2.540848  0
O  O189  1  0.83118172  0.56460232  0.46823222  1  -1.162209  0  -0.30992  -0.540955  0  2.313868  0
O  O190  1  0.08954391  0.37303639  0.41937249  1  -1.157432  0  -0.313542  -0.533282  0  2.329581  0
O  O191  1  0.95729522  0.38412959  0.56414793  1  -1.150622  0  -0.313759  -0.543163  0  2.42384  0
O  O192  1  0.94873960  0.54686054  0.41418129  1  -1.160468  0  -0.3146  -0.545883  0  2.41346  0
O  O193  1  0.83523408  0.48419078  0.55556533  1  -1.172442  0  -0.309183  -0.540266  0  2.33251  0
O  O194  1  0.11260279  0.31277442  0.48032664  1  -1.159937  0  -0.320755  -0.548486  0  2.32267  0
O  O195  1  0.12582578  0.39578654  0.55552956  1  -1.164576  0  -0.30881  -0.537043  0  2.357579  0
O  O196  1  0.94564047  0.65395751  0.55452304  1  -1.182782  0  -0.319869  -0.545951  0  2.341159  0
O  O197  1  0.12380277  0.51264462  0.55018546  1  -1.169401  0  -0.313014  -0.541956  0  2.408465  0
O  O198  1  0.82521079  0.65234012  0.54947493  1  -1.155367  0  -0.314723  -0.538021  0  2.296925  0
O  O199  1  0.13471395  0.50982715  0.41715320  1  -1.165791  0  -0.316549  -0.546591  0  2.382223  0
O  O200  1  0.09592441  0.60496376  0.46706480  1  -1.158556  0  -0.309656  -0.537622  0  2.303998  0
O  O201  1  0.50041570  0.25066469  0.74922231  1  -1.22794  0  -0.571739  -1.029861  0  2.534096  0
O  O202  1  0.68223001  0.24534833  0.69845038  1  -1.176733  0  -0.314013  -0.543318  0  2.322327  0
O  O203  1  0.40374899  0.43777108  0.76946473  1  -1.174672  0  -0.314071  -0.534279  0  2.326247  0
O  O204  1  0.54200382  0.21337758  0.83993382  1  -1.15867  0  -0.314028  -0.544977  0  2.416166  0
O  O205  1  0.57004587  0.35831304  0.69102646  1  -1.169141  0  -0.308251  -0.536165  0  2.340263  0
O  O206  1  0.66407111  0.16270972  0.78502719  1  -1.166327  0  -0.310064  -0.541517  0  2.342997  0
O  O207  1  0.39381921  0.37760393  0.83168747  1  -1.169216  0  -0.319842  -0.546189  0  2.322826  0
O  O208  1  0.36569600  0.23151368  0.83082285  1  -1.164666  0  -0.30938  -0.539362  0  2.326499  0
O  O209  1  0.54262589  0.10499763  0.68870437  1  -1.167277  0  -0.319052  -0.545127  0  2.33484  0
O  O210  1  0.39196870  0.15659925  0.77289853  1  -1.17055  0  -0.312814  -0.542168  0  2.401132  0
O  O211  1  0.66547390  0.09218271  0.69949900  1  -1.166617  0  -0.315851  -0.540037  0  2.302165  0
O  O212  1  0.39622522  0.36848549  0.68785470  1  -1.173154  0  -0.312712  -0.538795  0  2.339392  0
O  O213  1  0.37427617  0.26269041  0.69393438  1  -1.166822  0  -0.309341  -0.537649  0  2.328031  0
O  O214  1  0.50133004  0.74870798  0.25127033  1  -1.223566  0  -0.573209  -1.030991  0  2.539469  0
O  O215  1  0.39109913  0.71335910  0.33867557  1  -1.168408  0  -0.310279  -0.539717  0  2.323939  0
O  O216  1  0.55343080  0.58595882  0.20602316  1  -1.156548  0  -0.314796  -0.534987  0  2.330194  0
O  O217  1  0.67769772  0.67135696  0.27776444  1  -1.188442  0  -0.314223  -0.540765  0  2.333754  0
O  O218  1  0.37731041  0.67071773  0.27935353  1  -1.161492  0  -0.313021  -0.541765  0  2.341548  0
O  O219  1  0.56338190  0.71400461  0.33728414  1  -1.162711  0  -0.309883  -0.537863  0  2.328848  0
O  O220  1  0.67340466  0.60018222  0.19547218  1  -1.160618  0  -0.320954  -0.54743  0  2.313577  0
O  O221  1  0.66452276  0.76573764  0.19512519  1  -1.165447  0  -0.309262  -0.538911  0  2.346632  0
O  O222  1  0.39484699  0.93258104  0.27377968  1  -1.163129  0  -0.319121  -0.546846  0  2.341911  0
O  O223  1  0.54274443  0.86451303  0.18554518  1  -1.148551  0  -0.314216  -0.545851  0  2.409932  0
O  O224  1  0.40070024  0.87009666  0.33544431  1  -1.172725  0  -0.315666  -0.537132  0  2.310989  0
O  O225  1  0.40025437  0.73627504  0.18759491  1  -1.171615  0  -0.313224  -0.544726  0  2.392464  0
O  O226  1  0.36652417  0.86134775  0.20026255  1  -1.1637  0  -0.309544  -0.537828  0  2.324045  0
O  O227  1  0.00010013  0.00123917  0.00038938  1  -1.218957  0  -0.570228  -1.027937  0  2.528115  0
O  O228  1  0.10858682  0.88483564  0.06060379  1  -1.168537  0  -0.313836  -0.542646  0  2.337481  0
O  O229  1  0.97052350  0.15487265  0.04935764  1  -1.169558  0  -0.315314  -0.537018  0  2.30455  0
O  O230  1  0.82153159  0.00520514  0.05739001  1  -1.172026  0  -0.311594  -0.536491  0  2.338016  0
O  O231  1  0.12605821  0.99295356  0.05541738  1  -1.167567  0  -0.309702  -0.539588  0  2.31867  0
O  O232  1  0.93423519  0.88958924  0.06063859  1  -1.171872  0  -0.309425  -0.539107  0  2.32324  0
O  O233  1  0.84424999  0.15598897  0.05313716  1  -1.172403  0  -0.318173  -0.544324  0  2.352521  0
O  O234  1  0.82101061  0.09004194  0.97411466  1  -1.178172  0  -0.312638  -0.537105  0  2.333646  0
O  O235  1  0.09742406  0.87816672  0.91781558  1  -1.176772  0  -0.319288  -0.546899  0  2.33346  0
O  O236  1  0.93359352  0.03494488  0.91458687  1  -1.173681  0  -0.308462  -0.537545  0  2.321264  0
O  O237  1  0.09493683  0.81606231  0.97964440  1  -1.152091  0  -0.31533  -0.537292  0  2.311437  0
O  O238  1  0.12915245  0.07629932  0.96834283  1  -1.145704  0  -0.308465  -0.537119  0  2.320884  0
O  O239  1  0.10561476  0.03602741  0.91166606  1  -1.174887  0  -0.313809  -0.540848  0  2.337101  0
F  F240  1  0.66984791  0.79126572  0.58911586  1  -0.621611  0  -0.091783  -0.110839  0  1.342587  0
F  F241  1  0.17248983  0.27606744  0.34326741  1  -0.623223  0  -0.085354  -0.103096  0  1.354291  0
F  F242  1  0.31612482  0.60103269  0.77937218  1  -0.617169  0  -0.089019  -0.107049  0  1.34694  0
F  F243  1  0.57414986  0.45819145  0.16196649  1  -0.61704  0  -0.084479  -0.101534  0  1.353144  0
