# generated using pymatgen
data_Pr3PH19C13NO24
_symmetry_space_group_name_H-M   'P 1'
_cell_length_a   11.01705803
_cell_length_b   10.85139247
_cell_length_c   11.81960000
_cell_angle_alpha   90.00000000
_cell_angle_beta   90.00000000
_cell_angle_gamma   106.37649556
_symmetry_Int_Tables_number   1
_chemical_formula_structural   Pr3PH19C13NO24
_chemical_formula_sum   'Pr6 P2 H38 C26 N2 O48'
_cell_volume   1355.71079608
_cell_formula_units_Z   2
loop_
 _symmetry_equiv_pos_site_id
 _symmetry_equiv_pos_as_xyz
  1  'x, y, z'
loop_
 _atom_site_type_symbol
 _atom_site_label
 _atom_site_symmetry_multiplicity
 _atom_site_fract_x
 _atom_site_fract_y
 _atom_site_fract_z
 _atom_site_occupancy
 _atom_site_hle17_bader_spin_density
 _atom_site_hle17_ddec_charge
 _atom_site_hle17_ddec_spin_density
 _atom_site_hle17_ddec_sum_bond_order
 _atom_site_hle17_magmom
 _atom_site_hse06_10hf_bader_spin_density
 _atom_site_hse06_10hf_ddec_charge
 _atom_site_hse06_10hf_ddec_spin_density
 _atom_site_hse06_10hf_ddec_sum_bond_order
 _atom_site_hse06_10hf_magmom
 _atom_site_hse06_bader_spin_density
 _atom_site_hse06_ddec_charge
 _atom_site_hse06_ddec_spin_density
 _atom_site_hse06_ddec_sum_bond_order
 _atom_site_hse06_magmom
 _atom_site_pbe_bader_charge
 _atom_site_pbe_bader_spin_density
 _atom_site_pbe_cm5_charge
 _atom_site_pbe_ddec_charge
 _atom_site_pbe_ddec_spin_density
 _atom_site_pbe_ddec_sum_bond_order
 _atom_site_pbe_magmom
Pr  Pr0  1  0.03017136  0.69820251  0.10233426  1  0  2.233009  0  1.663396  0  0  2.058005  0  2.144926  0  0  2.096483  0  2.104497  0  2.247655  0  1.483684  2.028798  0  2.176056  0
Pr  Pr1  1  0.96982546  0.30179284  0.60233341  1  0  2.232996  0  1.663307  0  0  2.057986  0  2.144841  0  0  2.096477  0  2.104413  0  2.247624  0  1.483764  2.028764  0  2.176004  0
Pr  Pr2  1  0.80136263  0.68670042  0.60401536  1  0  2.283232  0  1.642164  0  0  2.107331  0  2.114883  0  0  2.147198  0  2.07239  0  2.253315  0  1.505124  2.075779  0  2.148441  0
Pr  Pr3  1  0.19863889  0.31329877  0.10401198  1  0  2.283298  0  1.64215  0  0  2.107368  0  2.114943  0  0  2.147284  0  2.072373  0  2.25333  0  1.505098  2.075812  0  2.148512  0
Pr  Pr4  1  0.58001910  0.62269884  0.24432553  1  0  2.364061  0  1.562263  0  0  2.256094  0  1.922641  0  0  2.290348  0  1.88271  0  2.282264  0  1.490262  2.181586  0  2.043381  0
Pr  Pr5  1  0.41997698  0.37730036  0.74432468  1  0  2.364072  0  1.562262  0  0  2.256105  0  1.92264  0  0  2.290365  0  1.882709  0  2.282237  0  1.490267  2.181606  0  2.043368  0
P  P6  1  0.47083344  0.65652604  0.54591780  1  0  1.569847  0  4.890891  0  0  1.418534  0  5.402593  0  0  1.470548  0  5.357736  0  3.418092  0  0.353459  1.381875  0  5.429283  0
P  P7  1  0.52916798  0.34347604  0.04591441  1  0  1.56989  0  4.890999  0  0  1.418558  0  5.402678  0  0  1.470576  0  5.357814  0  3.418279  0  0.353433  1.381891  0  5.429385  0
H  H8  1  0.92953280  0.41741313  0.03500203  1  0  0.420093  0  0.88523  0  0  0.394001  0  0.942155  0  0  0.403845  0  0.92768  0  0.635789  0  0.302469  0.386997  0  0.952494  0
H  H9  1  0.07046316  0.58258895  0.53500118  1  0  0.420073  0  0.885266  0  0  0.394021  0  0.942112  0  0  0.403862  0  0.92764  0  0.635815  0  0.302518  0.387022  0  0.952451  0
H  H10  1  0.92210623  0.42385238  0.16206471  1  0  0.427219  0  0.869475  0  0  0.40104  0  0.926045  0  0  0.41245  0  0.90918  0  0.638528  0  0.304331  0.392944  0  0.938011  0
H  H11  1  0.07789523  0.57614009  0.66206217  1  0  0.427085  0  0.86975  0  0  0.400955  0  0.926171  0  0  0.412355  0  0.909314  0  0.638162  0  0.304309  0.392867  0  0.938129  0
H  H12  1  0.40902775  0.38369734  0.35003130  1  0  0.435298  0  0.860984  0  0  0.407064  0  0.920654  0  0  0.417799  0  0.904742  0  0.649456  0  0.307995  0.399647  0  0.931453  0
H  H13  1  0.59096832  0.61630185  0.85003300  1  0  0.435229  0  0.861075  0  0  0.407006  0  0.920723  0  0  0.417739  0  0.904814  0  0.649485  0  0.307967  0.399594  0  0.931512  0
H  H14  1  0.51402365  0.32818089  0.30597228  1  0  0.430439  0  0.8352  0  0  0.405524  0  0.902691  0  0  0.414855  0  0.8888  0  0.616453  0  0.317459  0.398727  0  0.9126  0
H  H15  1  0.48597408  0.67181445  0.80596805  1  0  0.430454  0  0.835161  0  0  0.40553  0  0.902681  0  0  0.414861  0  0.88879  0  0.616818  0  0.317431  0.398734  0  0.91259  0
H  H16  1  0.58800091  0.77613628  0.00958916  1  0  0.426365  0  0.865044  0  0  0.395067  0  0.930301  0  0  0.405358  0  0.915077  0  0.634722  0  0.305746  0.387534  0  0.941302  0
H  H17  1  0.41199415  0.22386579  0.50959085  1  0  0.426332  0  0.865114  0  0  0.395019  0  0.930382  0  0  0.40531  0  0.915155  0  0.634834  0  0.305679  0.387488  0  0.941375  0
H  H18  1  0.71615489  0.73779373  0.02919388  1  0  0.435089  0  0.868524  0  0  0.40308  0  0.933452  0  0  0.415143  0  0.915766  0  0.647545  0  0.300327  0.394768  0  0.945428  0
H  H19  1  0.28383990  0.26220738  0.52919388  1  0  0.435231  0  0.868323  0  0  0.403219  0  0.933235  0  0  0.415278  0  0.915553  0  0.647482  0  0.300374  0.394915  0  0.945201  0
H  H20  1  0.77097090  0.88649682  0.22979204  1  0  0.435828  0  0.821013  0  0  0.415881  0  0.879525  0  0  0.424593  0  0.866618  0  0.614822  0  0.322139  0.409586  0  0.888735  0
H  H21  1  0.22902026  0.11350429  0.72979204  1  0  0.435756  0  0.821186  0  0  0.415814  0  0.879639  0  0  0.424529  0  0.866728  0  0.614559  0  0.322083  0.40952  0  0.888848  0
H  H22  1  0.76464747  0.87315632  0.36240482  1  0  0.43953  0  0.861127  0  0  0.408582  0  0.924151  0  0  0.420287  0  0.907045  0  0.650395  0  0.299017  0.400169  0  0.936308  0
H  H23  1  0.23534834  0.12684191  0.86240313  1  0  0.439679  0  0.860941  0  0  0.408706  0  0.924005  0  0  0.420413  0  0.906895  0  0.6504  0  0.299066  0.400272  0  0.936185  0
H  H24  1  0.42635306  0.82235788  0.38833040  1  0  0.281469  0  0.859065  0  0  0.267854  0  0.914442  0  0  0.274596  0  0.910223  0  0.487223  0  0.327651  0.263041  0  0.917326  0
H  H25  1  0.57365097  0.17764707  0.88832955  1  0  0.281513  0  0.85909  0  0  0.267838  0  0.914513  0  0  0.27458  0  0.910294  0  0.487191  0  0.32762  0.263026  0  0.917398  0
H  H26  1  0.27425205  0.71327386  0.53695726  1  0  0.147142  0  0.934003  0  0  0.159541  0  0.990737  0  0  0.162709  0  0.988548  0  0.136229  0  0.127537  0.157048  0  0.99281  0
H  H27  1  0.72575197  0.28673110  0.03695810  1  0  0.147193  0  0.934022  0  0  0.15957  0  0.990752  0  0  0.162738  0  0.988566  0  0.136175  0  0.127523  0.157075  0  0.992826  0
H  H28  1  0.37764336  0.81841692  0.63428796  1  0  0.127569  0  0.919434  0  0  0.144303  0  0.970128  0  0  0.146465  0  0.969359  0  0.066333  0  0.121292  0.142643  0  0.971001  0
H  H29  1  0.62235858  0.18158708  0.13428712  1  0  0.127598  0  0.919393  0  0  0.144311  0  0.970083  0  0  0.146471  0  0.969319  0  0.06637  0  0.121281  0.14265  0  0.970956  0
H  H30  1  0.28722773  0.97402127  0.51732123  1  0  0.093353  0  0.905543  0  0  0.110649  0  0.960898  0  0  0.112044  0  0.959961  0  0.093473  0  0.120832  0.109332  0  0.962125  0
H  H31  1  0.71277421  0.02598272  0.01732038  1  0  0.093363  0  0.905589  0  0  0.110661  0  0.960928  0  0  0.112055  0  0.959994  0  0.093534  0  0.120824  0.109346  0  0.962152  0
H  H32  1  0.22479927  0.85928849  0.40752648  1  0  0.114759  0  0.910611  0  0  0.128472  0  0.969814  0  0  0.13002  0  0.969353  0  0.122658  0  0.127437  0.12718  0  0.970482  0
H  H33  1  0.77520450  0.14071550  0.90752564  1  0  0.114794  0  0.910507  0  0  0.128474  0  0.969754  0  0  0.130023  0  0.969292  0  0.122593  0  0.127412  0.127182  0  0.970423  0
H  H34  1  0.36637643  0.99577487  0.26611983  1  0  0.075327  0  0.944019  0  0  0.084289  0  1.013976  0  0  0.086071  0  1.012012  0  0.113127  0  0.106934  0.082861  0  1.015588  0
H  H35  1  0.63362771  0.00422720  0.76611899  1  0  0.075299  0  0.944015  0  0  0.084269  0  1.013995  0  0  0.086044  0  1.012029  0  0.113096  0  0.106932  0.082841  0  1.015606  0
H  H36  1  0.28121210  0.08999103  0.33763410  1  0  0.09725  0  0.912094  0  0  0.111241  0  0.968575  0  0  0.111653  0  0.968902  0  0.094474  0  0.123692  0.110823  0  0.968526  0
H  H37  1  0.71878995  0.91001008  0.83763495  1  0  0.097236  0  0.912055  0  0  0.111212  0  0.968587  0  0  0.111619  0  0.968914  0  0.094453  0  0.123684  0.110797  0  0.968529  0
H  H38  1  0.51753125  0.01299280  0.57072490  1  0  0.09644  0  0.913727  0  0  0.108789  0  0.977727  0  0  0.110036  0  0.977193  0  0.084171  0  0.118574  0.107731  0  0.978393  0
H  H39  1  0.48247123  0.98701311  0.07072405  1  0  0.096403  0  0.913719  0  0  0.108733  0  0.977772  0  0  0.109979  0  0.977239  0  0.084209  0  0.118568  0.107674  0  0.97844  0
H  H40  1  0.60539738  0.91924921  0.50170987  1  0  0.119782  0  0.926639  0  0  0.133841  0  0.983165  0  0  0.135316  0  0.983162  0  0.145127  0  0.131901  0.132626  0  0.983408  0
H  H41  1  0.39460692  0.08075670  0.00170733  1  0  0.11977  0  0.926634  0  0  0.133862  0  0.983128  0  0  0.135334  0  0.983133  0  0.145332  0  0.131935  0.13265  0  0.983362  0
H  H42  1  0.65392056  0.14294388  0.42001844  1  0  0.097479  0  0.901544  0  0  0.111911  0  0.957305  0  0  0.112443  0  0.956986  0  0.09661  0  0.125539  0.111497  0  0.957491  0
H  H43  1  0.34608230  0.85706011  0.92001844  1  0  0.097486  0  0.90163  0  0  0.111913  0  0.957372  0  0  0.112441  0  0.95706  0  0.09669  0  0.125551  0.111497  0  0.957559  0
H  H44  1  0.58333738  0.02354015  0.31702003  1  0  0.070526  0  0.929894  0  0  0.080111  0  1.000735  0  0  0.081698  0  0.998265  0  0.087226  0  0.10619  0.078777  0  1.002827  0
H  H45  1  0.41666430  0.97646288  0.81701834  1  0  0.070571  0  0.929843  0  0  0.080135  0  1.0007  0  0  0.081722  0  0.998226  0  0.087194  0  0.106182  0.0788  0  1.002794  0
C  C46  1  0.37247456  0.76919852  0.55254746  1  0  -0.33013  0  3.472238  0  0  -0.37224  0  3.722527  0  0  -0.376468  0  3.726769  0  -0.279929  0  -0.067948  -0.36945  0  3.720665  0
C  C47  1  0.62752712  0.23080451  0.05254662  1  0  -0.330285  0  3.472387  0  0  -0.3723  0  3.722487  0  0  -0.376518  0  3.726705  0  -0.280016  0  -0.06793  -0.369508  0  3.720622  0
C  C48  1  0.30859675  0.93375482  0.43697079  1  0  -0.034821  0  3.506508  0  0  -0.098818  0  3.767148  0  0  -0.096065  0  3.776549  0  0.166732  0  -0.055813  -0.100752  0  3.761277  0
C  C49  1  0.69140493  0.06624822  0.93697164  1  0  -0.034941  0  3.506492  0  0  -0.098901  0  3.767111  0  0  -0.096153  0  3.776504  0  0.166993  0  -0.055825  -0.100835  0  3.761239  0
C  C50  1  0.35290448  0.03824746  0.34810823  1  0  0.050299  0  3.603593  0  0  -0.005806  0  3.872851  0  0  0.000404  0  3.878476  0  0.390466  0  -0.067092  -0.010006  0  3.869294  0
C  C51  1  0.64709901  0.96175557  0.84810738  1  0  0.050427  0  3.603354  0  0  -0.005764  0  3.872734  0  0  0.00047  0  3.878325  0  0.390604  0  -0.067087  -0.009963  0  3.86918  0
C  C52  1  0.53267224  0.96928404  0.49006735  1  0  -0.044323  0  3.509823  0  0  -0.104396  0  3.765289  0  0  -0.102082  0  3.775273  0  0.181572  0  -0.058573  -0.105902  0  3.758862  0
C  C53  1  0.46733088  0.03072091  0.99006565  1  0  -0.044103  0  3.509782  0  0  -0.104291  0  3.765371  0  0  -0.101975  0  3.775352  0  0.181556  0  -0.058593  -0.105797  0  3.758945  0
C  C54  1  0.56703128  0.06895397  0.39694152  1  0  0.056589  0  3.613678  0  0  -0.001981  0  3.88579  0  0  0.004606  0  3.891269  0  0.400402  0  -0.066119  -0.006407  0  3.882187  0
C  C55  1  0.43297157  0.93105002  0.89694237  1  0  0.056391  0  3.613899  0  0  -0.002121  0  3.885972  0  0  0.004467  0  3.891448  0  0.400189  0  -0.066163  -0.006548  0  3.88237  0
C  C56  1  0.97874894  0.66640487  0.37707452  1  0  0.591837  0  3.909826  0  0  0.546875  0  4.208697  0  0  0.577293  0  4.197376  0  1.60911  0  0.231966  0.525839  0  4.216723  0
C  C57  1  0.02124468  0.33359528  0.87706606  1  0  0.591878  0  3.909898  0  0  0.546796  0  4.208941  0  0  0.577214  0  4.197627  0  1.608773  0  0.232025  0.52575  0  4.216975  0
C  C58  1  0.84355253  0.64112428  0.33041220  1  0  0.557332  0  3.925166  0  0  0.513429  0  4.219466  0  0  0.544492  0  4.207136  0  1.557455  0  0.221151  0.493187  0  4.221925  0
C  C59  1  0.15644317  0.35887684  0.83040374  1  0  0.557307  0  3.92501  0  0  0.513414  0  4.219354  0  0  0.544474  0  4.207025  0  1.557496  0  0.221128  0.493174  0  4.221815  0
C  C60  1  0.11521598  0.00366434  0.02876324  1  0  0.56561  0  3.910337  0  0  0.522557  0  4.204543  0  0  0.553024  0  4.194071  0  1.584869  0  0.222932  0.502055  0  4.210785  0
C  C61  1  0.88478698  0.99633677  0.52876239  1  0  0.565313  0  3.910696  0  0  0.522239  0  4.204929  0  0  0.552707  0  4.19446  0  1.585092  0  0.222806  0.501737  0  4.211165  0
C  C62  1  0.06417118  0.00390831  0.15160835  1  0  0.562598  0  3.950971  0  0  0.524005  0  4.244614  0  0  0.554135  0  4.23402  0  1.609348  0  0.21769  0.503764  0  4.250766  0
C  C63  1  0.93584294  0.99609376  0.65160665  1  0  0.562737  0  3.950996  0  0  0.524166  0  4.244596  0  0  0.554296  0  4.234002  0  1.610002  0  0.217731  0.503926  0  4.250745  0
C  C64  1  0.29170345  0.60314672  0.13654523  1  0  0.568779  0  3.91228  0  0  0.527447  0  4.201938  0  0  0.558411  0  4.189344  0  1.573274  0  0.224501  0.506949  0  4.206893  0
C  C65  1  0.70829871  0.39685151  0.63654692  1  0  0.568788  0  3.912486  0  0  0.52747  0  4.202158  0  0  0.558435  0  4.189561  0  1.573311  0  0.224505  0.50697  0  4.207116  0
C  C66  1  0.33529710  0.74557193  0.17218011  1  0  0.563362  0  3.940169  0  0  0.522402  0  4.237477  0  0  0.551971  0  4.227503  0  1.605843  0  0.220349  0.50263  0  4.241485  0
C  C67  1  0.66470543  0.25442438  0.67218265  1  0  0.56326  0  3.94017  0  0  0.522224  0  4.237614  0  0  0.551794  0  4.227639  0  1.605948  0  0.220285  0.502453  0  4.241621  0
C  C68  1  0.84539507  0.67836512  0.88094775  1  0  0.589101  0  3.866089  0  0  0.541529  0  4.159627  0  0  0.57234  0  4.148772  0  1.609417  0  0.240939  0.520525  0  4.166693  0
C  C69  1  0.15459918  0.32163407  0.38095029  1  0  0.58918  0  3.866179  0  0  0.541692  0  4.159603  0  0  0.572475  0  4.148793  0  1.609302  0  0.241068  0.520688  0  4.166664  0
C  C70  1  0.96689891  0.65138539  0.83418644  1  0  0.583901  0  3.91389  0  0  0.53801  0  4.212371  0  0  0.56855  0  4.201944  0  1.614956  0  0.230244  0.517333  0  4.218637  0
C  C71  1  0.03309204  0.34860515  0.33419151  1  0  0.583646  0  3.914259  0  0  0.537758  0  4.212694  0  0  0.568306  0  4.202276  0  1.614362  0  0.230225  0.517083  0  4.218952  0
N  N72  1  0.41059689  0.86968984  0.46162222  1  0  -0.051751  0  3.367014  0  0  0.031448  0  3.577207  0  0  0.019598  0  3.59679  0  -0.984909  0  -0.338056  0.039503  0  3.56411  0
N  N73  1  0.58940623  0.13031511  0.96162137  1  0  -0.051857  0  3.367172  0  0  0.031451  0  3.577232  0  0  0.019602  0  3.596816  0  -0.984996  0  -0.337979  0.039507  0  3.564133  0
O  O74  1  0.39889815  0.53794065  0.61155623  1  0  -0.944291  0  1.935968  0  0  -0.877314  0  2.201067  0  0  -0.901795  0  2.179544  0  -1.469825  0  -0.464302  -0.85264  0  2.217163  0
O  O75  1  0.60110251  0.46206526  0.11155115  1  0  -0.944294  0  1.935968  0  0  -0.877292  0  2.201052  0  0  -0.901769  0  2.179519  0  -1.469828  0  -0.464274  -0.852617  0  2.21715  0
O  O76  1  0.60032224  0.72560391  0.59834597  1  0  -0.980302  0  1.929515  0  0  -0.907308  0  2.206229  0  0  -0.931067  0  2.183967  0  -1.481979  0  -0.489891  -0.889765  0  2.220481  0
O  O77  1  0.39968008  0.27439816  0.09834512  1  0  -0.980319  0  1.929506  0  0  -0.907336  0  2.206245  0  0  -0.931122  0  2.184022  0  -1.482012  0  -0.489892  -0.889786  0  2.220492  0
O  O78  1  0.47815837  0.63969312  0.41743883  1  0  -0.972031  0  1.951432  0  0  -0.900052  0  2.220256  0  0  -0.925072  0  2.199045  0  -1.455352  0  -0.485788  -0.874974  0  2.236138  0
O  O79  1  0.52184016  0.36030511  0.91743798  1  0  -0.972031  0  1.951598  0  0  -0.900063  0  2.220438  0  0  -0.925084  0  2.199226  0  -1.455383  0  -0.485802  -0.874989  0  2.236325  0
O  O80  1  0.46866807  0.13141682  0.38189786  1  0  -0.324372  0  2.226185  0  0  -0.250458  0  2.466024  0  0  -0.266757  0  2.465322  0  -1.053748  0  -0.22279  -0.239164  0  2.466661  0
O  O81  1  0.53133361  0.86858621  0.88189786  1  0  -0.32432  0  2.226191  0  0  -0.250356  0  2.466002  0  0  -0.266661  0  2.465293  0  -1.053995  0  -0.222755  -0.239062  0  2.46664  0
O  O82  1  0.99188891  0.68958291  0.48237673  1  0  -0.668377  0  2.0573  0  0  -0.616008  0  2.295254  0  0  -0.638299  0  2.284307  0  -1.186148  0  -0.354392  -0.600432  0  2.30311  0
O  O83  1  0.00810898  0.31041628  0.98238096  1  0  -0.668643  0  2.057059  0  0  -0.616184  0  2.295039  0  0  -0.638483  0  2.284094  0  -1.18572  0  -0.354525  -0.600602  0  2.302901  0
O  O84  1  0.06521086  0.66262911  0.30857051  1  0  -0.645204  0  1.992223  0  0  -0.60179  0  2.231956  0  0  -0.623756  0  2.22349  0  -1.186761  0  -0.363438  -0.586553  0  2.237351  0
O  O85  1  0.93478815  0.33736432  0.80857389  1  0  -0.644959  0  1.992552  0  0  -0.601488  0  2.232308  0  0  -0.623466  0  2.223876  0  -1.186874  0  -0.363325  -0.586252  0  2.23771  0
O  O86  1  0.75151931  0.61786075  0.40002707  1  0  -0.7188  0  2.094051  0  0  -0.668193  0  2.340619  0  0  -0.690197  0  2.32988  0  -1.182443  0  -0.386695  -0.647979  0  2.346535  0
O  O87  1  0.24848029  0.38214132  0.90002707  1  0  -0.718878  0  2.093662  0  0  -0.668271  0  2.340254  0  0  -0.690281  0  2.329513  0  -1.182287  0  -0.386758  -0.648059  0  2.346175  0
O  O88  1  0.82859408  0.64701796  0.22465650  1  0  -0.673819  0  2.111701  0  0  -0.620757  0  2.356377  0  0  -0.642724  0  2.347404  0  -1.151889  0  -0.361937  -0.601071  0  2.361156  0
O  O89  1  0.17140242  0.35298603  0.72465819  1  0  -0.673799  0  2.112069  0  0  -0.620692  0  2.356676  0  0  -0.642673  0  2.347747  0  -1.151949  0  -0.361883  -0.601009  0  2.361453  0
O  O90  1  0.10824108  0.89768387  0.98283698  1  0  -0.629612  0  2.024876  0  0  -0.584954  0  2.260732  0  0  -0.606024  0  2.251278  0  -1.167098  0  -0.356131  -0.570362  0  2.266803  0
O  O91  1  0.89174859  0.10230860  0.48284206  1  0  -0.629432  0  2.025234  0  0  -0.584762  0  2.261085  0  0  -0.605833  0  2.251632  0  -1.167234  0  -0.356022  -0.570169  0  2.267154  0
O  O92  1  0.16349480  0.11447248  0.98500288  1  0  -0.679746  0  2.109036  0  0  -0.619844  0  2.345165  0  0  -0.644861  0  2.335329  0  -1.199147  0  -0.359863  -0.602454  0  2.351584  0
O  O93  1  0.83650085  0.88552191  0.48500372  1  0  -0.679642  0  2.108988  0  0  -0.619744  0  2.345107  0  0  -0.644761  0  2.335277  0  -1.199206  0  -0.359861  -0.602362  0  2.351525  0
O  O94  1  0.00484986  0.89632187  0.19326204  1  0  -0.663071  0  2.016301  0  0  -0.615328  0  2.251189  0  0  -0.637194  0  2.241012  0  -1.190984  0  -0.377129  -0.600081  0  2.25773  0
O  O95  1  0.99517072  0.10367732  0.69325189  1  0  -0.663097  0  2.016409  0  0  -0.615373  0  2.251305  0  0  -0.637234  0  2.241121  0  -1.191717  0  -0.377175  -0.600126  0  2.257848  0
O  O96  1  0.08759292  0.11154869  0.20072253  1  0  -0.658372  0  2.0334  0  0  -0.613467  0  2.27305  0  0  -0.635371  0  2.262909  0  -1.185295  0  -0.379584  -0.598043  0  2.279474  0
O  O97  1  0.91242777  0.88844762  0.70071914  1  0  -0.658363  0  2.033267  0  0  -0.613465  0  2.272886  0  0  -0.635366  0  2.262752  0  -1.185281  0  -0.379526  -0.598043  0  2.279306  0
O  O98  1  0.36673838  0.53457215  0.15147890  1  0  -0.729414  0  2.142127  0  0  -0.679359  0  2.391898  0  0  -0.700883  0  2.380561  0  -1.204085  0  -0.386764  -0.658484  0  2.399323  0
O  O99  1  0.63326276  0.46542896  0.65148821  1  0  -0.729469  0  2.142144  0  0  -0.679424  0  2.391936  0  0  -0.700944  0  2.380596  0  -1.20404  0  -0.386797  -0.65855  0  2.399363  0
O  O100  1  0.18152788  0.55818530  0.09615892  1  0  -0.701065  0  2.12046  0  0  -0.645921  0  2.366522  0  0  -0.668123  0  2.35767  0  -1.186338  0  -0.369952  -0.630775  0  2.372369  0
O  O101  1  0.81846767  0.44181197  0.59616315  1  0  -0.70097  0  2.120638  0  0  -0.645835  0  2.366714  0  0  -0.668034  0  2.357867  0  -1.186336  0  -0.369905  -0.630687  0  2.372562  0
O  O102  1  0.44183775  0.78263796  0.22097025  1  0  -0.648941  0  2.023585  0  0  -0.609531  0  2.26667  0  0  -0.630995  0  2.257277  0  -1.186106  0  -0.344682  -0.589773  0  2.273201  0
O  O103  1  0.55815752  0.21735835  0.72096941  1  0  -0.64895  0  2.02338  0  0  -0.609481  0  2.266456  0  0  -0.63095  0  2.257073  0  -1.186126  0  -0.344678  -0.589725  0  2.272986  0
O  O104  1  0.26042248  0.81172985  0.15052371  1  0  -0.652211  0  2.021525  0  0  -0.606887  0  2.263896  0  0  -0.629937  0  2.25731  0  -1.169923  0  -0.356374  -0.591067  0  2.267949  0
O  O105  1  0.73957242  0.18826838  0.65052455  1  0  -0.652115  0  2.021726  0  0  -0.606769  0  2.26415  0  0  -0.629817  0  2.257565  0  -1.169989  0  -0.356311  -0.590948  0  2.268203  0
O  O106  1  0.75351639  0.66643753  0.81353091  1  0  -0.663109  0  2.086164  0  0  -0.607956  0  2.32694  0  0  -0.631072  0  2.316068  0  -1.201687  0  -0.347662  -0.59183  0  2.333881  0
O  O107  1  0.24648897  0.33357223  0.31352668  1  0  -0.663073  0  2.085744  0  0  -0.607991  0  2.326547  0  0  -0.631107  0  2.315692  0  -1.201395  0  -0.347714  -0.591872  0  2.333512  0
O  O108  1  0.84594232  0.70981410  0.98414921  1  0  -0.640606  0  2.100823  0  0  -0.57868  0  2.333837  0  0  -0.602924  0  2.324046  0  -1.182167  0  -0.3424  -0.561929  0  2.340122  0
O  O109  1  0.15405739  0.29018509  0.48414329  1  0  -0.640649  0  2.10122  0  0  -0.578763  0  2.334205  0  0  -0.602992  0  2.324426  0  -1.182291  0  -0.342474  -0.562014  0  2.340488  0
O  O110  1  0.97563042  0.64875936  0.72755339  1  0  -0.663739  0  2.119571  0  0  -0.606763  0  2.354829  0  0  -0.6305  0  2.344313  0  -1.172316  0  -0.345922  -0.589933  0  2.361389  0
O  O111  1  0.02436624  0.35123215  0.22754408  1  0  -0.66375  0  2.119222  0  0  -0.606732  0  2.354445  0  0  -0.630486  0  2.343932  0  -1.171795  0  -0.345926  -0.589896  0  2.360998  0
O  O112  1  0.04590296  0.63215504  0.90420403  1  0  -0.639814  0  2.002472  0  0  -0.59339  0  2.239237  0  0  -0.615241  0  2.229284  0  -1.175983  0  -0.372988  -0.57802  0  2.24535  0
O  O113  1  0.95409312  0.36782782  0.40419642  1  0  -0.639571  0  2.002877  0  0  -0.593169  0  2.239637  0  0  -0.61502  0  2.22969  0  -1.175908  0  -0.372929  -0.577803  0  2.245749  0
O  O114  1  0.89913019  0.46641829  0.09386358  1  0  -0.866733  0  1.860578  0  0  -0.822458  0  2.038749  0  0  -0.840614  0  2.009275  0  -1.266023  0  -0.63446  -0.809505  0  2.059327  0
O  O115  1  0.10086599  0.53357802  0.59385681  1  0  -0.866583  0  1.860881  0  0  -0.822325  0  2.038934  0  0  -0.840467  0  2.009499  0  -1.265623  0  -0.634443  -0.809387  0  2.059487  0
O  O116  1  0.50237057  0.40434540  0.34317659  1  0  -0.877556  0  1.844459  0  0  -0.841982  0  2.029574  0  0  -0.857452  0  1.998146  0  -1.252843  0  -0.620589  -0.825045  0  2.05389  0
O  O117  1  0.49762849  0.59565475  0.84317828  1  0  -0.877477  0  1.844543  0  0  -0.841912  0  2.029676  0  0  -0.857383  0  1.998252  0  -1.253229  0  -0.620519  -0.824979  0  2.053989  0
O  O118  1  0.64459939  0.76061061  0.06863176  1  0  -0.916506  0  1.840355  0  0  -0.874498  0  2.032355  0  0  -0.891893  0  1.998122  0  -1.288982  0  -0.63924  -0.855939  0  2.059113  0
O  O119  1  0.35539748  0.23939146  0.56863176  1  0  -0.916611  0  1.840272  0  0  -0.874587  0  2.032306  0  0  -0.891979  0  1.998074  0  -1.289014  0  -0.639214  -0.85603  0  2.059053  0
O  O120  1  0.71210867  0.85400857  0.29155132  1  0  -0.891916  0  1.822105  0  0  -0.852915  0  2.011783  0  0  -0.869562  0  1.980091  0  -1.257339  0  -0.622896  -0.835557  0  2.037119  0
O  O121  1  0.28788586  0.14599158  0.79154963  1  0  -0.891947  0  1.822083  0  0  -0.852937  0  2.011727  0  0  -0.869587  0  1.980036  0  -1.257078  0  -0.622879  -0.835557  0  2.037099  0
