# generated using pymatgen
data_YbH9C14(SO5)2
_symmetry_space_group_name_H-M   'P 1'
_cell_length_a   7.33845412
_cell_length_b   7.83583846
_cell_length_c   13.64330299
_cell_angle_alpha   85.88612281
_cell_angle_beta   86.94362552
_cell_angle_gamma   85.70594240
_symmetry_Int_Tables_number   1
_chemical_formula_structural   YbH9C14(SO5)2
_chemical_formula_sum   'Yb2 H18 C28 S4 O20'
_cell_volume   779.40489311
_cell_formula_units_Z   2
loop_
 _symmetry_equiv_pos_site_id
 _symmetry_equiv_pos_as_xyz
  1  'x, y, z'
loop_
 _atom_site_type_symbol
 _atom_site_label
 _atom_site_symmetry_multiplicity
 _atom_site_fract_x
 _atom_site_fract_y
 _atom_site_fract_z
 _atom_site_occupancy
 _atom_site_hle17_bader_spin_density
 _atom_site_hle17_ddec_charge
 _atom_site_hle17_ddec_spin_density
 _atom_site_hle17_ddec_sum_bond_order
 _atom_site_hle17_magmom
 _atom_site_hse06_10hf_bader_spin_density
 _atom_site_hse06_10hf_ddec_charge
 _atom_site_hse06_10hf_ddec_spin_density
 _atom_site_hse06_10hf_ddec_sum_bond_order
 _atom_site_hse06_10hf_magmom
 _atom_site_hse06_bader_spin_density
 _atom_site_hse06_ddec_charge
 _atom_site_hse06_ddec_spin_density
 _atom_site_hse06_ddec_sum_bond_order
 _atom_site_hse06_magmom
 _atom_site_pbe_bader_spin_density
 _atom_site_pbe_cm5_charge
 _atom_site_pbe_ddec_charge
 _atom_site_pbe_ddec_spin_density
 _atom_site_pbe_ddec_sum_bond_order
 _atom_site_pbe_magmom
Yb  Yb0  1  0.32852733  0.17120515  0.51504202  1  0  2.326446  0  1.76341  0  0  2.35611  0  1.933322  0  0  2.398224  0  1.892117  0  0  1.608829  2.25161  0  2.09433  0
Yb  Yb1  1  0.67147056  0.82879809  0.48495762  1  0  2.326416  0  1.763467  0  0  2.356102  0  1.93335  0  0  2.398217  0  1.892145  0  0  1.608831  2.251613  0  2.094347  0
H  H2  1  0.96627183  0.57155894  0.77693384  1  0  0.122646  0  0.935157  0  0  0.127984  0  1.000848  0  0  0.132696  0  0.99696  0  0  0.115642  0.124415  0  1.004045  0
H  H3  1  0.03373302  0.42843889  0.22306804  1  0  0.122626  0  0.935109  0  0  0.127961  0  1.000814  0  0  0.132672  0  0.996926  0  0  0.115633  0.124395  0  1.004016  0
H  H4  1  0.95458325  0.12587756  0.75820193  1  0  0.123878  0  0.930725  0  0  0.132955  0  0.988546  0  0  0.136709  0  0.985924  0  0  0.117216  0.130011  0  0.991003  0
H  H5  1  0.04541244  0.87412075  0.24179623  1  0  0.123872  0  0.930843  0  0  0.132992  0  0.988592  0  0  0.136747  0  0.985968  0  0  0.117246  0.130051  0  0.991054  0
H  H6  1  0.79804280  0.12934896  0.92355048  1  0  0.115039  0  0.981646  0  0  0.117758  0  1.052781  0  0  0.122355  0  1.049256  0  0  0.108318  0.11444  0  1.055412  0
H  H7  1  0.20195538  0.87065044  0.07644916  1  0  0.115049  0  0.981678  0  0  0.117777  0  1.052792  0  0  0.12237  0  1.049278  0  0  0.108355  0.114467  0  1.055421  0
H  H8  1  0.52549270  0.81715568  0.21792947  1  0  0.12109  0  0.931454  0  0  0.1268  0  0.998036  0  0  0.131603  0  0.993756  0  0  0.120826  0.123309  0  1.001172  0
H  H9  1  0.47450570  0.18284397  0.78206796  1  0  0.12109  0  0.931459  0  0  0.126799  0  0.998018  0  0  0.131602  0  0.993739  0  0  0.120822  0.123277  0  1.001182  0
H  H10  1  0.52989850  0.26306323  0.23439038  1  0  0.127487  0  0.917403  0  0  0.137809  0  0.972072  0  0  0.141669  0  0.96958  0  0  0.121503  0.134768  0  0.974453  0
H  H11  1  0.47010077  0.73693864  0.76561000  1  0  0.127488  0  0.91739  0  0  0.137805  0  0.97206  0  0  0.141664  0  0.969568  0  0  0.121504  0.134763  0  0.974445  0
H  H12  1  0.69665684  0.26030988  0.07086772  1  0  0.118509  0  0.983995  0  0  0.120829  0  1.054912  0  0  0.125694  0  1.050895  0  0  0.108496  0.117348  0  1.057836  0
H  H13  1  0.30334536  0.73968805  0.92913341  1  0  0.118478  0  0.984074  0  0  0.120856  0  1.054916  0  0  0.125721  0  1.050903  0  0  0.108508  0.117375  0  1.057846  0
H  H14  1  0.97428667  0.35081262  0.59480917  1  0  0.457998  0  0.827758  0  0  0.430232  0  0.8841  0  0  0.440182  0  0.869469  0  0  0.307486  0.422613  0  0.895234  0
H  H15  1  0.02571252  0.64918917  0.40519194  1  0  0.457975  0  0.827786  0  0  0.430213  0  0.884121  0  0  0.440162  0  0.869491  0  0  0.307472  0.422596  0  0.895253  0
H  H16  1  0.13267419  0.47795723  0.59453441  1  0  0.458454  0  0.829233  0  0  0.428856  0  0.889896  0  0  0.438964  0  0.874985  0  0  0.306139  0.421232  0  0.901029  0
H  H17  1  0.86732518  0.52204336  0.40546596  1  0  0.45847  0  0.829208  0  0  0.428874  0  0.889871  0  0  0.438981  0  0.874962  0  0  0.306149  0.421251  0  0.901003  0
H  H18  1  0.33521898  0.89676132  0.39238132  1  0  0.445806  0  0.841612  0  0  0.41849  0  0.900622  0  0  0.427574  0  0.887203  0  0  0.292988  0.411446  0  0.910481  0
H  H19  1  0.66477895  0.10323920  0.60761979  1  0  0.445795  0  0.841631  0  0  0.418467  0  0.900662  0  0  0.427554  0  0.88724  0  0  0.292981  0.411424  0  0.910519  0
C  C20  1  0.92894661  0.69426404  0.80800724  1  0  -0.05112  0  3.690114  0  0  -0.090278  0  3.944769  0  0  -0.088851  0  3.963707  0  0  -0.064765  -0.0912  0  3.932558  0
C  C21  1  0.07105703  0.30573396  0.19199316  1  0  -0.051054  0  3.689976  0  0  -0.090222  0  3.94461  0  0  -0.088795  0  3.963548  0  0  -0.064734  -0.091146  0  3.932396  0
C  C22  1  0.96857013  0.84868624  0.75752555  1  0  -0.103507  0  3.694877  0  0  -0.074443  0  3.937827  0  0  -0.081702  0  3.959143  0  0  -0.000842  -0.070246  0  3.925117  0
C  C23  1  0.03143072  0.15131034  0.24247631  1  0  -0.103515  0  3.694874  0  0  -0.074446  0  3.937807  0  0  -0.081706  0  3.959123  0  0  -0.000811  -0.070245  0  3.925094  0
C  C24  1  0.92178556  0.00601331  0.79832638  1  0  -0.017844  0  3.650365  0  0  -0.045866  0  3.898681  0  0  -0.044079  0  3.916427  0  0  -0.060994  -0.047151  0  3.88764  0
C  C25  1  0.07821125  0.99398610  0.20167325  1  0  -0.017872  0  3.650478  0  0  -0.045907  0  3.898748  0  0  -0.044119  0  3.916495  0  0  -0.06102  -0.047192  0  3.887717  0
C  C26  1  0.83296139  0.00772782  0.89096383  1  0  -0.048789  0  3.658861  0  0  -0.074207  0  3.916747  0  0  -0.077085  0  3.935995  0  0  -0.067179  -0.07226  0  3.903704  0
C  C27  1  0.16703960  0.99227029  0.10903582  1  0  -0.048786  0  3.658735  0  0  -0.074221  0  3.916664  0  0  -0.077102  0  3.935909  0  0  -0.067218  -0.072277  0  3.90363  0
C  C28  1  0.56047940  0.69443965  0.18623606  1  0  -0.042987  0  3.660134  0  0  -0.080813  0  3.912377  0  0  -0.078578  0  3.929261  0  0  -0.057683  -0.08204  0  3.900901  0
C  C29  1  0.43952012  0.30556112  0.81376285  1  0  -0.043077  0  3.660084  0  0  -0.080864  0  3.912322  0  0  -0.078637  0  3.929202  0  0  -0.057685  -0.082056  0  3.900846  0
C  C30  1  0.51650543  0.53944454  0.23510429  1  0  -0.102171  0  3.693503  0  0  -0.077476  0  3.943549  0  0  -0.084536  0  3.964665  0  0  -0.00232  -0.073313  0  3.930773  0
C  C31  1  0.48349402  0.46055614  0.76489535  1  0  -0.10213  0  3.69348  0  0  -0.077445  0  3.943516  0  0  -0.084506  0  3.964634  0  0  -0.002304  -0.073278  0  3.930718  0
C  C32  1  0.56400455  0.38264498  0.19437624  1  0  -0.022782  0  3.673879  0  0  -0.052654  0  3.930311  0  0  -0.051253  0  3.948917  0  0  -0.063468  -0.05366  0  3.918725  0
C  C33  1  0.43599627  0.61735432  0.80562414  1  0  -0.022769  0  3.673888  0  0  -0.052622  0  3.93031  0  0  -0.05122  0  3.948916  0  0  -0.063464  -0.053628  0  3.918724  0
C  C34  1  0.65816541  0.38178067  0.10300661  1  0  -0.064566  0  3.678681  0  0  -0.090488  0  3.941339  0  0  -0.093904  0  3.961713  0  0  -0.07402  -0.08822  0  3.927615  0
C  C35  1  0.34183534  0.61821855  0.89699452  1  0  -0.064585  0  3.678734  0  0  -0.090556  0  3.941386  0  0  -0.093975  0  3.96176  0  0  -0.074038  -0.088289  0  3.927665  0
C  C36  1  0.80421436  0.53098312  0.95551150  1  0  0.374102  0  3.766006  0  0  0.351517  0  4.032429  0  0  0.372671  0  4.036624  0  0  0.157744  0.337112  0  4.029422  0
C  C37  1  0.19579083  0.46901232  0.04448891  1  0  0.374037  0  3.765915  0  0  0.351525  0  4.032224  0  0  0.372676  0  4.036423  0  0  0.157752  0.337122  0  4.029223  0
C  C38  1  0.69879324  0.85870887  0.04239316  1  0  0.390072  0  3.733774  0  0  0.368044  0  3.997345  0  0  0.389819  0  3.99998  0  0  0.166431  0.353206  0  3.995465  0
C  C39  1  0.30121175  0.14129049  0.95760651  1  0  0.389961  0  3.733766  0  0  0.367998  0  3.997313  0  0  0.389769  0  3.99994  0  0  0.166414  0.353172  0  3.995429  0
C  C40  1  0.79161814  0.85395586  0.94309978  1  0  -0.024923  0  3.714258  0  0  -0.018246  0  3.949341  0  0  -0.021227  0  3.971631  0  0  -0.000781  -0.016115  0  3.934203  0
C  C41  1  0.20838414  0.14604216  0.05690061  1  0  -0.024856  0  3.714004  0  0  -0.018239  0  3.949128  0  0  -0.02122  0  3.97142  0  0  -0.00075  -0.016113  0  3.934005  0
C  C42  1  0.84045730  0.69655291  0.90134840  1  0  -0.046833  0  3.748619  0  0  -0.033914  0  3.98498  0  0  -0.041052  0  4.010116  0  0  -0.007182  -0.029147  0  3.967939  0
C  C43  1  0.15954735  0.30344884  0.09865273  1  0  -0.046818  0  3.748663  0  0  -0.033881  0  3.984983  0  0  -0.041019  0  4.010122  0  0  -0.007216  -0.029109  0  3.967936  0
C  C44  1  0.70277371  0.53578422  0.05241253  1  0  -0.03787  0  3.743127  0  0  -0.030824  0  3.980243  0  0  -0.034432  0  4.003953  0  0  -0.00611  -0.028221  0  3.964012  0
C  C45  1  0.29722702  0.46421636  0.94758786  1  0  -0.037782  0  3.743086  0  0  -0.030756  0  3.980229  0  0  -0.034367  0  4.003933  0  0  -0.006087  -0.028144  0  3.964011  0
C  C46  1  0.65321407  0.69313476  0.09412189  1  0  -0.035598  0  3.722131  0  0  -0.023514  0  3.95674  0  0  -0.029789  0  3.97995  0  0  -0.004162  -0.01936  0  3.941061  0
C  C47  1  0.34678530  0.30686583  0.90587849  1  0  -0.03553  0  3.722069  0  0  -0.02351  0  3.956728  0  0  -0.029765  0  3.979912  0  0  -0.004176  -0.019397  0  3.941089  0
S  S48  1  0.07370899  0.84599108  0.63712379  1  0  1.409794  0  5.553473  0  0  1.309247  0  6.079566  0  0  1.359275  0  6.051135  0  0  0.561528  1.272928  0  6.094384  0
S  S49  1  0.92629062  0.15400840  0.36287512  1  0  1.409768  0  5.553804  0  0  1.309211  0  6.079913  0  0  1.359237  0  6.051485  0  0  0.561498  1.272894  0  6.094725  0
S  S50  1  0.40644567  0.54586127  0.35400254  1  0  1.415753  0  5.522758  0  0  1.314513  0  6.045835  0  0  1.364343  0  6.018153  0  0  0.563309  1.278283  0  6.060586  0
S  S51  1  0.59355249  0.45413950  0.64599636  1  0  1.415836  0  5.522633  0  0  1.314606  0  6.045708  0  0  1.364437  0  6.018027  0  0  0.563343  1.278372  0  6.060466  0
O  O52  1  0.18922204  0.99341210  0.62919785  1  0  -0.772755  0  2.048945  0  0  -0.744772  0  2.32046  0  0  -0.765328  0  2.300795  0  0  -0.417856  -0.717899  0  2.335518  0
O  O53  1  0.81077714  0.00659105  0.37080253  1  0  -0.772696  0  2.049019  0  0  -0.744716  0  2.320529  0  0  -0.765271  0  2.300869  0  0  -0.417849  -0.717836  0  2.335569  0
O  O54  1  0.92240958  0.87410008  0.57037401  1  0  -0.769473  0  2.128223  0  0  -0.732893  0  2.400402  0  0  -0.755558  0  2.38423  0  0  -0.410349  -0.706346  0  2.413462  0
O  O55  1  0.07758695  0.12590317  0.42962562  1  0  -0.76945  0  2.128339  0  0  -0.732849  0  2.400487  0  0  -0.755514  0  2.384319  0  0  -0.410299  -0.706301  0  2.413548  0
O  O56  1  0.17790155  0.68166190  0.62924740  1  0  -0.644437  0  1.978414  0  0  -0.589789  0  2.222088  0  0  -0.611371  0  2.207718  0  0  -0.305131  -0.575272  0  2.232613  0
O  O57  1  0.82209693  0.31833784  0.37074930  1  0  -0.644493  0  1.978515  0  0  -0.589832  0  2.222144  0  0  -0.611411  0  2.207772  0  0  -0.305174  -0.575327  0  2.232677  0
O  O58  1  0.36756872  0.36747495  0.38427041  1  0  -0.765112  0  2.057234  0  0  -0.7402  0  2.334058  0  0  -0.760537  0  2.315792  0  0  -0.406754  -0.713442  0  2.348808  0
O  O59  1  0.63242942  0.63252718  0.61572775  1  0  -0.765128  0  2.057186  0  0  -0.740206  0  2.333973  0  0  -0.760542  0  2.315704  0  0  -0.406753  -0.71345  0  2.348727  0
O  O60  1  0.54022943  0.61197913  0.41501776  1  0  -0.762852  0  2.141131  0  0  -0.726029  0  2.418776  0  0  -0.748729  0  2.402466  0  0  -0.403723  -0.699058  0  2.430231  0
O  O61  1  0.45976882  0.38802036  0.58498114  1  0  -0.762879  0  2.141093  0  0  -0.726074  0  2.418784  0  0  -0.748773  0  2.402472  0  0  -0.403744  -0.699104  0  2.430244  0
O  O62  1  0.24149018  0.66234452  0.34454104  1  0  -0.66165  0  1.942928  0  0  -0.599576  0  2.17331  0  0  -0.621954  0  2.158093  0  0  -0.310652  -0.584891  0  2.185509  0
O  O63  1  0.75850926  0.33765615  0.65545860  1  0  -0.661679  0  1.942889  0  0  -0.599605  0  2.173264  0  0  -0.621987  0  2.15805  0  0  -0.310666  -0.584916  0  2.185457  0
O  O64  1  0.65964408  0.99533652  0.08128598  1  0  -0.440783  0  1.946676  0  0  -0.395361  0  2.15501  0  0  -0.412858  0  2.152929  0  0  -0.241697  -0.383514  0  2.156471  0
O  O65  1  0.34035954  0.00466285  0.91871368  1  0  -0.44077  0  1.946722  0  0  -0.395371  0  2.155033  0  0  -0.412869  0  2.152953  0  0  -0.241718  -0.383523  0  2.156487  0
O  O66  1  0.85989845  0.39329925  0.92136597  1  0  -0.441941  0  1.948129  0  0  -0.397377  0  2.161035  0  0  -0.414499  0  2.159382  0  0  -0.243577  -0.385754  0  2.162156  0
O  O67  1  0.14010212  0.60670116  0.07863589  1  0  -0.441994  0  1.947933  0  0  -0.397441  0  2.160779  0  0  -0.414563  0  2.159125  0  0  -0.243607  -0.385821  0  2.161908  0
O  O68  1  0.42098024  0.95680201  0.42683781  1  0  -1.201398  0  1.758445  0  0  -1.198583  0  1.975968  0  0  -1.223086  0  1.947543  0  0  -0.840642  -1.155338  0  2.005464  0
O  O69  1  0.57901629  0.04320124  0.57316182  1  0  -1.201385  0  1.758432  0  0  -1.198547  0  1.975924  0  0  -1.223049  0  1.947497  0  0  -0.840626  -1.155288  0  2.005388  0
O  O70  1  0.10533943  0.36217457  0.57775901  1  0  -0.947655  0  1.85967  0  0  -0.923859  0  2.044203  0  0  -0.941385  0  2.011716  0  0  -0.666574  -0.900304  0  2.072655  0
O  O71  1  0.89465986  0.63782594  0.42224211  1  0  -0.947641  0  1.859673  0  0  -0.923858  0  2.044207  0  0  -0.941384  0  2.011719  0  0  -0.666565  -0.900301  0  2.072655  0
