# generated using pymatgen
data_CdH8C14S(NO)4
_symmetry_space_group_name_H-M   'P 1'
_cell_length_a   13.16534556
_cell_length_b   13.64793688
_cell_length_c   19.48353773
_cell_angle_alpha   98.34673655
_cell_angle_beta   90.00018683
_cell_angle_gamma   89.99959668
_symmetry_Int_Tables_number   1
_chemical_formula_structural   CdH8C14S(NO)4
_chemical_formula_sum   'Cd8 H64 C112 S8 N32 O32'
_cell_volume   3463.71678417
_cell_formula_units_Z   8
loop_
 _symmetry_equiv_pos_site_id
 _symmetry_equiv_pos_as_xyz
  1  'x, y, z'
loop_
 _atom_site_type_symbol
 _atom_site_label
 _atom_site_symmetry_multiplicity
 _atom_site_fract_x
 _atom_site_fract_y
 _atom_site_fract_z
 _atom_site_occupancy
 _atom_site_pbe_bader_charge
 _atom_site_pbe_bader_spin_density
 _atom_site_pbe_cm5_charge
 _atom_site_pbe_ddec_charge
 _atom_site_pbe_ddec_spin_density
 _atom_site_pbe_ddec_sum_bond_order
 _atom_site_pbe_magmom
Cd  Cd0  1  0.18455591  0.15039281  0.30169047  1  1.28132  0  0.778374  0.874535  0  2.199198  0
Cd  Cd1  1  0.18455691  0.34960794  0.69831187  1  1.281283  0  0.778393  0.874584  0  2.199191  0
Cd  Cd2  1  0.81544396  0.84961041  0.69831181  1  1.281347  0  0.778374  0.874506  0  2.199232  0
Cd  Cd3  1  0.81543993  0.65039747  0.30168805  1  1.281337  0  0.778384  0.874536  0  2.199348  0
Cd  Cd4  1  0.31260654  0.90659331  0.20640230  1  1.279786  0  0.781703  0.865766  0  2.191876  0
Cd  Cd5  1  0.31260606  0.59341121  0.79359872  1  1.27982  0  0.781695  0.865772  0  2.191904  0
Cd  Cd6  1  0.68739257  0.09341437  0.79360092  1  1.279648  0  0.781674  0.865759  0  2.191913  0
Cd  Cd7  1  0.68739381  0.40658899  0.20639865  1  1.279767  0  0.781646  0.86564  0  2.191976  0
H  H8  1  0.29445870  0.85090417  0.35436883  1  0.101054  0  0.122629  0.098618  0  0.982555  0
H  H9  1  0.29446242  0.64908786  0.64562994  1  0.101158  0  0.122652  0.098644  0  0.98259  0
H  H10  1  0.70554877  0.14908492  0.64562697  1  0.100951  0  0.122698  0.098688  0  0.982475  0
H  H11  1  0.70554354  0.35090123  0.35436586  1  0.101047  0  0.122647  0.098608  0  0.982475  0
H  H12  1  0.39198476  0.83256093  0.46089423  1  0.065004  0  0.107951  0.112155  0  1.003715  0
H  H13  1  0.39198783  0.66743126  0.53910835  1  0.065211  0  0.107995  0.112254  0  1.003729  0
H  H14  1  0.60801436  0.16742451  0.53910533  1  0.0652  0  0.107966  0.112262  0  1.003699  0
H  H15  1  0.60801281  0.33255117  0.46088732  1  0.065536  0  0.108006  0.112191  0  1.003688  0
H  H16  1  0.65576072  0.94241448  0.36273579  1  0.127199  0  0.115954  0.129852  0  0.992729  0
H  H17  1  0.65576506  0.55758115  0.63726513  1  0.127198  0  0.115933  0.129846  0  0.992808  0
H  H18  1  0.34424220  0.05758435  0.63726966  1  0.127244  0  0.115956  0.12988  0  0.992745  0
H  H19  1  0.34423710  0.44241903  0.36273019  1  0.127131  0  0.115968  0.129876  0  0.9929  0
H  H20  1  0.54767059  0.95429740  0.26097708  1  0.116205  0  0.11674  0.083262  0  1.004857  0
H  H21  1  0.54767703  0.54570119  0.73902697  1  0.11607  0  0.116762  0.083263  0  1.00488  0
H  H22  1  0.45233688  0.04570809  0.73902849  1  0.116093  0  0.116737  0.083209  0  1.004954  0
H  H23  1  0.45232740  0.45429977  0.26097202  1  0.116059  0  0.116749  0.08325  0  1.004906  0
H  H24  1  0.46852213  0.87570802  0.55652480  1  0.062342  0  0.10631  0.110099  0  1.011852  0
H  H25  1  0.46852201  0.62428812  0.44347884  1  0.062306  0  0.106334  0.110136  0  1.011786  0
H  H26  1  0.53147698  0.12428560  0.44347810  1  0.062322  0  0.106305  0.11008  0  1.011934  0
H  H27  1  0.53147786  0.37571140  0.55652309  1  0.062305  0  0.106349  0.110122  0  1.011851  0
H  H28  1  0.57967866  0.85643753  0.65618510  1  0.145138  0  0.115302  0.088194  0  1.021341  0
H  H29  1  0.57967032  0.64356973  0.34381882  1  0.145131  0  0.115341  0.088299  0  1.02128  0
H  H30  1  0.42032198  0.14356427  0.34382064  1  0.145241  0  0.115369  0.088298  0  1.02133  0
H  H31  1  0.42032044  0.35643863  0.65617984  1  0.145254  0  0.115353  0.088319  0  1.021227  0
H  H32  1  0.83989713  0.85925830  0.53642048  1  0.154227  0  0.116017  0.094714  0  1.02468  0
H  H33  1  0.83989395  0.64073833  0.46357887  1  0.154297  0  0.116002  0.094682  0  1.024763  0
H  H34  1  0.16010807  0.14073908  0.46358689  1  0.154205  0  0.116028  0.094692  0  1.024802  0
H  H35  1  0.16010289  0.35924634  0.53641805  1  0.154066  0  0.116046  0.094751  0  1.024754  0
H  H36  1  0.74022226  0.87649202  0.43171569  1  0.117454  0  0.109864  0.120755  0  1.039908  0
H  H37  1  0.74022578  0.62349564  0.56828413  1  0.117403  0  0.109858  0.120775  0  1.039917  0
H  H38  1  0.25978294  0.12349793  0.56828943  1  0.117569  0  0.109873  0.120723  0  1.039981  0
H  H39  1  0.25977637  0.37648609  0.43171456  1  0.117438  0  0.109881  0.120796  0  1.039897  0
H  H40  1  0.21200113  0.12987872  0.13717080  1  0.070958  0  0.115807  0.092366  0  1.008358  0
H  H41  1  0.21200733  0.37012110  0.86282997  1  0.070896  0  0.115731  0.092279  0  1.008407  0
H  H42  1  0.78799799  0.87011485  0.86282799  1  0.070998  0  0.115768  0.092332  0  1.008339  0
H  H43  1  0.78799863  0.62988806  0.13717339  1  0.071023  0  0.115783  0.092339  0  1.008375  0
H  H44  1  0.11640828  0.11587976  0.02630184  1  0.049506  0  0.105749  0.111159  0  1.012771  0
H  H45  1  0.11641416  0.38412212  0.97369532  1  0.049542  0  0.105676  0.111057  0  1.012815  0
H  H46  1  0.88358324  0.88411380  0.97369644  1  0.049448  0  0.105762  0.111186  0  1.012748  0
H  H47  1  0.88358724  0.61588181  0.02630394  1  0.049517  0  0.105696  0.111066  0  1.012834  0
H  H48  1  0.83986840  0.14561010  0.14928997  1  0.092033  0  0.112619  0.133437  0  1.009683  0
H  H49  1  0.83987086  0.35438406  0.85070443  1  0.092056  0  0.112633  0.133453  0  1.009684  0
H  H50  1  0.16012691  0.85439684  0.85071318  1  0.092122  0  0.112629  0.133425  0  1.009752  0
H  H51  1  0.16012978  0.64560131  0.14928999  1  0.092072  0  0.112627  0.133405  0  1.009754  0
H  H52  1  0.94744802  0.15549927  0.25295210  1  0.12163  0  0.120016  0.099682  0  1.002669  0
H  H53  1  0.94745233  0.34449494  0.74704253  1  0.121615  0  0.119985  0.099587  0  1.002678  0
H  H54  1  0.05255034  0.84450319  0.74704754  1  0.12161  0  0.119988  0.099655  0  1.002675  0
H  H55  1  0.05255515  0.65549563  0.25295289  1  0.121587  0  0.12  0.099652  0  1.00265  0
H  H56  1  0.02907882  0.15302134  0.94364322  1  0.084816  0  0.108266  0.114398  0  1.003934  0
H  H57  1  0.02908357  0.34697747  0.05635911  1  0.084758  0  0.108261  0.114376  0  1.003972  0
H  H58  1  0.97091574  0.84697972  0.05636244  1  0.084776  0  0.10828  0.114403  0  1.003984  0
H  H59  1  0.97091783  0.65302724  0.94364331  1  0.084783  0  0.108265  0.11438  0  1.003959  0
H  H60  1  0.91937353  0.13484184  0.83925646  1  0.138263  0  0.120933  0.098423  0  0.997179  0
H  H61  1  0.91938093  0.36516001  0.16074346  1  0.138197  0  0.120906  0.098401  0  0.997216  0
H  H62  1  0.08062483  0.86515622  0.16074687  1  0.138167  0  0.1209  0.098375  0  0.997191  0
H  H63  1  0.08061895  0.63484985  0.83925688  1  0.138146  0  0.120908  0.098387  0  0.997182  0
H  H64  1  0.66684135  0.07262223  0.95225880  1  0.085893  0  0.113976  0.085439  0  1.015778  0
H  H65  1  0.66684547  0.42737388  0.04774157  1  0.086011  0  0.113945  0.085403  0  1.015586  0
H  H66  1  0.33315625  0.92737286  0.04774321  1  0.08597  0  0.113952  0.085396  0  1.015623  0
H  H67  1  0.33315289  0.57262114  0.95225531  1  0.085948  0  0.11396  0.085373  0  1.015735  0
H  H68  1  0.76475152  0.08073808  0.06006783  1  0.134863  0  0.103949  0.112988  0  1.069545  0
H  H69  1  0.76475697  0.41925963  0.93993393  1  0.134904  0  0.103905  0.112912  0  1.069524  0
H  H70  1  0.23524684  0.91925852  0.93993638  1  0.134964  0  0.10385  0.112891  0  1.06951  0
H  H71  1  0.23524442  0.58073540  0.06006347  1  0.134979  0  0.103929  0.112995  0  1.06952  0
C  C72  1  0.37467074  0.87099550  0.35892393  1  0.544964  0  0.053582  0.106251  0  3.937617  0
C  C73  1  0.37467534  0.62900051  0.64107950  1  0.544744  0  0.053667  0.106433  0  3.93782  0
C  C74  1  0.62533370  0.12900255  0.64107837  1  0.544983  0  0.053636  0.106407  0  3.937518  0
C  C75  1  0.62532606  0.37099382  0.35892142  1  0.544815  0  0.053589  0.106381  0  3.937591  0
C  C76  1  0.42989924  0.86121734  0.41825967  1  -0.023049  0  -0.081934  -0.173027  0  3.948793  0
C  C77  1  0.42990348  0.63878051  0.58174200  1  -0.022951  0  -0.082061  -0.17328  0  3.94888  0
C  C78  1  0.57010063  0.13877849  0.58174293  1  -0.022994  0  -0.082058  -0.173402  0  3.949119  0
C  C79  1  0.57009715  0.36121377  0.41825481  1  -0.023377  0  -0.082021  -0.173199  0  3.948881  0
C  C80  1  0.53318243  0.88734774  0.42218192  1  -0.070852  0  0.012427  0.100399  0  3.982518  0
C  C81  1  0.53318684  0.61264277  0.57781876  1  -0.070863  0  0.012531  0.100484  0  3.982347  0
C  C82  1  0.46681896  0.11264440  0.57782084  1  -0.070512  0  0.012504  0.100541  0  3.982426  0
C  C83  1  0.46681379  0.38734632  0.42217704  1  -0.070589  0  0.0124  0.100454  0  3.982255  0
C  C84  1  0.57598013  0.92153828  0.36416206  1  -0.046881  0  -0.070277  -0.153226  0  3.893449  0
C  C85  1  0.57597824  0.57844900  0.63583943  1  -0.046866  0  -0.070292  -0.153258  0  3.893746  0
C  C86  1  0.42402658  0.07845388  0.63584276  1  -0.047081  0  -0.070271  -0.153347  0  3.893583  0
C  C87  1  0.42401860  0.42154528  0.36415737  1  -0.046828  0  -0.070286  -0.153329  0  3.893533  0
C  C88  1  0.51547111  0.92885185  0.30674520  1  0.548525  0  0.059322  0.126477  0  3.937329  0
C  C89  1  0.51547259  0.57114322  0.69325639  1  0.548401  0  0.059272  0.126492  0  3.937544  0
C  C90  1  0.48453712  0.07114547  0.69325755  1  0.548604  0  0.059433  0.12672  0  3.937577  0
C  C91  1  0.48453185  0.42885550  0.30674084  1  0.548609  0  0.059372  0.126613  0  3.937305  0
C  C92  1  0.59470549  0.87875189  0.48438404  1  -0.01362  0  0.009295  0.094634  0  3.985975  0
C  C93  1  0.59470727  0.62123747  0.51561615  1  -0.013743  0  0.009241  0.094672  0  3.985842  0
C  C94  1  0.40529666  0.12124173  0.51561887  1  -0.014033  0  0.009177  0.094555  0  3.985883  0
C  C95  1  0.40529337  0.37875536  0.48438309  1  -0.013714  0  0.009246  0.09464  0  3.985913  0
C  C96  1  0.55045845  0.87248475  0.54915050  1  -0.034434  0  -0.086377  -0.181593  0  3.976733  0
C  C97  1  0.55045834  0.62750864  0.45085254  1  -0.034058  0  -0.086437  -0.181695  0  3.976592  0
C  C98  1  0.44954067  0.12750887  0.45085189  1  -0.034042  0  -0.086358  -0.181586  0  3.9767  0
C  C99  1  0.44953850  0.37249087  0.54914784  1  -0.034328  0  -0.086379  -0.181625  0  3.976833  0
C  C100  1  0.61211443  0.86324263  0.60564501  1  0.379492  0  0.043558  0.093334  0  3.963274  0
C  C101  1  0.61211094  0.63675702  0.39435825  1  0.379472  0  0.043524  0.093201  0  3.963487  0
C  C102  1  0.38788545  0.13675694  0.39436000  1  0.379465  0  0.043503  0.093214  0  3.963398  0
C  C103  1  0.38788514  0.36324764  0.60564006  1  0.37934  0  0.043535  0.093248  0  3.963335  0
C  C104  1  0.75748454  0.86558788  0.53935834  1  0.452542  0  0.052675  0.108579  0  3.920372  0
C  C105  1  0.75748063  0.63441003  0.46064148  1  0.453084  0  0.05267  0.108654  0  3.920027  0
C  C106  1  0.24251838  0.13440948  0.46064697  1  0.453168  0  0.052578  0.108494  0  3.920176  0
C  C107  1  0.24251165  0.36558574  0.53935650  1  0.452726  0  0.05266  0.108541  0  3.920422  0
C  C108  1  0.70086830  0.87505783  0.48053679  1  0.030224  0  -0.077177  -0.155048  0  3.909307  0
C  C109  1  0.70086931  0.62493457  0.51946546  1  0.030151  0  -0.077136  -0.155137  0  3.909049  0
C  C110  1  0.29913385  0.12493509  0.51946913  1  0.029847  0  -0.077122  -0.15499  0  3.909056  0
C  C111  1  0.29912677  0.37505975  0.48053444  1  0.030083  0  -0.077224  -0.155155  0  3.909128  0
C  C112  1  0.39822350  0.14122764  0.21408723  1  1.626621  0  0.197407  0.543818  0  4.285861  0
C  C113  1  0.39822485  0.35877544  0.78591682  1  1.627018  0  0.197423  0.543838  0  4.285905  0
C  C114  1  0.60177561  0.85877708  0.78591622  1  1.627013  0  0.197416  0.543755  0  4.285832  0
C  C115  1  0.60177350  0.64122853  0.21408553  1  1.6271  0  0.19735  0.543658  0  4.28597  0
C  C116  1  0.47264856  0.07848004  0.16799599  1  0.484879  0  0.106297  0.042103  0  3.924125  0
C  C117  1  0.47264815  0.42151959  0.83200686  1  0.485297  0  0.10629  0.042032  0  3.924411  0
C  C118  1  0.52735284  0.92151209  0.83200574  1  0.485375  0  0.106276  0.042138  0  3.924358  0
C  C119  1  0.52735552  0.57848214  0.16799374  1  0.485085  0  0.106281  0.042027  0  3.92422  0
C  C120  1  0.56742296  0.10815987  0.14173652  1  0.552894  0  0.123037  0.102648  0  3.903642  0
C  C121  1  0.56742746  0.39184727  0.85826623  1  0.553048  0  0.122916  0.1025  0  3.903706  0
C  C122  1  0.43257540  0.89183888  0.85826277  1  0.552524  0  0.123137  0.102808  0  3.903585  0
C  C123  1  0.43257622  0.60816039  0.14173544  1  0.552893  0  0.123035  0.102721  0  3.903502  0
C  C124  1  0.60830417  0.21276099  0.14942815  1  1.65662  0  0.193237  0.560048  0  4.285667  0
C  C125  1  0.60831470  0.28724145  0.85057475  1  1.656325  0  0.193211  0.560067  0  4.285841  0
C  C126  1  0.39168887  0.78723333  0.85057226  1  1.656776  0  0.193175  0.559886  0  4.285977  0
C  C127  1  0.39169581  0.71276401  0.14942825  1  1.656705  0  0.193194  0.560012  0  4.285733  0
C  C128  1  0.10597485  0.91963982  0.30055673  1  1.592823  0  0.198855  0.551998  0  4.273874  0
C  C129  1  0.10598388  0.58036450  0.69943921  1  1.594612  0  0.198826  0.551986  0  4.273613  0
C  C130  1  0.89402654  0.08036859  0.69944553  1  1.59522  0  0.198765  0.552029  0  4.273414  0
C  C131  1  0.89402055  0.41964235  0.30055777  1  1.592761  0  0.198886  0.552095  0  4.273876  0
C  C132  1  0.02925741  0.98219869  0.34452760  1  0.52873  0  0.103912  0.043595  0  3.920573  0
C  C133  1  0.02926593  0.51780977  0.65546395  1  0.5263  0  0.103885  0.043592  0  3.920643  0
C  C134  1  0.97073791  0.01780894  0.65547151  1  0.52649  0  0.103836  0.043557  0  3.920636  0
C  C135  1  0.97073471  0.48220296  0.34453000  1  0.52832  0  0.103883  0.043595  0  3.920837  0
C  C136  1  0.93941222  0.94900005  0.37498410  1  0.534976  0  0.119419  0.099241  0  3.915246  0
C  C137  1  0.93942415  0.55101576  0.62500549  1  0.535494  0  0.119436  0.099051  0  3.915502  0
C  C138  1  0.06057854  0.05101044  0.62500860  1  0.535439  0  0.11942  0.099007  0  3.915432  0
C  C139  1  0.06057801  0.44900067  0.37498881  1  0.535448  0  0.119394  0.099095  0  3.915603  0
C  C140  1  0.90319782  0.84320431  0.36988722  1  1.636712  0  0.196303  0.56125  0  4.286037  0
C  C141  1  0.90320444  0.65681029  0.63010424  1  1.636259  0  0.196142  0.561058  0  4.28637  0
C  C142  1  0.09679446  0.15680613  0.63010086  1  1.63594  0  0.196185  0.561256  0  4.286159  0
C  C143  1  0.09678936  0.34320472  0.36989403  1  1.636446  0  0.196285  0.561244  0  4.28609  0
C  C144  1  0.12929079  0.13282739  0.13675873  1  0.516086  0  0.043616  0.09477  0  3.963469  0
C  C145  1  0.12929701  0.36716701  0.86323930  1  0.516056  0  0.043761  0.094868  0  3.96334  0
C  C146  1  0.87070756  0.86716324  0.86324184  1  0.515886  0  0.043768  0.094829  0  3.963477  0
C  C147  1  0.87070894  0.63283545  0.13676086  1  0.516088  0  0.043671  0.094756  0  3.963363  0
C  C148  1  0.07493357  0.12563170  0.07517293  1  0.016886  0  -0.08951  -0.187287  0  3.982171  0
C  C149  1  0.07493928  0.37436157  0.92482436  1  0.016769  0  -0.08939  -0.187089  0  3.981957  0
C  C150  1  0.92506175  0.87435745  0.92482750  1  0.016887  0  -0.089545  -0.187288  0  3.98221  0
C  C151  1  0.92506364  0.62563420  0.07517362  1  0.016841  0  -0.089504  -0.187152  0  3.98214  0
C  C152  1  0.96828042  0.12758105  0.07693127  1  -0.011443  0  0.007082  0.089088  0  3.998053  0
C  C153  1  0.96828765  0.37241528  0.92306721  1  -0.010953  0  0.007033  0.089107  0  3.997913  0
C  C154  1  0.03171262  0.87241701  0.92307206  1  -0.011122  0  0.007014  0.089052  0  3.998076  0
C  C155  1  0.03171754  0.62758050  0.07693128  1  -0.011178  0  0.007099  0.089045  0  3.998027  0
C  C156  1  0.92191032  0.13866968  0.14252647  1  -0.021949  0  -0.074868  -0.160564  0  3.890706  0
C  C157  1  0.92191351  0.36132991  0.85747119  1  -0.022306  0  -0.074982  -0.160753  0  3.890431  0
C  C158  1  0.07808728  0.86133058  0.85747553  1  -0.02239  0  -0.074858  -0.160524  0  3.890609  0
C  C159  1  0.07808864  0.63866587  0.14252679  1  -0.022176  0  -0.074889  -0.160524  0  3.890747  0
C  C160  1  0.98213977  0.14500063  0.20171399  1  0.510212  0  0.055933  0.115463  0  3.919386  0
C  C161  1  0.98214349  0.35500002  0.79828185  1  0.510296  0  0.056092  0.115761  0  3.919  0
C  C162  1  0.01785783  0.85499960  0.79828493  1  0.510403  0  0.056013  0.115547  0  3.919268  0
C  C163  1  0.01786171  0.64499943  0.20171494  1  0.510193  0  0.055964  0.115535  0  3.919285  0
C  C164  1  0.90753673  0.11864806  0.01256788  1  -0.050733  0  0.01125  0.100954  0  3.978149  0
C  C165  1  0.90754345  0.38135091  0.98743226  1  -0.050927  0  0.01123  0.100895  0  3.978109  0
C  C166  1  0.09245858  0.88135446  0.98743690  1  -0.051089  0  0.011206  0.100824  0  3.978303  0
C  C167  1  0.09245719  0.61864560  0.01256579  1  -0.051339  0  0.011248  0.100976  0  3.978077  0
C  C168  1  0.94968140  0.13286656  0.94850177  1  -0.031346  0  -0.08314  -0.173934  0  3.95272  0
C  C169  1  0.94968750  0.36713214  0.05149843  1  -0.031708  0  -0.083093  -0.173864  0  3.952715  0
C  C170  1  0.05031392  0.86713521  0.05150191  1  -0.030865  0  -0.083035  -0.173784  0  3.952921  0
C  C171  1  0.05031466  0.63286733  0.94849990  1  -0.031231  0  -0.083089  -0.173876  0  3.952918  0
C  C172  1  0.88886025  0.12335517  0.88957430  1  0.504103  0  0.049518  0.097263  0  3.941643  0
C  C173  1  0.88886732  0.37664615  0.11042602  1  0.504089  0  0.049504  0.097264  0  3.941458  0
C  C174  1  0.11113583  0.87664658  0.11042784  1  0.504048  0  0.049568  0.097381  0  3.941625  0
C  C175  1  0.11113331  0.62335556  0.88957303  1  0.504065  0  0.049512  0.097331  0  3.941587  0
C  C176  1  0.74799222  0.08841614  0.95245224  1  0.488649  0  0.052501  0.109859  0  3.932897  0
C  C177  1  0.74799721  0.41157797  0.04754863  1  0.488301  0  0.052533  0.109915  0  3.932832  0
C  C178  1  0.25200538  0.91157824  0.04755227  1  0.488333  0  0.052563  0.110016  0  3.932714  0
C  C179  1  0.25200190  0.58841631  0.95244818  1  0.48842  0  0.052509  0.109999  0  3.932786  0
C  C180  1  0.80387148  0.09521374  0.01332950  1  -0.005058  0  -0.080415  -0.162235  0  3.911674  0
C  C181  1  0.80387499  0.40478297  0.98667225  1  -0.004976  0  -0.080373  -0.162172  0  3.911498  0
C  C182  1  0.19612763  0.90478210  0.98667361  1  -0.005087  0  -0.080361  -0.162187  0  3.911377  0
C  C183  1  0.19612489  0.59521060  0.01332706  1  -0.005102  0  -0.080447  -0.162335  0  3.911522  0
S  S184  1  0.55092278  0.93118492  0.10514852  1  1.185315  0  0.38305  0.459858  0  3.177717  0
S  S185  1  0.55091689  0.56881884  0.89485705  1  1.185478  0  0.38301  0.459784  0  3.177698  0
S  S186  1  0.44907786  0.06881087  0.89485100  1  1.184992  0  0.383119  0.45997  0  3.17776  0
S  S187  1  0.44908906  0.43118582  0.10514228  1  1.185479  0  0.383037  0.459893  0  3.177738  0
S  S188  1  0.94814883  0.12634755  0.40916850  1  1.194323  0  0.389224  0.475857  0  3.212625  0
S  S189  1  0.94814685  0.37366740  0.59082914  1  1.194092  0  0.389175  0.475702  0  3.212562  0
S  S190  1  0.05185105  0.87366006  0.59082958  1  1.193868  0  0.389178  0.47567  0  3.212697  0
S  S191  1  0.05185379  0.62635118  0.40915921  1  1.194207  0  0.389215  0.475806  0  3.212496  0
N  N192  1  0.41652126  0.90504576  0.30397446  1  -1.234079  0  -0.322322  -0.231053  0  3.49452  0
N  N193  1  0.41652410  0.59494701  0.69602823  1  -1.233995  0  -0.322358  -0.231182  0  3.494858  0
N  N194  1  0.58348469  0.09495081  0.69602821  1  -1.234176  0  -0.322457  -0.231185  0  3.494605  0
N  N195  1  0.58347958  0.40504583  0.30397152  1  -1.234325  0  -0.32233  -0.23112  0  3.494606  0
N  N196  1  0.71405858  0.86023768  0.60117306  1  -1.184694  0  -0.32677  -0.237062  0  3.498534  0
N  N197  1  0.71405585  0.63976124  0.39882624  1  -1.18467  0  -0.326717  -0.237014  0  3.498603  0
N  N198  1  0.28594282  0.13976114  0.39883137  1  -1.184607  0  -0.326731  -0.236998  0  3.498563  0
N  N199  1  0.28594250  0.36024118  0.60117134  1  -1.184567  0  -0.326766  -0.23702  0  3.498638  0
N  N200  1  0.45484319  0.98163083  0.15072006  1  -1.209656  0  -0.317007  -0.345191  0  3.420264  0
N  N201  1  0.45484049  0.51836911  0.84928443  1  -1.209952  0  -0.31699  -0.34514  0  3.420245  0
N  N202  1  0.54515516  0.01836127  0.84927962  1  -1.209704  0  -0.317072  -0.345397  0  3.420528  0
N  N203  1  0.54516015  0.48163487  0.15071843  1  -1.210061  0  -0.317067  -0.345223  0  3.420375  0
N  N204  1  0.61799911  0.03262433  0.10608902  1  -1.177803  0  -0.305596  -0.350286  0  3.207168  0
N  N205  1  0.61800019  0.46738251  0.89391586  1  -1.178174  0  -0.305442  -0.35007  0  3.207312  0
N  N206  1  0.38199697  0.96737368  0.89391020  1  -1.177483  0  -0.305661  -0.350366  0  3.207154  0
N  N207  1  0.38200500  0.53262362  0.10608259  1  -1.177738  0  -0.305536  -0.350313  0  3.20714  0
N  N208  1  0.04200707  0.08020675  0.35952156  1  -1.214781  0  -0.314778  -0.342948  0  3.404296  0
N  N209  1  0.04201107  0.41980373  0.64047472  1  -1.214293  0  -0.314725  -0.342809  0  3.40435  0
N  N210  1  0.95799053  0.91980162  0.64047813  1  -1.214282  0  -0.314732  -0.342802  0  3.404174  0
N  N211  1  0.95798956  0.58021044  0.35951628  1  -1.214761  0  -0.314831  -0.342945  0  3.404369  0
N  N212  1  0.88725070  0.02233105  0.41193203  1  -1.175004  0  -0.317751  -0.362533  0  3.167441  0
N  N213  1  0.88725706  0.47768942  0.58806139  1  -1.175015  0  -0.317723  -0.362344  0  3.167438  0
N  N214  1  0.11274158  0.97768168  0.58806192  1  -1.174926  0  -0.317733  -0.36236  0  3.167595  0
N  N215  1  0.11274433  0.52233217  0.41193135  1  -1.174937  0  -0.317694  -0.362431  0  3.167465  0
N  N216  1  0.08409347  0.14149618  0.19925160  1  -1.236665  0  -0.320034  -0.226262  0  3.465195  0
N  N217  1  0.08409793  0.35850442  0.80074486  1  -1.236771  0  -0.320104  -0.226356  0  3.465318  0
N  N218  1  0.91590489  0.85850184  0.80074813  1  -1.23667  0  -0.320149  -0.226339  0  3.46535  0
N  N219  1  0.91590802  0.64149950  0.19925389  1  -1.236755  0  -0.320028  -0.226289  0  3.465153  0
N  N220  1  0.78938858  0.10151370  0.89137565  1  -1.238345  0  -0.32618  -0.233575  0  3.513778  0
N  N221  1  0.78939397  0.39848531  0.10862526  1  -1.237904  0  -0.326185  -0.233604  0  3.513637  0
N  N222  1  0.21060598  0.89848435  0.10862665  1  -1.238059  0  -0.326225  -0.233753  0  3.513841  0
N  N223  1  0.21060363  0.60151342  0.89137300  1  -1.237992  0  -0.326158  -0.23369  0  3.513622  0
O  O224  1  0.57181034  0.26797376  0.10961521  1  -1.160268  0  -0.330443  -0.558947  0  2.180322  0
O  O225  1  0.57182147  0.23203117  0.89039041  1  -1.160059  0  -0.330438  -0.559011  0  2.18048  0
O  O226  1  0.42818271  0.73202428  0.89038657  1  -1.160856  0  -0.330433  -0.558948  0  2.180561  0
O  O227  1  0.42819816  0.76797135  0.10961488  1  -1.160334  0  -0.33042  -0.558978  0  2.180393  0
O  O228  1  0.67706047  0.23425320  0.19550418  1  -1.140026  0  -0.338347  -0.556754  0  2.185199  0
O  O229  1  0.67706334  0.26574803  0.80449721  1  -1.13986  0  -0.338328  -0.556736  0  2.185318  0
O  O230  1  0.32293941  0.76574404  0.80449291  1  -1.139771  0  -0.338327  -0.556648  0  2.185267  0
O  O231  1  0.32294185  0.73425666  0.19550367  1  -1.140164  0  -0.33834  -0.556719  0  2.185245  0
O  O232  1  0.42064423  0.22834786  0.23647503  1  -1.156825  0  -0.313638  -0.513164  0  2.115336  0
O  O233  1  0.42063926  0.27165211  0.76352826  1  -1.156777  0  -0.313692  -0.513179  0  2.115195  0
O  O234  1  0.57936097  0.77164731  0.76353315  1  -1.156683  0  -0.313656  -0.513154  0  2.114968  0
O  O235  1  0.57935681  0.72835333  0.23647321  1  -1.156805  0  -0.313642  -0.513115  0  2.115307  0
O  O236  1  0.31661856  0.09427425  0.22737452  1  -1.175087  0  -0.338322  -0.576665  0  2.382776  0
O  O237  1  0.31661950  0.40572713  0.77262816  1  -1.175669  0  -0.338324  -0.576694  0  2.382805  0
O  O238  1  0.68337524  0.90573043  0.77262585  1  -1.17563  0  -0.338317  -0.576612  0  2.382869  0
O  O239  1  0.68337962  0.59427684  0.22737470  1  -1.175619  0  -0.338249  -0.576541  0  2.382796  0
O  O240  1  0.18075428  0.96868034  0.27883344  1  -1.178484  0  -0.340816  -0.579613  0  2.401407  0
O  O241  1  0.18075466  0.53131912  0.72116784  1  -1.178424  0  -0.340772  -0.579552  0  2.401346  0
O  O242  1  0.81925244  0.03132369  0.72117405  1  -1.178985  0  -0.340739  -0.579649  0  2.401168  0
O  O243  1  0.81924522  0.46868628  0.27883105  1  -1.178288  0  -0.340785  -0.579556  0  2.401336  0
O  O244  1  0.09305183  0.82852962  0.28844490  1  -1.125971  0  -0.314622  -0.52743  0  2.129302  0
O  O245  1  0.09306482  0.67147628  0.71155218  1  -1.125833  0  -0.31463  -0.527458  0  2.129109  0
O  O246  1  0.90694805  0.17148024  0.71155595  1  -1.125618  0  -0.314548  -0.52737  0  2.129023  0
O  O247  1  0.90694721  0.32853350  0.28844251  1  -1.125889  0  -0.314657  -0.527517  0  2.129296  0
O  O248  1  0.84255526  0.81597683  0.31916626  1  -1.138847  0  -0.3432  -0.560926  0  2.214354  0
O  O249  1  0.84255737  0.68402710  0.68082713  1  -1.138691  0  -0.34314  -0.560846  0  2.214172  0
O  O250  1  0.15744614  0.18402545  0.68082002  1  -1.138478  0  -0.343164  -0.560956  0  2.214067  0
O  O251  1  0.15743719  0.31597467  0.31917655  1  -1.13841  0  -0.343153  -0.560866  0  2.214269  0
O  O252  1  0.93226533  0.79459693  0.41592675  1  -1.157279  0  -0.320119  -0.553924  0  2.197457  0
O  O253  1  0.93226682  0.70541901  0.58406849  1  -1.157536  0  -0.320044  -0.553791  0  2.197728  0
O  O254  1  0.06772543  0.20541430  0.58406552  1  -1.157614  0  -0.320016  -0.553812  0  2.197833  0
O  O255  1  0.06771483  0.29460416  0.41593158  1  -1.157744  0  -0.3201  -0.55391  0  2.197632  0
