# generated using pymatgen
data_MgH30(C4O)11
_symmetry_space_group_name_H-M   'P 1'
_cell_length_a   15.06237019
_cell_length_b   17.36374933
_cell_length_c   17.41047453
_cell_angle_alpha   102.46724541
_cell_angle_beta   95.84302665
_cell_angle_gamma   95.35234686
_symmetry_Int_Tables_number   1
_chemical_formula_structural   MgH30(C4O)11
_chemical_formula_sum   'Mg4 H120 C176 O44'
_cell_volume   4391.80034156
_cell_formula_units_Z   4
loop_
 _symmetry_equiv_pos_site_id
 _symmetry_equiv_pos_as_xyz
  1  'x, y, z'
loop_
 _atom_site_type_symbol
 _atom_site_label
 _atom_site_symmetry_multiplicity
 _atom_site_fract_x
 _atom_site_fract_y
 _atom_site_fract_z
 _atom_site_occupancy
 _atom_site_pbe_bader_charge
 _atom_site_pbe_bader_spin_density
 _atom_site_pbe_cm5_charge
 _atom_site_pbe_ddec_charge
 _atom_site_pbe_ddec_spin_density
 _atom_site_pbe_ddec_sum_bond_order
 _atom_site_pbe_magmom
Mg  Mg0  1  0.74669535  0.50149066  0.49912887  1  1.687872  0  0.81016  1.392954  0  1.363656  0
Mg  Mg1  1  0.99625087  0.49983257  0.50054220  1  1.688474  0  0.809783  1.393668  0  1.361459  0
Mg  Mg2  1  0.24674435  0.49888792  0.50142053  1  1.688076  0  0.810451  1.392675  0  1.363755  0
Mg  Mg3  1  0.49682925  0.50021182  0.50047517  1  1.688457  0  0.80933  1.392968  0  1.363576  0
H  H4  1  0.53570147  0.65240373  0.20659452  1  0.101742  0  0.10898  0.111935  0  0.988771  0
H  H5  1  0.54306391  0.71496266  0.09142497  1  0.051831  0  0.101028  0.101896  0  1.000102  0
H  H6  1  0.58513891  0.97470975  0.19152834  1  0.07832  0  0.09854  0.097523  0  1.030178  0
H  H7  1  0.62180744  0.11245736  0.18433099  1  0.080378  0  0.100648  0.103904  0  1.020193  0
H  H8  1  0.59546991  0.32568307  0.32143545  1  0.115134  0  0.105613  0.108997  0  1.026816  0
H  H9  1  0.52724969  0.21354075  0.21092565  1  0.094478  0  0.09669  0.096912  0  1.055192  0
H  H10  1  0.71237358  0.28934007  0.06107973  1  0.068116  0  0.098881  0.100822  0  1.016566  0
H  H11  1  0.77929201  0.40203797  0.17222119  1  0.093045  0  0.108934  0.113909  0  0.989752  0
H  H12  1  0.56946812  0.26042727  0.98465065  1  0.044945  0  0.100813  0.100759  0  1.026568  0
H  H13  1  0.54829298  0.07489378  0.77013663  1  0.076515  0  0.095722  0.092069  0  1.052454  0
H  H14  1  0.55443451  0.13738810  0.65537469  1  0.101422  0  0.106204  0.111004  0  0.99483  0
H  H15  1  0.56070773  0.27467482  0.54547920  1  0.661573  0  0.306497  0.366469  0  0.97471  0
H  H16  1  0.89732380  0.67522414  0.67498820  1  0.114581  0  0.105628  0.109972  0  1.028003  0
H  H17  1  0.96948172  0.78640544  0.78489515  1  0.093488  0  0.096866  0.097663  0  1.056518  0
H  H18  1  0.78981795  0.71047804  0.93907229  1  0.069582  0  0.09848  0.100003  0  1.020002  0
H  H19  1  0.71934499  0.59866522  0.82859099  1  0.09963  0  0.109003  0.11443  0  0.989219  0
H  H20  1  0.93247019  0.73830108  0.01271791  1  0.073477  0  0.100597  0.100758  0  1.025512  0
H  H21  1  0.95432533  0.92447193  0.22738280  1  0.071225  0  0.096336  0.09324  0  1.049734  0
H  H22  1  0.95311330  0.86417332  0.34394670  1  0.080059  0  0.106882  0.111859  0  0.994571  0
H  H23  1  0.94964452  0.72901534  0.45579528  1  0.656291  0  0.306407  0.366422  0  0.976664  0
H  H24  1  0.88839986  0.59795417  0.47993537  1  0.664745  0  0.30704  0.393714  0  0.945772  0
H  H25  1  0.96169046  0.34559255  0.79175293  1  0.118876  0  0.109229  0.111809  0  0.989073  0
H  H26  1  0.95841832  0.28404799  0.90795075  1  0.075147  0  0.101273  0.102345  0  0.999452  0
H  H27  1  0.91815550  0.02491455  0.80672177  1  0.081344  0  0.098899  0.098906  0  1.02806  0
H  H28  1  0.88052874  0.88743598  0.81348488  1  0.075707  0  0.101017  0.103481  0  1.022515  0
H  H29  1  0.71496579  0.62835158  0.44027679  1  0.647425  0  0.305411  0.416521  0  0.905621  0
H  H30  1  0.65133202  0.62292875  0.50828276  1  0.643229  0  0.303576  0.397053  0  0.937306  0
H  H31  1  0.78111951  0.37572623  0.55820733  1  0.660448  0  0.305348  0.4146  0  0.908789  0
H  H32  1  0.84027286  0.37826494  0.48695443  1  0.644881  0  0.303287  0.396626  0  0.937138  0
H  H33  1  0.85531692  0.52109949  0.40305909  1  0.641605  0  0.306919  0.393686  0  0.946136  0
H  H34  1  0.96346271  0.44054780  0.62642628  1  0.663634  0  0.306478  0.416405  0  0.904607  0
H  H35  1  0.90199482  0.51081024  0.62192082  1  0.652563  0  0.303929  0.397214  0  0.936619  0
H  H36  1  0.54000913  0.17572136  0.39592020  1  0.099652  0  0.109007  0.113896  0  0.988152  0
H  H37  1  0.52557493  0.55523250  0.37148325  1  0.654091  0  0.305777  0.415331  0  0.905698  0
H  H38  1  0.58863861  0.48649608  0.37679329  1  0.631718  0  0.303681  0.396982  0  0.936388  0
H  H39  1  0.84975487  0.32555352  0.32214158  1  0.110382  0  0.105781  0.10953  0  1.02686  0
H  H40  1  0.78132489  0.21639585  0.20871891  1  0.085566  0  0.096861  0.096856  0  1.055988  0
H  H41  1  0.96119162  0.06155061  0.28692176  1  0.073222  0  0.098222  0.099709  0  1.019434  0
H  H42  1  0.81866982  0.98832563  0.25738071  1  0.038279  0  0.10039  0.099902  0  1.025677  0
H  H43  1  0.79748333  0.77233819  0.07388813  1  0.064275  0  0.096276  0.09218  0  1.053154  0
H  H44  1  0.79635558  0.65640623  0.13563795  1  0.086978  0  0.106592  0.111814  0  0.995741  0
H  H45  1  0.70534520  0.79323496  0.34275968  1  0.098201  0  0.108145  0.110423  0  0.989919  0
H  H46  1  0.70276219  0.90894221  0.28005583  1  0.074952  0  0.099892  0.100289  0  1.001482  0
H  H47  1  0.66852912  0.80644916  0.02197643  1  0.08222  0  0.09936  0.09935  0  1.026409  0
H  H48  1  0.63280271  0.81286947  0.88401397  1  0.088853  0  0.100935  0.103856  0  1.017689  0
H  H49  1  0.79596912  0.54599055  0.27176252  1  0.657665  0  0.305854  0.365302  0  0.977311  0
H  H50  1  0.65356845  0.67780824  0.66591411  1  0.10105  0  0.106107  0.109999  0  1.024731  0
H  H51  1  0.72585913  0.78675341  0.77814314  1  0.056977  0  0.09714  0.098009  0  1.051145  0
H  H52  1  0.53253085  0.93783145  0.71467872  1  0.055753  0  0.09785  0.099066  0  1.022726  0
H  H53  1  0.68237842  0.01292374  0.73628001  1  0.047049  0  0.101147  0.102316  0  1.020308  0
H  H54  1  0.70568537  0.22712785  0.92268506  1  0.056995  0  0.096669  0.092981  0  1.049125  0
H  H55  1  0.70606927  0.34512686  0.86409974  1  0.071742  0  0.106229  0.111437  0  0.995108  0
H  H56  1  0.79449435  0.21264189  0.65348358  1  0.100216  0  0.108599  0.11134  0  0.98846  0
H  H57  1  0.79746156  0.09458974  0.71279564  1  0.073696  0  0.100655  0.10158  0  1.000441  0
H  H58  1  0.83704719  0.19341765  0.97085035  1  0.055586  0  0.0992  0.09931  0  1.028029  0
H  H59  1  0.87287673  0.18706994  0.10870320  1  0.074531  0  0.100906  0.104555  0  1.01933  0
H  H60  1  0.70036647  0.45732882  0.72946022  1  0.649628  0  0.30549  0.364453  0  0.978191  0
H  H61  1  0.96792478  0.82978991  0.60040647  1  0.086911  0  0.10889  0.114235  0  0.988815  0
H  H62  1  0.63945972  0.48137275  0.59651209  1  0.639451  0  0.307155  0.394095  0  0.945691  0
H  H63  1  0.60763756  0.40479023  0.51906074  1  0.651141  0  0.306433  0.391389  0  0.951332  0
H  H64  1  0.03975914  0.65250874  0.21036031  1  0.098999  0  0.109001  0.112273  0  0.989337  0
H  H65  1  0.04535889  0.71388466  0.09418945  1  0.066754  0  0.100935  0.102038  0  0.998978  0
H  H66  1  0.08422710  0.97303350  0.19449555  1  0.047796  0  0.099011  0.098802  0  1.029137  0
H  H67  1  0.12068654  0.11094385  0.18806831  1  0.045964  0  0.101076  0.103607  0  1.020828  0
H  H68  1  0.09496489  0.32618994  0.32355030  1  0.089174  0  0.106239  0.110362  0  1.027773  0
H  H69  1  0.02689341  0.21332307  0.21350557  1  0.072497  0  0.096668  0.096631  0  1.056749  0
H  H70  1  0.21571833  0.28545919  0.06479056  1  0.066047  0  0.098453  0.099574  0  1.019507  0
H  H71  1  0.28272831  0.39860423  0.17558322  1  0.085564  0  0.109111  0.114375  0  0.98897  0
H  H72  1  0.07162429  0.25922773  0.98811300  1  0.061216  0  0.100882  0.10154  0  1.024728  0
H  H73  1  0.04729085  0.07345426  0.77270117  1  0.061969  0  0.095753  0.091649  0  1.054016  0
H  H74  1  0.04712371  0.13424335  0.65635921  1  0.110616  0  0.10611  0.111014  0  0.99376  0
H  H75  1  0.04959618  0.27109133  0.54561207  1  0.662057  0  0.305457  0.366069  0  0.976844  0
H  H76  1  0.39633272  0.67243719  0.67544504  1  0.117437  0  0.106331  0.110474  0  1.023479  0
H  H77  1  0.46781484  0.78516868  0.78409462  1  0.093448  0  0.097445  0.098645  0  1.051479  0
H  H78  1  0.28632303  0.71318510  0.93878462  1  0.031911  0  0.098521  0.10023  0  1.018924  0
H  H79  1  0.21651884  0.59968144  0.82965005  1  0.100317  0  0.10882  0.113431  0  0.989198  0
H  H80  1  0.42990588  0.74025466  0.01179239  1  0.053092  0  0.100394  0.100295  0  1.027467  0
H  H81  1  0.45584558  0.92646202  0.22663278  1  0.058218  0  0.095976  0.091989  0  1.054067  0
H  H82  1  0.45192983  0.86463951  0.34192755  1  0.130591  0  0.106092  0.111026  0  0.993827  0
H  H83  1  0.44267683  0.72632171  0.45102669  1  0.667687  0  0.305678  0.365806  0  0.972498  0
H  H84  1  0.38697190  0.59673473  0.48136792  1  0.636661  0  0.306209  0.39295  0  0.947309  0
H  H85  1  0.46609316  0.34814371  0.78903879  1  0.088537  0  0.108975  0.111866  0  0.988731  0
H  H86  1  0.45669198  0.28497785  0.90374468  1  0.049931  0  0.101087  0.101884  0  0.999087  0
H  H87  1  0.41651627  0.02542842  0.80383954  1  0.063497  0  0.098815  0.098447  0  1.027748  0
H  H88  1  0.37831233  0.88808010  0.81155037  1  0.087301  0  0.10118  0.104234  0  1.019571  0
H  H89  1  0.21370770  0.62557972  0.44282536  1  0.668131  0  0.305893  0.415046  0  0.906349  0
H  H90  1  0.15236751  0.62158046  0.51251250  1  0.653566  0  0.304069  0.397112  0  0.93586  0
H  H91  1  0.28240458  0.37470623  0.56198520  1  0.66397  0  0.305308  0.415507  0  0.907468  0
H  H92  1  0.34183498  0.37684332  0.49088564  1  0.655252  0  0.303102  0.397103  0  0.936516  0
H  H93  1  0.35455648  0.51958868  0.40489150  1  0.654547  0  0.306401  0.391999  0  0.949412  0
H  H94  1  0.46991838  0.44593968  0.62964627  1  0.665269  0  0.307687  0.418047  0  0.901715  0
H  H95  1  0.40421118  0.51289832  0.62387408  1  0.64072  0  0.30354  0.397267  0  0.936316  0
H  H96  1  0.02784025  0.17126781  0.40102977  1  0.108775  0  0.108726  0.113368  0  0.990091  0
H  H97  1  0.02791335  0.55692517  0.37345950  1  0.668157  0  0.305509  0.415515  0  0.90725  0
H  H98  1  0.09083708  0.48787987  0.37891035  1  0.653582  0  0.304024  0.397758  0  0.935569  0
H  H99  1  0.34095225  0.32053535  0.33341547  1  0.112996  0  0.106274  0.10973  0  1.027309  0
H  H100  1  0.27244686  0.21113670  0.21997990  1  0.093122  0  0.096848  0.09754  0  1.054228  0
H  H101  1  0.47167662  0.06496841  0.28298445  1  0.063167  0  0.098255  0.100453  0  1.020083  0
H  H102  1  0.32155409  0.98707840  0.26145209  1  0.028847  0  0.101188  0.102491  0  1.021041  0
H  H103  1  0.29643115  0.77141730  0.07635050  1  0.057528  0  0.095937  0.092899  0  1.049011  0
H  H104  1  0.29486330  0.65457638  0.13672807  1  0.098961  0  0.10627  0.11132  0  0.99443  0
H  H105  1  0.20878385  0.79099300  0.34659026  1  0.112991  0  0.10906  0.111996  0  0.988651  0
H  H106  1  0.20687520  0.90776141  0.28542887  1  0.054613  0  0.100974  0.101522  0  0.999712  0
H  H107  1  0.16637869  0.80649594  0.02703032  1  0.053795  0  0.09852  0.097245  0  1.029969  0
H  H108  1  0.12894200  0.81335409  0.88957327  1  0.118522  0  0.100807  0.104127  0  1.020458  0
H  H109  1  0.29689056  0.54354757  0.27256262  1  0.654941  0  0.305595  0.364734  0  0.978999  0
H  H110  1  0.14535901  0.67396996  0.67724999  1  0.106586  0  0.105636  0.110022  0  1.027849  0
H  H111  1  0.21767929  0.78339050  0.78879007  1  0.091916  0  0.096375  0.09621  0  1.059554  0
H  H112  1  0.03852235  0.93976921  0.71263068  1  0.058307  0  0.09845  0.099745  0  1.019203  0
H  H113  1  0.18266062  0.01231600  0.74080642  1  0.060285  0  0.100598  0.101079  0  1.023908  0
H  H114  1  0.20254104  0.22622231  0.92600951  1  0.064074  0  0.095777  0.092183  0  1.054487  0
H  H115  1  0.20061893  0.34323019  0.86609850  1  0.093662  0  0.10591  0.110576  0  0.994995  0
H  H116  1  0.29482780  0.21142629  0.65802944  1  0.1012  0  0.108647  0.111025  0  0.989104  0
H  H117  1  0.29812195  0.09396057  0.71809302  1  0.058718  0  0.100999  0.101907  0  1.000599  0
H  H118  1  0.33374768  0.19379787  0.97605819  1  0.046057  0  0.098983  0.09869  0  1.028425  0
H  H119  1  0.36939211  0.18739996  0.11413868  1  0.050708  0  0.100641  0.103052  0  1.018069  0
H  H120  1  0.19370748  0.45352345  0.72850298  1  0.662038  0  0.305494  0.365457  0  0.975513  0
H  H121  1  0.46085408  0.82776825  0.60252161  1  0.097445  0  0.108894  0.114103  0  0.988831  0
H  H122  1  0.13742535  0.47953202  0.59755857  1  0.668931  0  0.30698  0.392947  0  0.94649  0
H  H123  1  0.10489187  0.40259670  0.52072082  1  0.672889  0  0.306748  0.392567  0  0.947446  0
C  C124  1  0.51142435  0.93618325  0.07326997  1  -0.04262  0  -0.001983  0.039431  0  3.966853  0
C  C125  1  0.51915130  0.71278163  0.21038646  1  -0.00632  0  -0.076448  -0.075305  0  3.982324  0
C  C126  1  0.52238358  0.74793721  0.14611420  1  -0.034879  0  -0.088756  -0.133028  0  3.974507  0
C  C127  1  0.56124521  0.99366309  0.13822923  1  -0.090504  0  -0.091302  -0.127143  0  4.023022  0
C  C128  1  0.58226342  0.07075937  0.13403016  1  0.009321  0  -0.090199  -0.125605  0  4.013515  0
C  C129  1  0.73285323  0.43695298  0.32107653  1  1.559988  0  0.231713  0.598558  0  4.16161  0
C  C130  1  0.69049181  0.37158444  0.25332223  1  -0.04951  0  -0.023357  -0.061058  0  3.995173  0
C  C131  1  0.61985773  0.31776757  0.26382860  1  -0.021466  0  -0.077047  -0.066136  0  3.940376  0
C  C132  1  0.58275026  0.25430622  0.20201487  1  -0.070776  0  -0.090397  -0.137639  0  3.964691  0
C  C133  1  0.61494618  0.24300027  0.12779896  1  -0.013224  0  -0.00166  0.082794  0  3.980657  0
C  C134  1  0.68554652  0.29784508  0.11777399  1  -0.052565  0  -0.091486  -0.138933  0  3.981291  0
C  C135  1  0.72325714  0.36091497  0.17964221  1  -0.052629  0  -0.08197  -0.084797  0  3.986619  0
C  C136  1  0.57398096  0.17834080  0.05993528  1  0.010142  0  -0.005396  0.025251  0  3.978384  0
C  C137  1  0.55537262  0.09777121  0.06434639  1  -0.015059  0  -0.002339  0.038607  0  3.974759  0
C  C138  1  0.51154272  0.04061547  0.99555542  1  -0.011886  0  0.005855  0.007571  0  3.883535  0
C  C139  1  0.51320623  0.14433832  0.91852075  1  0.035285  0  -0.00362  0.025722  0  3.964044  0
C  C140  1  0.55311198  0.19870332  0.98758307  1  -0.121633  0  -0.091644  -0.184282  0  4.00979  0
C  C141  1  0.50271517  0.17525226  0.84577809  1  -0.066113  0  0.000172  0.083693  0  3.973102  0
C  C142  1  0.52701357  0.13366521  0.77374209  1  -0.051362  0  -0.091327  -0.136153  0  3.980107  0
C  C143  1  0.53157845  0.16892496  0.70954710  1  -0.053601  0  -0.081621  -0.080869  0  3.972617  0
C  C144  1  0.51098291  0.24692503  0.71525665  1  0.032273  0  -0.020948  -0.058678  0  4.000844  0
C  C145  1  0.52073824  0.28792150  0.64951755  1  1.517322  0  0.232147  0.584983  0  4.13198  0
C  C146  1  0.76139933  0.56447017  0.67782410  1  1.553652  0  0.230453  0.596838  0  4.164285  0
C  C147  1  0.80531251  0.62926931  0.74537065  1  0.016539  0  -0.022658  -0.058532  0  3.993742  0
C  C148  1  0.87531620  0.68290972  0.73351139  1  -0.086496  0  -0.077631  -0.068826  0  3.944092  0
C  C149  1  0.91447588  0.74587483  0.79498907  1  -0.049386  0  -0.090617  -0.138801  0  3.968327  0
C  C150  1  0.88484951  0.75672470  0.87023764  1  -0.015211  0  -0.000802  0.082746  0  3.983344  0
C  C151  1  0.81464358  0.70217278  0.88153011  1  -0.02064  0  -0.092149  -0.137734  0  3.982037  0
C  C152  1  0.77492399  0.63960321  0.82001592  1  -0.150016  0  -0.082341  -0.08653  0  3.98675  0
C  C153  1  0.92751527  0.82081368  0.93786652  1  -0.064859  0  -0.005502  0.025875  0  3.975954  0
C  C154  1  0.94665678  0.90137945  0.93358240  1  -0.011701  0  -0.002139  0.038595  0  3.973083  0
C  C155  1  0.99044203  0.95831692  0.00252490  1  -0.050935  0  0.005871  0.007388  0  3.887891  0
C  C156  1  0.98855853  0.85436251  0.07917265  1  -0.026727  0  -0.004698  0.022751  0  3.969826  0
C  C157  1  0.94876537  0.80010042  0.01003045  1  -0.00413  0  -0.090578  -0.183034  0  4.00785  0
C  C158  1  0.99980897  0.82388786  0.15206489  1  0.030042  0  0.001107  0.085812  0  3.974785  0
C  C159  1  0.97653887  0.86610647  0.22426062  1  -0.07143  0  -0.09007  -0.13457  0  3.98084  0
C  C160  1  0.97453803  0.83201588  0.28937157  1  0.0046  0  -0.083177  -0.083321  0  3.976403  0
C  C161  1  0.99597229  0.75434136  0.28420339  1  -0.021592  0  -0.019951  -0.057005  0  4.001259  0
C  C162  1  0.98802880  0.71432079  0.35079024  1  1.513665  0  0.231804  0.583979  0  4.130452  0
C  C163  1  0.99140193  0.06302110  0.92526928  1  0.002988  0  -0.001375  0.039793  0  3.966981  0
C  C164  1  0.97957457  0.28566011  0.78824687  1  0.005356  0  -0.075837  -0.072867  0  3.981499  0
C  C165  1  0.97849903  0.25104816  0.85301033  1  -0.085971  0  -0.088829  -0.134494  0  3.971203  0
C  C166  1  0.94176616  0.00578740  0.86000307  1  -0.075696  0  -0.091353  -0.127736  0  4.01937  0
C  C167  1  0.92025732  0.92870593  0.86396242  1  -0.013121  0  -0.091339  -0.126074  0  4.011657  0
C  C168  1  0.98320716  0.32141133  0.43606608  1  1.559769  0  0.231487  0.600769  0  4.16207  0
C  C169  1  0.94141055  0.25461112  0.36953681  1  -0.06451  0  -0.023084  -0.061054  0  3.999055  0
C  C170  1  0.87261537  0.26703706  0.31451587  1  0.007996  0  -0.07731  -0.066577  0  3.9408  0
C  C171  1  0.83556650  0.20599172  0.25028926  1  -0.072208  0  -0.089836  -0.136285  0  3.965515  0
C  C172  1  0.86608997  0.13069458  0.23953225  1  -0.011647  0  -0.001328  0.081159  0  3.986539  0
C  C173  1  0.93535950  0.11898822  0.29525682  1  -0.053529  0  -0.09197  -0.138125  0  3.983615  0
C  C174  1  0.97296376  0.18005506  0.35908426  1  -0.091795  0  -0.081931  -0.084557  0  3.988561  0
C  C175  1  0.82464746  0.06304053  0.17488565  1  0.035192  0  -0.005958  0.024391  0  3.979466  0
C  C176  1  0.80638102  0.06718087  0.09429046  1  0.008392  0  -0.002074  0.038246  0  3.974684  0
C  C177  1  0.76292626  0.99818081  0.03718304  1  0.019663  0  0.006058  0.008543  0  3.885336  0
C  C178  1  0.74068789  0.92525690  0.06081018  1  -0.042175  0  -0.002267  0.037829  0  3.970835  0
C  C179  1  0.76320401  0.92183226  0.14121934  1  -0.016596  0  -0.004365  0.024465  0  3.969911  0
C  C180  1  0.80304502  0.99090570  0.19551132  1  -0.058381  0  -0.091142  -0.182695  0  4.008425  0
C  C181  1  0.75042356  0.84929872  0.17217663  1  -0.064868  0  5.5e-05  0.08342  0  3.973594  0
C  C182  1  0.77390316  0.77632683  0.13152400  1  -0.05045  0  -0.09068  -0.13352  0  3.981905  0
C  C183  1  0.77451575  0.71155053  0.16643328  1  -0.042758  0  -0.082743  -0.083723  0  3.974609  0
C  C184  1  0.75125204  0.71780839  0.24331445  1  0.023427  0  -0.020373  -0.057788  0  3.999656  0
C  C185  1  0.72467329  0.78928906  0.28351425  1  -0.046549  0  -0.075898  -0.072361  0  3.977787  0
C  C186  1  0.72399527  0.85379420  0.24827980  1  -0.035058  0  -0.088463  -0.133498  0  3.971123  0
C  C187  1  0.75770519  0.65149909  0.28422803  1  1.521123  0  0.231591  0.584829  0  4.131283  0
C  C188  1  0.69194892  0.85983198  0.00313994  1  -0.084933  0  -0.091602  -0.12811  0  4.018546  0
C  C189  1  0.67134826  0.86360437  0.92590018  1  -0.025205  0  -0.09052  -0.122552  0  4.006159  0
C  C190  1  0.50962936  0.67934537  0.56154634  1  1.561174  0  0.232313  0.601142  0  4.161346  0
C  C191  1  0.55384928  0.74648193  0.62667291  1  -0.03436  0  -0.023017  -0.059723  0  3.994173  0
C  C192  1  0.62812596  0.73528754  0.67680829  1  -0.06964  0  -0.076772  -0.067046  0  3.941161  0
C  C193  1  0.66765129  0.79621477  0.74016363  1  -0.019399  0  -0.089633  -0.135907  0  3.966428  0
C  C194  1  0.63444971  0.87040361  0.75450759  1  -0.025931  0  -0.001006  0.081549  0  3.984581  0
C  C195  1  0.56009065  0.88116855  0.70341664  1  -0.005204  0  -0.092592  -0.138868  0  3.981418  0
C  C196  1  0.51978077  0.81999154  0.64069491  1  -0.070857  0  -0.081719  -0.085196  0  3.986004  0
C  C197  1  0.67793514  0.93792411  0.81860476  1  0.004241  0  -0.004498  0.02814  0  3.975447  0
C  C198  1  0.69747517  0.93340828  0.89898849  1  0.021324  0  -0.002006  0.035441  0  3.976908  0
C  C199  1  0.74118556  0.00228281  0.95609495  1  -0.029615  0  0.004897  0.007283  0  3.887225  0
C  C200  1  0.76324430  0.07521555  0.93245010  1  0.00427  0  -0.00232  0.038638  0  3.971397  0
C  C201  1  0.73976403  0.07896544  0.85225859  1  0.002075  0  -0.003639  0.025437  0  3.971171  0
C  C202  1  0.69923581  0.01006278  0.79794815  1  -0.097323  0  -0.091277  -0.184932  0  4.007549  0
C  C203  1  0.75158536  0.15216044  0.82235115  1  -0.035503  0  0.000611  0.084859  0  3.975479  0
C  C204  1  0.72844026  0.22450311  0.86488730  1  -0.01132  0  -0.091597  -0.135092  0  3.984675  0
C  C205  1  0.72741804  0.29041378  0.83179468  1  -0.003689  0  -0.081651  -0.082533  0  3.979639  0
C  C206  1  0.75004794  0.28603338  0.75494350  1  0.009992  0  -0.021239  -0.059416  0  4.002014  0
C  C207  1  0.77591190  0.21510455  0.71277495  1  -0.071748  0  -0.075169  -0.072014  0  3.978385  0
C  C208  1  0.77682828  0.14932110  0.74611326  1  -0.048131  0  -0.089309  -0.135024  0  3.971165  0
C  C209  1  0.74316800  0.35371861  0.71606724  1  1.512177  0  0.232418  0.585342  0  4.129671  0
C  C210  1  0.81287133  0.14037309  0.98989843  1  -0.063203  0  -0.091749  -0.128869  0  4.020872  0
C  C211  1  0.83343876  0.13662574  0.06713366  1  -0.006777  0  -0.091265  -0.126431  0  4.010169  0
C  C212  1  0.01201921  0.93462977  0.07556962  1  0.02245  0  -0.001548  0.039119  0  3.968065  0
C  C213  1  0.02207178  0.71245665  0.21347154  1  -0.044298  0  -0.07694  -0.075938  0  3.982991  0
C  C214  1  0.02435458  0.74693598  0.14869017  1  -0.081536  0  -0.088816  -0.133648  0  3.973286  0
C  C215  1  0.06096893  0.99206195  0.14107497  1  -0.019328  0  -0.092083  -0.128527  0  4.020992  0
C  C216  1  0.08195299  0.06927596  0.13728684  1  -0.035171  0  -0.090393  -0.124595  0  4.011164  0
C  C217  1  0.23370595  0.43570877  0.32334888  1  1.54647  0  0.231776  0.59813  0  4.16351  0
C  C218  1  0.19160486  0.37020429  0.25580090  1  -0.027069  0  -0.022736  -0.058594  0  3.997933  0
C  C219  1  0.12007397  0.31727997  0.26623236  1  -0.030971  0  -0.078337  -0.070543  0  3.944718  0
C  C220  1  0.08307571  0.25348072  0.20474566  1  -0.037525  0  -0.089677  -0.135237  0  3.964396  0
C  C221  1  0.11628847  0.24131207  0.13095958  1  -0.016082  0  -0.002095  0.079664  0  3.985928  0
C  C222  1  0.18799640  0.29512953  0.12107953  1  -0.057364  0  -0.091519  -0.136014  0  3.981102  0
C  C223  1  0.22569868  0.35838028  0.18269559  1  -0.0404  0  -0.08152  -0.085583  0  3.987508  0
C  C224  1  0.07522506  0.17682989  0.06306579  1  -0.052293  0  -0.005191  0.026702  0  3.979977  0
C  C225  1  0.05608585  0.09633966  0.06741277  1  0.059333  0  -0.002408  0.037859  0  3.974877  0
C  C226  1  0.01282424  0.03930533  0.99832957  1  0.020192  0  0.005732  0.007077  0  3.886669  0
C  C227  1  0.01501793  0.14327245  0.92167166  1  -0.002419  0  -0.00454  0.024191  0  3.971474  0
C  C228  1  0.05496988  0.19746567  0.99076748  1  -0.0828  0  -0.090383  -0.18421  0  4.011796  0
C  C229  1  0.00299601  0.17399332  0.84899006  1  -0.006021  0  0.000257  0.084642  0  3.974086  0
C  C230  1  0.02525214  0.13193931  0.77631839  1  -0.035463  0  -0.090415  -0.134856  0  3.9814  0
C  C231  1  0.02645386  0.16630639  0.71133648  1  -0.059564  0  -0.082329  -0.082607  0  3.973411  0
C  C232  1  0.00481729  0.24398586  0.71704350  1  -0.045813  0  -0.020132  -0.057368  0  3.999788  0
C  C233  1  0.01063301  0.28400361  0.65018243  1  1.516541  0  0.231593  0.58299  0  4.128235  0
C  C234  1  0.25992534  0.56252826  0.67951799  1  1.563924  0  0.231164  0.600664  0  4.162776  0
C  C235  1  0.30341780  0.62828523  0.74630433  1  -0.066498  0  -0.022979  -0.059174  0  3.994011  0
C  C236  1  0.37365431  0.68134359  0.73378335  1  0.019999  0  -0.07665  -0.067328  0  3.941236  0
C  C237  1  0.41241542  0.74519453  0.79447307  1  -0.155109  0  -0.09021  -0.13709  0  3.965218  0
C  C238  1  0.38210450  0.75758420  0.86947848  1  -0.008032  0  -0.000869  0.082561  0  3.982091  0
C  C239  1  0.31168898  0.70362320  0.88144066  1  0.004678  0  -0.092514  -0.139769  0  3.98173  0
C  C240  1  0.27237580  0.64011846  0.82072297  1  -0.059258  0  -0.081229  -0.084102  0  3.985357  0
C  C241  1  0.42511083  0.82224984  0.93646113  1  -0.006113  0  -0.00547  0.025888  0  3.978239  0
C  C242  1  0.44468704  0.90260788  0.93157900  1  0.007987  0  -0.002109  0.037876  0  3.97464  0
C  C243  1  0.48916998  0.95968411  0.00016879  1  0.008943  0  0.005793  0.006755  0  3.8847  0
C  C244  1  0.48769447  0.85610770  0.07739641  1  -0.016774  0  -0.00445  0.024512  0  3.96638  0
C  C245  1  0.44667885  0.80187673  0.00871259  1  -0.024228  0  -0.091216  -0.184152  0  4.010746  0
C  C246  1  0.49916583  0.82541897  0.15019099  1  -0.043236  0  0.000846  0.084739  0  3.975125  0
C  C247  1  0.47664469  0.86749977  0.22274976  1  -0.040871  0  -0.091059  -0.13503  0  3.980518  0
C  C248  1  0.47321349  0.83254116  0.28724610  1  -0.100591  0  -0.081536  -0.08175  0  3.969766  0
C  C249  1  0.49309999  0.75430946  0.28130837  1  -0.003886  0  -0.020184  -0.057709  0  3.998521  0
C  C250  1  0.48423627  0.71339730  0.34725601  1  1.537003  0  0.232406  0.584292  0  4.130453  0
C  C251  1  0.48957071  0.06412489  0.92240050  1  -0.045261  0  -0.002093  0.038152  0  3.967687  0
C  C252  1  0.48324354  0.28798012  0.78558846  1  -0.064889  0  -0.075512  -0.073192  0  3.979945  0
C  C253  1  0.47887860  0.25251151  0.84955923  1  0.007154  0  -0.089693  -0.134388  0  3.97323  0
C  C254  1  0.43991123  0.00658444  0.85735378  1  0.001925  0  -0.091742  -0.128238  0  4.019756  0
C  C255  1  0.41816566  0.92962437  0.86178128  1  -0.077817  0  -0.090528  -0.125177  0  4.009967  0
C  C256  1  0.48624753  0.32187166  0.43770660  1  1.543172  0  0.231475  0.59985  0  4.158352  0
C  C257  1  0.44342153  0.25429458  0.37242524  1  0.016621  0  -0.021922  -0.058547  0  3.994994  0
C  C258  1  0.36847461  0.26399322  0.32219306  1  -0.05129  0  -0.077618  -0.067719  0  3.944004  0
C  C259  1  0.33100907  0.20284618  0.25824839  1  -0.033109  0  -0.090335  -0.137119  0  3.965838  0
C  C260  1  0.36695530  0.12993046  0.24353839  1  -0.078625  0  -0.001115  0.081248  0  3.986953  0
C  C261  1  0.44194806  0.12058532  0.29471810  1  -0.090141  0  -0.093031  -0.141514  0  3.98323  0
C  C262  1  0.48027507  0.18208212  0.35790754  1  -0.042748  0  -0.080823  -0.082577  0  3.985801  0
C  C263  1  0.32508654  0.06206658  0.17915206  1  -0.013986  0  -0.005142  0.027339  0  3.979087  0
C  C264  1  0.30558391  0.06653006  0.09879727  1  -0.035801  0  -0.00256  0.03709  0  3.977967  0
C  C265  1  0.26217465  0.99755480  0.04168546  1  0.042273  0  0.006129  0.008758  0  3.888696  0
C  C266  1  0.24028320  0.92462102  0.06537502  1  -0.003831  0  -0.002637  0.036936  0  3.967884  0
C  C267  1  0.26390262  0.92092118  0.14555068  1  -0.010566  0  -0.004901  0.024159  0  3.967265  0
C  C268  1  0.30454286  0.98984535  0.19977184  1  -0.042776  0  -0.090878  -0.184726  0  4.009127  0
C  C269  1  0.25153541  0.84815349  0.17608273  1  -0.003249  0  0.000841  0.085278  0  3.973761  0
C  C270  1  0.27379326  0.77511664  0.13434076  1  -0.067294  0  -0.089997  -0.134973  0  3.979964  0
C  C271  1  0.27414663  0.70983268  0.16847263  1  -0.011564  0  -0.082246  -0.082107  0  3.976792  0
C  C272  1  0.25170737  0.71560359  0.24557838  1  -0.043231  0  -0.020737  -0.05885  0  4.00423  0
C  C273  1  0.22690147  0.78730872  0.28699600  1  -0.046825  0  -0.076344  -0.073604  0  3.982135  0
C  C274  1  0.22664133  0.85239900  0.25264274  1  -0.012292  0  -0.088864  -0.133686  0  3.970671  0
C  C275  1  0.25687176  0.64835374  0.28531746  1  1.512106  0  0.231152  0.583716  0  4.131774  0
C  C276  1  0.19038310  0.85959452  0.00799846  1  -0.048362  0  -0.091276  -0.125802  0  4.021492  0
C  C277  1  0.16899248  0.86358048  0.93094060  1  -0.103266  0  -0.090471  -0.125773  0  4.011826  0
C  C278  1  0.01048213  0.67863520  0.56504135  1  1.541895  0  0.230549  0.597332  0  4.163053  0
C  C279  1  0.05374282  0.74552091  0.63091998  1  -0.070271  0  -0.022318  -0.058675  0  3.995077  0
C  C280  1  0.12344772  0.73283885  0.68492328  1  -0.009062  0  -0.078129  -0.068905  0  3.942094  0
C  C281  1  0.16276033  0.79407714  0.74807839  1  -0.045495  0  -0.089879  -0.136266  0  3.965789  0
C  C282  1  0.13354539  0.86989388  0.75898608  1  -0.043397  0  -0.001132  0.081862  0  3.980394  0
C  C283  1  0.06330464  0.88188510  0.70430619  1  -0.04151  0  -0.092415  -0.138207  0  3.978841  0
C  C284  1  0.02347745  0.82062447  0.64146644  1  -0.021369  0  -0.081916  -0.085784  0  3.985376  0
C  C285  1  0.17677994  0.93735407  0.82316265  1  -0.024063  0  -0.006342  0.024593  0  3.974115  0
C  C286  1  0.19593482  0.93299463  0.90365944  1  0.025563  0  -0.002191  0.038736  0  3.97152  0
C  C287  1  0.24005408  0.00177869  0.96069319  1  -0.077648  0  0.005046  0.00529  0  3.888145  0
C  C288  1  0.26199286  0.07481180  0.93718535  1  0.025698  0  -0.000942  0.039822  0  3.968281  0
C  C289  1  0.23883680  0.07841922  0.85692652  1  -0.017902  0  -0.004421  0.024946  0  3.970436  0
C  C290  1  0.19866338  0.00947978  0.80257985  1  -0.061551  0  -0.090513  -0.183503  0  4.008856  0
C  C291  1  0.25050657  0.15150863  0.82680022  1  -0.025973  0  1.7e-05  0.084097  0  3.974904  0
C  C292  1  0.22592903  0.22359482  0.86847318  1  -0.048606  0  -0.090286  -0.134057  0  3.981822  0
C  C293  1  0.22375476  0.28898634  0.83463293  1  -0.011774  0  -0.082197  -0.082173  0  3.978217  0
C  C294  1  0.24744974  0.28444569  0.75808861  1  -0.053763  0  -0.021054  -0.060524  0  4.004242  0
C  C295  1  0.27528925  0.21393954  0.71700722  1  -0.006817  0  -0.076184  -0.07228  0  3.979356  0
C  C296  1  0.27661838  0.14852863  0.75085746  1  -0.029728  0  -0.089124  -0.134369  0  3.975179  0
C  C297  1  0.24030672  0.35147153  0.71825054  1  1.506415  0  0.231404  0.584719  0  4.129905  0
C  C298  1  0.31063417  0.14031248  0.99485667  1  -0.018945  0  -0.091916  -0.12847  0  4.020827  0
C  C299  1  0.33127777  0.13652687  0.07208483  1  0.023025  0  -0.089904  -0.12294  0  4.009383  0
O  O300  1  0.50476257  0.64567826  0.34473954  1  -1.173405  0  -0.293469  -0.51521  0  2.164619  0
O  O301  1  0.80794322  0.47508176  0.31518078  1  -1.187517  0  -0.306371  -0.552817  0  2.228735  0
O  O302  1  0.69320587  0.45105941  0.38318213  1  -1.244522  0  -0.345107  -0.635715  0  2.313022  0
O  O303  1  0.55447828  0.24430896  0.58866780  1  -1.171776  0  -0.337351  -0.490574  0  2.287073  0
O  O304  1  0.68651483  0.52660628  0.68452670  1  -1.183917  0  -0.305454  -0.549741  0  2.229129  0
O  O305  1  0.79994282  0.55064653  0.61503631  1  -1.246102  0  -0.346474  -0.639249  0  2.316424  0
O  O306  1  0.95931862  0.75978228  0.41336539  1  -1.162065  0  -0.338278  -0.491686  0  2.287613  0
O  O307  1  0.87185054  0.53798576  0.46300778  1  -1.361253  0  -0.611866  -0.876856  0  2.148383  0
O  O308  1  0.98822187  0.35102669  0.65223286  1  -1.174249  0  -0.291759  -0.513209  0  2.171457  0
O  O309  1  0.70969830  0.61100075  0.49015853  1  -1.304326  0  -0.620883  -0.853547  0  2.015383  0
O  O310  1  0.62272976  0.46500091  0.53653791  1  -1.347561  0  -0.615795  -0.880674  0  2.154868  0
O  O311  1  0.78316219  0.39123218  0.50705987  1  -1.31869  0  -0.619109  -0.849825  0  2.018643  0
O  O312  1  0.54933539  0.61695749  0.54594150  1  -1.250609  0  -0.347913  -0.641935  0  2.32184  0
O  O313  1  0.95965993  0.49114585  0.60991004  1  -1.328524  0  -0.619009  -0.850984  0  2.017068  0
O  O314  1  0.56373043  0.31690095  0.47281759  1  -1.188961  0  -0.304282  -0.550145  0  2.236316  0
O  O315  1  0.53054711  0.50523939  0.38895426  1  -1.298468  0  -0.617598  -0.848627  0  2.01343  0
O  O316  1  0.94339678  0.38381732  0.45040582  1  -1.244263  0  -0.345895  -0.63879  0  2.316119  0
O  O317  1  0.73888443  0.65572295  0.35239049  1  -1.174817  0  -0.292498  -0.514581  0  2.167749  0
O  O318  1  0.78756634  0.58835594  0.24046618  1  -1.168952  0  -0.337924  -0.491785  0  2.289348  0
O  O319  1  0.76433521  0.35237943  0.64907586  1  -1.177588  0  -0.292457  -0.515071  0  2.178686  0
O  O320  1  0.70995935  0.41467740  0.76019197  1  -1.162308  0  -0.337843  -0.491477  0  2.288995  0
O  O321  1  0.93584479  0.68613033  0.52662081  1  -1.186646  0  -0.306027  -0.551574  0  2.224093  0
O  O322  1  0.00466863  0.64533308  0.34720210  1  -1.174589  0  -0.292177  -0.514451  0  2.173919  0
O  O323  1  0.30854717  0.47410191  0.31733502  1  -1.19322  0  -0.305807  -0.550283  0  2.236279  0
O  O324  1  0.19411405  0.44955671  0.38552312  1  -1.242138  0  -0.347221  -0.639086  0  2.314389  0
O  O325  1  0.04389880  0.24065979  0.58887587  1  -1.172453  0  -0.33862  -0.491811  0  2.280951  0
O  O326  1  0.18449968  0.52542380  0.68603952  1  -1.186092  0  -0.305598  -0.55265  0  2.22618  0
O  O327  1  0.29923661  0.54735215  0.61727992  1  -1.245368  0  -0.347723  -0.641748  0  2.321866  0
O  O328  1  0.45033459  0.75676383  0.40812997  1  -1.185034  0  -0.336402  -0.489165  0  2.288264  0
O  O329  1  0.37128865  0.53659859  0.46489597  1  -1.348094  0  -0.613152  -0.878591  0  2.152107  0
O  O330  1  0.50086257  0.35578503  0.65185521  1  -1.170085  0  -0.292953  -0.515766  0  2.170729  0
O  O331  1  0.21003528  0.60911006  0.49331522  1  -1.333928  0  -0.617699  -0.848398  0  2.017073  0
O  O332  1  0.12144121  0.46260307  0.53760942  1  -1.39873  0  -0.611465  -0.875013  0  2.150319  0
O  O333  1  0.28415926  0.38917386  0.51030734  1  -1.332551  0  -0.619942  -0.851483  0  2.009887  0
O  O334  1  0.04939019  0.61567178  0.55071266  1  -1.237181  0  -0.346573  -0.63889  0  2.312097  0
O  O335  1  0.46285038  0.49539206  0.61177633  1  -1.317392  0  -0.617394  -0.849043  0  2.012535  0
O  O336  1  0.05800696  0.31460569  0.47467157  1  -1.18917  0  -0.306482  -0.553426  0  2.23073  0
O  O337  1  0.03292953  0.50691772  0.39095782  1  -1.334392  0  -0.619792  -0.852597  0  2.018071  0
O  O338  1  0.44476251  0.38310198  0.45428533  1  -1.233775  0  -0.346173  -0.64008  0  2.313512  0
O  O339  1  0.23468420  0.65065583  0.35214880  1  -1.172487  0  -0.293218  -0.515411  0  2.167826  0
O  O340  1  0.28935940  0.58652544  0.24187422  1  -1.168014  0  -0.338326  -0.49123  0  2.288897  0
O  O341  1  0.26739625  0.35155345  0.65356046  1  -1.17703  0  -0.292838  -0.515621  0  2.169475  0
O  O342  1  0.20044759  0.41013810  0.75879705  1  -1.165105  0  -0.336062  -0.489149  0  2.288047  0
O  O343  1  0.43335466  0.68577141  0.52517103  1  -1.189715  0  -0.306794  -0.553382  0  2.220542  0
