# generated using pymatgen
data_CdH12(C7N5)2
_symmetry_space_group_name_H-M   'P 1'
_cell_length_a   7.52428843
_cell_length_b   7.57085704
_cell_length_c   14.86721947
_cell_angle_alpha   89.99999715
_cell_angle_beta   90.00060214
_cell_angle_gamma   103.69096825
_symmetry_Int_Tables_number   1
_chemical_formula_structural   CdH12(C7N5)2
_chemical_formula_sum   'Cd2 H24 C28 N20'
_cell_volume   822.85190424
_cell_formula_units_Z   2
loop_
 _symmetry_equiv_pos_site_id
 _symmetry_equiv_pos_as_xyz
  1  'x, y, z'
loop_
 _atom_site_type_symbol
 _atom_site_label
 _atom_site_symmetry_multiplicity
 _atom_site_fract_x
 _atom_site_fract_y
 _atom_site_fract_z
 _atom_site_occupancy
 _atom_site_hle17_bader_spin_density
 _atom_site_hle17_ddec_charge
 _atom_site_hle17_ddec_spin_density
 _atom_site_hle17_ddec_sum_bond_order
 _atom_site_hle17_magmom
 _atom_site_hse06_10hf_bader_spin_density
 _atom_site_hse06_10hf_ddec_charge
 _atom_site_hse06_10hf_ddec_spin_density
 _atom_site_hse06_10hf_ddec_sum_bond_order
 _atom_site_hse06_10hf_magmom
 _atom_site_hse06_bader_spin_density
 _atom_site_hse06_ddec_charge
 _atom_site_hse06_ddec_spin_density
 _atom_site_hse06_ddec_sum_bond_order
 _atom_site_hse06_magmom
 _atom_site_pbe_bader_spin_density
 _atom_site_pbe_cm5_charge
 _atom_site_pbe_ddec_charge
 _atom_site_pbe_ddec_spin_density
 _atom_site_pbe_ddec_sum_bond_order
 _atom_site_pbe_magmom
Cd  Cd0  1  0.99999373  0.49999218  0.49999731  1  0  1.120163  0  1.870053  0  0  0.930926  0  2.347671  0  0  0.977071  0  2.304675  0  0  0.833611  0.898675  0  2.376855  0
Cd  Cd1  1  0.50000071  0.50000279  0.99999798  1  0  1.120284  0  1.870104  0  0  0.931058  0  2.347738  0  0  0.977194  0  2.304743  0  0  0.833665  0.898811  0  2.376909  0
H  H2  1  0.99350461  0.87702971  0.42220125  1  0  0.08819  0  0.94115  0  0  0.098257  0  1.004002  0  0  0.100783  0  1.002208  0  0  0.112512  0.096414  0  1.005399  0
H  H3  1  0.50649751  0.12297131  0.92220068  1  0  0.088157  0  0.941133  0  0  0.098207  0  1.004017  0  0  0.100733  0  1.002224  0  0  0.112491  0.096368  0  1.005412  0
H  H4  1  0.00650815  0.12296667  0.57780005  1  0  0.088206  0  0.941144  0  0  0.098278  0  1.00402  0  0  0.100806  0  1.002225  0  0  0.112521  0.09644  0  1.005409  0
H  H5  1  0.49349377  0.87703574  0.07779726  1  0  0.088233  0  0.941098  0  0  0.098321  0  1.003958  0  0  0.100849  0  1.002163  0  0  0.112537  0.096478  0  1.00535  0
H  H6  1  0.09711320  0.42366168  0.29525653  1  0  0.074774  0  0.971147  0  0  0.081052  0  1.042791  0  0  0.083904  0  1.040814  0  0  0.105692  0.079013  0  1.044205  0
H  H7  1  0.40289026  0.57633912  0.79525466  1  0  0.074779  0  0.971147  0  0  0.081052  0  1.042805  0  0  0.083903  0  1.040828  0  0  0.105684  0.079014  0  1.04422  0
H  H8  1  0.90289650  0.57633874  0.70473872  1  0  0.074796  0  0.971056  0  0  0.08107  0  1.042733  0  0  0.083921  0  1.040755  0  0  0.105676  0.079035  0  1.044145  0
H  H9  1  0.59710346  0.42366116  0.20473857  1  0  0.074758  0  0.97107  0  0  0.081027  0  1.042755  0  0  0.083879  0  1.040775  0  0  0.105684  0.078992  0  1.044171  0
H  H10  1  0.09329584  0.56872594  0.14290926  1  0  0.092133  0  0.971168  0  0  0.102362  0  1.032658  0  0  0.103905  0  1.033507  0  0  0.09965  0.101222  0  1.032201  0
H  H11  1  0.40670597  0.43127000  0.64290742  1  0  0.092111  0  0.97119  0  0  0.102342  0  1.032674  0  0  0.103885  0  1.033522  0  0  0.09964  0.101203  0  1.032218  0
H  H12  1  0.90670282  0.43127845  0.85708800  1  0  0.092123  0  0.971168  0  0  0.102353  0  1.032647  0  0  0.103904  0  1.033486  0  0  0.099661  0.101193  0  1.03222  0
H  H13  1  0.59329848  0.56872494  0.35708782  1  0  0.092118  0  0.971222  0  0  0.102387  0  1.03266  0  0  0.103938  0  1.0335  0  0  0.099675  0.101225  0  1.032236  0
H  H14  1  0.03087212  0.87606707  0.13215321  1  0  0.102648  0  0.957338  0  0  0.113139  0  1.019262  0  0  0.115653  0  1.01833  0  0  0.103242  0.111333  0  1.019961  0
H  H15  1  0.46913407  0.12393158  0.63215307  1  0  0.102601  0  0.957368  0  0  0.113085  0  1.01931  0  0  0.1156  0  1.018382  0  0  0.103207  0.111282  0  1.020006  0
H  H16  1  0.96912622  0.12393597  0.86784742  1  0  0.102619  0  0.957359  0  0  0.113137  0  1.019259  0  0  0.115652  0  1.01833  0  0  0.103228  0.111337  0  1.019957  0
H  H17  1  0.53087469  0.87606476  0.36784689  1  0  0.102633  0  0.957344  0  0  0.113155  0  1.019233  0  0  0.115671  0  1.018303  0  0  0.103242  0.111351  0  1.01993  0
H  H18  1  0.92810335  0.12258562  0.33158025  1  0  0.311116  0  0.938164  0  0  0.298009  0  1.001342  0  0  0.303548  0  0.997696  0  0  0.288007  0.294068  0  1.003914  0
H  H19  1  0.57189911  0.87741358  0.83158401  1  0  0.311133  0  0.938154  0  0  0.298007  0  1.001348  0  0  0.303548  0  0.997704  0  0  0.287998  0.294066  0  1.003918  0
H  H20  1  0.07189883  0.87740524  0.66842710  1  0  0.311115  0  0.938118  0  0  0.29806  0  1.001235  0  0  0.303601  0  0.997587  0  0  0.288037  0.294119  0  1.003799  0
H  H21  1  0.42810518  0.12259222  0.16841863  1  0  0.311039  0  0.938251  0  0  0.297931  0  1.001433  0  0  0.30347  0  0.997787  0  0  0.287971  0.293989  0  1.004004  0
H  H22  1  0.93902499  0.12059186  0.21668859  1  0  0.298485  0  0.938664  0  0  0.284838  0  1.001798  0  0  0.290097  0  0.999  0  0  0.291303  0.281108  0  1.003741  0
H  H23  1  0.56097728  0.87940541  0.71669095  1  0  0.298521  0  0.938659  0  0  0.284872  0  1.001789  0  0  0.290131  0  0.998994  0  0  0.291301  0.281137  0  1.003741  0
H  H24  1  0.06097171  0.87940980  0.78331809  1  0  0.2986  0  0.938441  0  0  0.28492  0  1.001587  0  0  0.290177  0  0.998792  0  0  0.291394  0.281194  0  1.003519  0
H  H25  1  0.43902341  0.12059629  0.28330901  1  0  0.298641  0  0.938522  0  0  0.285002  0  1.001638  0  0  0.290261  0  0.998839  0  0  0.291374  0.281269  0  1.003588  0
C  C26  1  0.35531510  0.28321464  0.45340178  1  0  0.517115  0  3.980544  0  0  0.478977  0  4.262487  0  0  0.505314  0  4.272868  0  0  0.313823  0.461088  0  4.255169  0
C  C27  1  0.14468679  0.71677067  0.95340392  1  0  0.517169  0  3.980429  0  0  0.479023  0  4.26239  0  0  0.505367  0  4.272776  0  0  0.313952  0.461131  0  4.255061  0
C  C28  1  0.64468599  0.71678300  0.54660423  1  0  0.517113  0  3.980335  0  0  0.478962  0  4.262337  0  0  0.505285  0  4.272717  0  0  0.313822  0.461088  0  4.255022  0
C  C29  1  0.85530952  0.28323506  0.04659940  1  0  0.517015  0  3.980631  0  0  0.478871  0  4.262556  0  0  0.505209  0  4.272938  0  0  0.313891  0.460986  0  4.255249  0
C  C30  1  0.63816302  0.21731924  0.43394631  1  0  0.510592  0  3.976783  0  0  0.466594  0  4.267965  0  0  0.492952  0  4.277802  0  0  0.309224  0.44869  0  4.261068  0
C  C31  1  0.86184680  0.78267377  0.93394959  1  0  0.510586  0  3.976588  0  0  0.466579  0  4.267788  0  0  0.492942  0  4.27763  0  0  0.309198  0.448663  0  4.260891  0
C  C32  1  0.36185192  0.78268666  0.56605567  1  0  0.510582  0  3.976261  0  0  0.466603  0  4.267467  0  0  0.492952  0  4.27731  0  0  0.309279  0.448707  0  4.260561  0
C  C33  1  0.13814417  0.21733192  0.06605037  1  0  0.510631  0  3.976436  0  0  0.466612  0  4.267642  0  0  0.492973  0  4.277483  0  0  0.309291  0.448713  0  4.260741  0
C  C34  1  0.01047404  0.90582113  0.27664151  1  0  0.273699  0  3.860705  0  0  0.273338  0  4.107994  0  0  0.280711  0  4.128806  0  0  0.101621  0.267932  0  4.094034  0
C  C35  1  0.48952211  0.09417273  0.77664012  1  0  0.273641  0  3.860732  0  0  0.273371  0  4.10789  0  0  0.28076  0  4.128684  0  0  0.101556  0.267966  0  4.093928  0
C  C36  1  0.98952939  0.09417517  0.72336114  1  0  0.273646  0  3.86066  0  0  0.273423  0  4.107792  0  0  0.280799  0  4.128604  0  0  0.101648  0.268016  0  4.093831  0
C  C37  1  0.51047560  0.90582758  0.22335983  1  0  0.273756  0  3.860733  0  0  0.27344  0  4.107987  0  0  0.280823  0  4.128785  0  0  0.101629  0.268035  0  4.094023  0
C  C38  1  0.01565962  0.81370679  0.35854184  1  0  0.000813  0  3.681384  0  0  -0.033531  0  3.932044  0  0  -0.031111  0  3.950476  0  0  0.027412  -0.035058  0  3.919551  0
C  C39  1  0.48434156  0.18629567  0.85854043  1  0  0.000932  0  3.681197  0  0  -0.033438  0  3.931844  0  0  -0.031023  0  3.950272  0  0  0.027466  -0.034965  0  3.919351  0
C  C40  1  0.98435048  0.18628956  0.64145879  1  0  0.000895  0  3.681236  0  0  -0.033553  0  3.931925  0  0  -0.031139  0  3.950362  0  0  0.027397  -0.035076  0  3.91942  0
C  C41  1  0.51564973  0.81371137  0.14145818  1  0  0.000766  0  3.681284  0  0  -0.033691  0  3.932008  0  0  -0.031277  0  3.95044  0  0  0.027363  -0.035219  0  3.919507  0
C  C42  1  0.07160470  0.55858736  0.28747894  1  0  0.075096  0  3.747487  0  0  0.037956  0  4.008869  0  0  0.042847  0  4.02765  0  0  0.015938  0.034755  0  3.996047  0
C  C43  1  0.42839459  0.44141337  0.78747722  1  0  0.075042  0  3.747478  0  0  0.037903  0  4.008836  0  0  0.042794  0  4.027616  0  0  0.015902  0.034704  0  3.996015  0
C  C44  1  0.92840202  0.44141168  0.71251698  1  0  0.07495  0  3.747329  0  0  0.03777  0  4.00873  0  0  0.042662  0  4.027511  0  0  0.015887  0.034578  0  3.995892  0
C  C45  1  0.57160242  0.55858965  0.21251534  1  0  0.075121  0  3.747291  0  0  0.037936  0  4.008681  0  0  0.04283  0  4.027457  0  0  0.015886  0.034733  0  3.995859  0
C  C46  1  0.06929530  0.64004027  0.20358497  1  0  -0.093253  0  3.791695  0  0  -0.104642  0  4.044111  0  0  -0.108235  0  4.066415  0  0  -0.090441  -0.102366  0  4.029177  0
C  C47  1  0.43070715  0.35995870  0.70358326  1  0  -0.093192  0  3.79157  0  0  -0.104573  0  4.043981  0  0  -0.108164  0  4.066287  0  0  -0.090406  -0.102303  0  4.029055  0
C  C48  1  0.93070939  0.35996146  0.79641431  1  0  -0.093145  0  3.791576  0  0  -0.10452  0  4.04399  0  0  -0.108117  0  4.066291  0  0  -0.090434  -0.102229  0  4.029076  0
C  C49  1  0.56929261  0.64003891  0.29641199  1  0  -0.093253  0  3.791694  0  0  -0.104669  0  4.044116  0  0  -0.108267  0  4.066417  0  0  -0.090445  -0.102379  0  4.029205  0
C  C50  1  0.03691610  0.81270987  0.19751717  1  0  -0.133465  0  3.678539  0  0  -0.155333  0  3.926268  0  0  -0.15692  0  3.94465  0  0  -0.086714  -0.154076  0  3.913968  0
C  C51  1  0.46308848  0.18729316  0.69751631  1  0  -0.133414  0  3.67852  0  0  -0.155312  0  3.926236  0  0  -0.156915  0  3.944625  0  0  -0.08664  -0.154058  0  3.913939  0
C  C52  1  0.96308326  0.18729182  0.80248212  1  0  -0.133455  0  3.678629  0  0  -0.15538  0  3.926318  0  0  -0.156978  0  3.944711  0  0  -0.086659  -0.154128  0  3.914021  0
C  C53  1  0.53691222  0.81270853  0.30248095  1  0  -0.133464  0  3.678578  0  0  -0.155359  0  3.926299  0  0  -0.156957  0  3.944687  0  0  -0.086679  -0.154103  0  3.913994  0
N  N54  1  0.24613525  0.36479913  0.47338774  1  0  -0.602614  0  2.799554  0  0  -0.555204  0  3.080328  0  0  -0.577686  0  3.085063  0  0  -0.379737  -0.539845  0  3.076968  0
N  N55  1  0.25386779  0.63518358  0.97339181  1  0  -0.602703  0  2.799664  0  0  -0.555296  0  3.080465  0  0  -0.577775  0  3.085199  0  0  -0.37988  -0.539937  0  3.077106  0
N  N56  1  0.75384258  0.63519558  0.52660548  1  0  -0.6026  0  2.799461  0  0  -0.555192  0  3.080258  0  0  -0.577668  0  3.084996  0  0  -0.37976  -0.53984  0  3.076896  0
N  N57  1  0.74613228  0.36481540  0.02660545  1  0  -0.602745  0  2.799746  0  0  -0.555345  0  3.080552  0  0  -0.577822  0  3.085283  0  0  -0.379939  -0.539986  0  3.077192  0
N  N58  1  0.46202826  0.18107089  0.42856622  1  0  -0.465615  0  3.31679  0  0  -0.405983  0  3.573292  0  0  -0.429619  0  3.576793  0  0  -0.305403  -0.389646  0  3.570268  0
N  N59  1  0.03797299  0.81891971  0.92856712  1  0  -0.465609  0  3.316788  0  0  -0.405972  0  3.573298  0  0  -0.429623  0  3.576812  0  0  -0.305417  -0.389617  0  3.57026  0
N  N60  1  0.53798513  0.81892821  0.57145324  1  0  -0.465503  0  3.316385  0  0  -0.405896  0  3.572889  0  0  -0.429518  0  3.57639  0  0  -0.30532  -0.389553  0  3.569819  0
N  N61  1  0.96201884  0.18109547  0.07144024  1  0  -0.465392  0  3.316888  0  0  -0.405737  0  3.573385  0  0  -0.429384  0  3.576904  0  0  -0.305339  -0.389396  0  3.570336  0
N  N62  1  0.04301936  0.64555163  0.36303772  1  0  -0.330705  0  3.382068  0  0  -0.245978  0  3.643847  0  0  -0.264731  0  3.666792  0  0  -0.339109  -0.232987  0  3.627789  0
N  N63  1  0.45698489  0.35445224  0.86303547  1  0  -0.330802  0  3.382159  0  0  -0.246079  0  3.643957  0  0  -0.26483  0  3.666901  0  0  -0.339155  -0.233088  0  3.627898  0
N  N64  1  0.95698909  0.35444335  0.63696090  1  0  -0.330689  0  3.382035  0  0  -0.245891  0  3.643793  0  0  -0.264643  0  3.666739  0  0  -0.339045  -0.232897  0  3.627724  0
N  N65  1  0.54300977  0.64555212  0.13696045  1  0  -0.330734  0  3.381983  0  0  -0.2459  0  3.643703  0  0  -0.26465  0  3.666646  0  0  -0.339059  -0.232906  0  3.627636  0
N  N66  1  0.79850764  0.23292398  0.43363732  1  0  -0.617787  0  2.75218  0  0  -0.572021  0  3.024045  0  0  -0.591933  0  3.027368  0  0  -0.386602  -0.558485  0  3.021794  0
N  N67  1  0.70149482  0.76707167  0.93363841  1  0  -0.617774  0  2.751818  0  0  -0.571999  0  3.023688  0  0  -0.591913  0  3.027015  0  0  -0.386541  -0.558454  0  3.021432  0
N  N68  1  0.20149676  0.76705333  0.56635725  1  0  -0.617856  0  2.75177  0  0  -0.572092  0  3.023643  0  0  -0.592006  0  3.026973  0  0  -0.386687  -0.558551  0  3.021375  0
N  N69  1  0.29849905  0.23294082  0.06635818  1  0  -0.617832  0  2.751634  0  0  -0.572058  0  3.023508  0  0  -0.591967  0  3.026829  0  0  -0.386607  -0.558518  0  3.021249  0
N  N70  1  0.98469981  0.07945090  0.27567957  1  0  -0.661312  0  3.135736  0  0  -0.627307  0  3.358204  0  0  -0.648028  0  3.362406  0  0  -0.597238  -0.612527  0  3.354985  0
N  N71  1  0.51530603  0.92055077  0.77568034  1  0  -0.661363  0  3.135871  0  0  -0.62736  0  3.3583  0  0  -0.648078  0  3.362478  0  0  -0.59721  -0.612572  0  3.355078  0
N  N72  1  0.01530128  0.92054673  0.72432577  1  0  -0.661425  0  3.135618  0  0  -0.627464  0  3.358067  0  0  -0.648171  0  3.362233  0  0  -0.59741  -0.612708  0  3.354899  0
N  N73  1  0.48469293  0.07945499  0.22432164  1  0  -0.661434  0  3.135789  0  0  -0.627434  0  3.358216  0  0  -0.648156  0  3.36241  0  0  -0.597317  -0.61265  0  3.354997  0
