# generated using pymatgen
data_Na2Zn3H12(C10O9)2
_symmetry_space_group_name_H-M   'P 1'
_cell_length_a   7.39181527
_cell_length_b   10.45730285
_cell_length_c   16.54200000
_cell_angle_alpha   86.84728198
_cell_angle_beta   81.04777206
_cell_angle_gamma   69.30288994
_symmetry_Int_Tables_number   1
_chemical_formula_structural   Na2Zn3H12(C10O9)2
_chemical_formula_sum   'Na4 Zn6 H24 C40 O36'
_cell_volume   1181.57696609
_cell_formula_units_Z   2
loop_
 _symmetry_equiv_pos_site_id
 _symmetry_equiv_pos_as_xyz
  1  'x, y, z'
loop_
 _atom_site_type_symbol
 _atom_site_label
 _atom_site_symmetry_multiplicity
 _atom_site_fract_x
 _atom_site_fract_y
 _atom_site_fract_z
 _atom_site_occupancy
 _atom_site_hle17_bader_spin_density
 _atom_site_hle17_ddec_charge
 _atom_site_hle17_ddec_spin_density
 _atom_site_hle17_ddec_sum_bond_order
 _atom_site_hle17_magmom
 _atom_site_hse06_10hf_bader_spin_density
 _atom_site_hse06_10hf_ddec_charge
 _atom_site_hse06_10hf_ddec_spin_density
 _atom_site_hse06_10hf_ddec_sum_bond_order
 _atom_site_hse06_10hf_magmom
 _atom_site_hse06_bader_spin_density
 _atom_site_hse06_ddec_charge
 _atom_site_hse06_ddec_spin_density
 _atom_site_hse06_ddec_sum_bond_order
 _atom_site_hse06_magmom
 _atom_site_pbe_bader_charge
 _atom_site_pbe_bader_spin_density
 _atom_site_pbe_cm5_charge
 _atom_site_pbe_ddec_charge
 _atom_site_pbe_ddec_spin_density
 _atom_site_pbe_ddec_sum_bond_order
 _atom_site_pbe_magmom
Na  Na0  1  0.64006984  0.72073257  0.25006405  1  0  0.917072  0  0.370688  0  0  0.876988  0  0.521174  0  0  0.887264  0  0.499848  0  0.89263  0  0.68206  0.869203  0  0.536775  0
Na  Na1  1  0.35993106  0.27926866  0.74993627  1  0  0.917063  0  0.370679  0  0  0.876983  0  0.521147  0  0  0.887267  0  0.499819  0  0.892632  0  0.682062  0.8692  0  0.536747  0
Na  Na2  1  0.86988082  0.26038374  0.74997756  1  0  0.926426  0  0.332202  0  0  0.888373  0  0.471642  0  0  0.898379  0  0.451335  0  0.898035  0  0.654372  0.880704  0  0.486441  0
Na  Na3  1  0.13011785  0.73961647  0.25002235  1  0  0.926426  0  0.332219  0  0  0.888357  0  0.471693  0  0  0.898363  0  0.451387  0  0.898059  0  0.654357  0.880684  0  0.486492  0
Zn  Zn4  1  0.86906038  0.98408388  0.40151636  1  0  1.163204  0  1.704338  0  0  0.994046  0  2.175098  0  0  1.043586  0  2.111488  0  1.319882  0  0.692158  0.955515  0  2.222316  0
Zn  Zn5  1  0.14680806  0.98422393  0.09852930  1  0  1.160886  0  1.706228  0  0  0.991488  0  2.177362  0  0  1.041173  0  2.113744  0  1.317488  0  0.692452  0.95601  0  2.221848  0
Zn  Zn6  1  0.13093778  0.01591735  0.59848354  1  0  1.163204  0  1.704338  0  0  0.994053  0  2.175105  0  0  1.043591  0  2.111494  0  1.319885  0  0.692163  0.955521  0  2.222325  0
Zn  Zn7  1  0.85319112  0.01577526  0.90147121  1  0  1.160874  0  1.706204  0  0  0.991497  0  2.177343  0  0  1.041183  0  2.113722  0  1.317481  0  0.692443  0.956022  0  2.221828  0
Zn  Zn8  1  0.84795828  0.30427273  0.25001471  1  0  1.230326  0  1.635792  0  0  1.062537  0  2.099123  0  0  1.11555  0  2.03056  0  1.352041  0  0.740073  1.024517  0  2.147007  0
Zn  Zn9  1  0.15204312  0.69572748  0.74998500  1  0  1.230365  0  1.635848  0  0  1.062542  0  2.09919  0  0  1.115552  0  2.030627  0  1.352019  0  0.740062  1.024524  0  2.147073  0
H  H10  1  0.59813651  0.15633063  0.32560425  1  0  0.436447  0  0.854354  0  0  0.406722  0  0.914559  0  0  0.417222  0  0.899255  0  0.634796  0  0.301352  0.398939  0  0.925902  0
H  H11  1  0.24589352  0.15631632  0.17435801  1  0  0.435253  0  0.856164  0  0  0.406193  0  0.915202  0  0  0.416666  0  0.899928  0  0.62387  0  0.301526  0.398632  0  0.926226  0
H  H12  1  0.40186165  0.84367060  0.67439626  1  0  0.436472  0  0.854321  0  0  0.406747  0  0.914525  0  0  0.417248  0  0.89922  0  0.634773  0  0.301382  0.398966  0  0.925864  0
H  H13  1  0.75410515  0.84368389  0.82564190  1  0  0.435306  0  0.856101  0  0  0.406241  0  0.915137  0  0  0.416713  0  0.899865  0  0.623865  0  0.301553  0.39868  0  0.926161  0
H  H14  1  0.57134317  0.00469005  0.33119616  1  0  0.436327  0  0.866369  0  0  0.402521  0  0.933068  0  0  0.414416  0  0.91627  0  0.651932  0  0.297474  0.393941  0  0.945152  0
H  H15  1  0.42425828  0.00460521  0.16877098  1  0  0.43574  0  0.867452  0  0  0.402114  0  0.933865  0  0  0.414042  0  0.917024  0  0.668727  0  0.29722  0.393673  0  0.94576  0
H  H16  1  0.42865361  0.99531118  0.66880445  1  0  0.436326  0  0.866371  0  0  0.402524  0  0.933063  0  0  0.414419  0  0.916264  0  0.651936  0  0.297486  0.393944  0  0.945147  0
H  H17  1  0.57574038  0.99539500  0.83122892  1  0  0.435713  0  0.867466  0  0  0.402137  0  0.933807  0  0  0.414064  0  0.916966  0  0.668735  0  0.297222  0.393696  0  0.945701  0
H  H18  1  0.91639173  0.48546330  0.36397416  1  0  0.105614  0  0.962343  0  0  0.108882  0  1.038257  0  0  0.11377  0  1.032665  0  0.116075  0  0.111438  0.105323  0  1.042467  0
H  H19  1  0.59790864  0.48542241  0.13620411  1  0  0.106024  0  0.962345  0  0  0.10938  0  1.038035  0  0  0.114298  0  1.032484  0  0.133173  0  0.111335  0.105691  0  1.042214  0
H  H20  1  0.08361292  0.51453589  0.63602597  1  0  0.10561  0  0.962358  0  0  0.108857  0  1.038293  0  0  0.113742  0  1.032704  0  0.11609  0  0.111445  0.105302  0  1.042501  0
H  H21  1  0.40209190  0.51457678  0.86379631  1  0  0.10604  0  0.96235  0  0  0.109407  0  1.038026  0  0  0.11434  0  1.03246  0  0.133145  0  0.111348  0.105718  0  1.042204  0
H  H22  1  0.63669865  0.73388986  0.57672652  1  0  0.1072  0  0.945876  0  0  0.115759  0  1.01044  0  0  0.119866  0  1.006273  0  0.094203  0  0.110632  0.112902  0  1.013198  0
H  H23  1  0.62968728  0.73415155  0.92362377  1  0  0.107377  0  0.944516  0  0  0.115578  0  1.009501  0  0  0.119633  0  1.005417  0  0.129222  0  0.110689  0.112585  0  1.012567  0
H  H24  1  0.36330276  0.26611035  0.42327259  1  0  0.107152  0  0.945919  0  0  0.115701  0  1.010498  0  0  0.119823  0  1.006311  0  0.094197  0  0.110619  0.112844  0  1.013256  0
H  H25  1  0.37031515  0.26584661  0.07637534  1  0  0.107462  0  0.94454  0  0  0.115687  0  1.009467  0  0  0.119746  0  1.005382  0  0.129192  0  0.110767  0.112696  0  1.012534  0
H  H26  1  0.68164871  0.31143661  0.57962884  1  0  0.115184  0  0.958549  0  0  0.119343  0  1.02953  0  0  0.123672  0  1.025525  0  0.143661  0  0.116657  0.116217  0  1.032437  0
H  H27  1  0.00608230  0.31142332  0.92039815  1  0  0.114646  0  0.959888  0  0  0.119237  0  1.030163  0  0  0.12356  0  1.026155  0  0.149445  0  0.116871  0.116112  0  1.033016  0
H  H28  1  0.31835132  0.68856360  0.42037097  1  0  0.115254  0  0.958461  0  0  0.119379  0  1.02948  0  0  0.123708  0  1.025473  0  0.143448  0  0.116666  0.116253  0  1.032386  0
H  H29  1  0.99392048  0.68857689  0.07960207  1  0  0.11467  0  0.959847  0  0  0.119257  0  1.030131  0  0  0.123581  0  1.026123  0  0.149492  0  0.116882  0.11613  0  1.032986  0
H  H30  1  0.21669889  0.04519031  0.40154411  1  0  0.013662  0  0.955231  0  0  0.024555  0  1.02269  0  0  0.024775  0  1.018302  0  0.1043  0  0.111942  0.024161  0  1.025869  0
H  H31  1  0.73835494  0.04501959  0.09836764  1  0  0.014226  0  0.953916  0  0  0.025195  0  1.021293  0  0  0.025442  0  1.016888  0  0.107451  0  0.11187  0.02477  0  1.024558  0
H  H32  1  0.78330166  0.95480888  0.59845631  1  0  0.013658  0  0.955163  0  0  0.024546  0  1.022625  0  0  0.024766  0  1.018237  0  0.104499  0  0.111923  0.024152  0  1.025806  0
H  H33  1  0.26164098  0.95498062  0.90163245  1  0  0.014202  0  0.953875  0  0  0.025231  0  1.021202  0  0  0.02548  0  1.016795  0  0.107481  0  0.111858  0.024803  0  1.024474  0
C  C34  1  0.84173553  0.49473300  0.42678107  1  0  -0.044922  0  3.663503  0  0  -0.084026  0  3.911178  0  0  -0.079271  0  3.930044  0  -0.026583  0  -0.061621  -0.087221  0  3.899241  0
C  C35  1  0.66330719  0.49470642  0.07340010  1  0  -0.045816  0  3.664587  0  0  -0.08469  0  3.912275  0  0  -0.079965  0  3.931021  0  -0.045189  0  -0.061099  -0.087311  0  3.899521  0
C  C36  1  0.15826724  0.50526721  0.57321855  1  0  -0.044846  0  3.663497  0  0  -0.083943  0  3.911185  0  0  -0.079184  0  3.930051  0  -0.026489  0  -0.06159  -0.087142  0  3.89925  0
C  C37  1  0.33669524  0.50529175  0.92659962  1  0  -0.045913  0  3.664559  0  0  -0.084808  0  3.912279  0  0  -0.080095  0  3.931018  0  -0.045212  0  -0.061148  -0.087434  0  3.899535  0
C  C38  1  0.64737079  0.52401004  0.58761044  1  0  -0.08699  0  3.765881  0  0  -0.059044  0  4.002497  0  0  -0.071104  0  4.026714  0  -0.08302  0  -0.016295  -0.051412  0  3.985893  0
C  C39  1  0.82832885  0.52411840  0.91255248  1  0  -0.088026  0  3.766262  0  0  -0.059901  0  4.003027  0  0  -0.071995  0  4.027285  0  -0.021603  0  -0.016641  -0.052325  0  3.98684  0
C  C40  1  0.35262788  0.47599017  0.41238946  1  0  -0.086911  0  3.765777  0  0  -0.05895  0  4.002372  0  0  -0.071011  0  4.026587  0  -0.082851  0  -0.016247  -0.051319  0  3.985769  0
C  C41  1  0.17167341  0.47588283  0.08744714  1  0  -0.088206  0  3.766331  0  0  -0.060086  0  4.00311  0  0  -0.072182  0  4.02737  0  -0.021673  0  -0.016689  -0.052508  0  3.986925  0
C  C42  1  0.80757290  0.38252647  0.46767022  1  0  -0.093309  0  3.76098  0  0  -0.064673  0  3.996166  0  0  -0.078169  0  4.022112  0  0.002888  0  -0.018526  -0.055979  0  3.979234  0
C  C43  1  0.80950059  0.38248660  0.03244265  1  0  -0.092539  0  3.759361  0  0  -0.063708  0  3.995154  0  0  -0.077207  0  4.021118  0  -0.046186  0  -0.018787  -0.055025  0  3.977751  0
C  C44  1  0.19242902  0.61747271  0.53233070  1  0  -0.093397  0  3.761165  0  0  -0.064729  0  3.996319  0  0  -0.078231  0  4.022263  0  0.002886  0  -0.018571  -0.056036  0  3.97939  0
C  C45  1  0.19049945  0.61751360  0.96755776  1  0  -0.092457  0  3.759287  0  0  -0.063614  0  3.995072  0  0  -0.077116  0  4.02104  0  -0.046155  0  -0.018746  -0.05493  0  3.977669  0
C  C46  1  0.82059705  0.74039950  0.42449206  1  0  0.665959  0  3.915228  0  0  0.616295  0  4.20437  0  0  0.650215  0  4.198591  0  1.58129  0  0.21262  0.592878  0  4.207797  0
C  C47  1  0.43898772  0.74045266  0.07575759  1  0  0.666029  0  3.915722  0  0  0.616504  0  4.205117  0  0  0.650499  0  4.199324  0  1.578525  0  0.212796  0.59347  0  4.208342  0
C  C48  1  0.17940299  0.25960070  0.57551016  1  0  0.666058  0  3.915244  0  0  0.616392  0  4.204382  0  0  0.650321  0  4.198588  0  1.581298  0  0.212671  0.592976  0  4.207808  0
C  C49  1  0.56101009  0.25954653  0.92424120  1  0  0.665972  0  3.915776  0  0  0.616452  0  4.205185  0  0  0.650447  0  4.199387  0  1.578603  0  0.212775  0.59342  0  4.208407  0
C  C50  1  0.68430262  0.63486618  0.54703089  1  0  -0.021293  0  3.653003  0  0  -0.063892  0  3.903262  0  0  -0.057841  0  3.919348  0  -0.068965  0  -0.061692  -0.066907  0  3.891803  0
C  C51  1  0.68092178  0.63501850  0.95323637  1  0  -0.020436  0  3.651018  0  0  -0.062309  0  3.901173  0  0  -0.056285  0  3.917301  0  -0.049937  0  -0.061662  -0.06583  0  3.890258  0
C  C52  1  0.31569879  0.36513403  0.45296883  1  0  -0.021241  0  3.65306  0  0  -0.063834  0  3.903317  0  0  -0.057793  0  3.919401  0  -0.069124  0  -0.061724  -0.066849  0  3.891855  0
C  C53  1  0.31908303  0.36497762  0.04676264  1  0  -0.020391  0  3.650832  0  0  -0.062276  0  3.900979  0  0  -0.056256  0  3.917113  0  -0.049916  0  -0.061706  -0.065799  0  3.890061  0
C  C54  1  0.71111465  0.39765874  0.54819361  1  0  -0.032626  0  3.655629  0  0  -0.072958  0  3.905874  0  0  -0.067243  0  3.923818  0  0.005621  0  -0.059147  -0.075837  0  3.893195  0
C  C55  1  0.89068036  0.39767305  0.95190034  1  0  -0.031729  0  3.655421  0  0  -0.072627  0  3.90651  0  0  -0.066941  0  3.924462  0  -0.013599  0  -0.059453  -0.075859  0  3.894152  0
C  C56  1  0.28888487  0.60234249  0.45180620  1  0  -0.03274  0  3.655613  0  0  -0.073064  0  3.905873  0  0  -0.067344  0  3.923812  0  0.005841  0  -0.059191  -0.075942  0  3.893194  0
C  C57  1  0.10932480  0.60232512  0.04809918  1  0  -0.031701  0  3.655489  0  0  -0.072582  0  3.906549  0  0  -0.066895  0  3.924501  0  -0.013632  0  -0.059426  -0.075815  0  3.894193  0
C  C58  1  0.78130147  0.62065496  0.46681692  1  0  -0.073277  0  3.743998  0  0  -0.0419  0  3.973366  0  0  -0.053556  0  3.998008  0  0.040352  0  -0.010872  -0.034671  0  3.957613  0
C  C59  1  0.59804129  0.62071629  0.03342974  1  0  -0.074004  0  3.743544  0  0  -0.0433  0  3.973799  0  0  -0.054931  0  3.998361  0  0.010906  0  -0.011215  -0.036076  0  3.957507  0
C  C60  1  0.21870318  0.37934423  0.53318260  1  0  -0.073375  0  3.744073  0  0  -0.041993  0  3.973462  0  0  -0.053656  0  3.998107  0  0.040288  0  -0.010873  -0.034761  0  3.957699  0
C  C61  1  0.40195925  0.37928289  0.96656886  1  0  -0.074006  0  3.743524  0  0  -0.0433  0  3.973803  0  0  -0.054936  0  3.998378  0  0.010879  0  -0.011198  -0.036075  0  3.957511  0
C  C62  1  0.52169293  0.54093226  0.66898562  1  0  0.664901  0  3.918916  0  0  0.616678  0  4.205747  0  0  0.650549  0  4.199266  0  1.548612  0  0.216525  0.593502  0  4.209539  0
C  C63  1  0.93683457  0.54089137  0.83108621  1  0  0.66654  0  3.917797  0  0  0.617852  0  4.20538  0  0  0.651778  0  4.19879  0  1.534631  0  0.216918  0.594754  0  4.209177  0
C  C64  1  0.47830761  0.45906693  0.33101359  1  0  0.664858  0  3.918941  0  0  0.616624  0  4.205784  0  0  0.650504  0  4.199292  0  1.548642  0  0.216496  0.59345  0  4.209575  0
C  C65  1  0.06317657  0.45909760  0.16891200  1  0  0.666567  0  3.917487  0  0  0.617915  0  4.205062  0  0  0.651843  0  4.198473  0  1.534628  0  0.216888  0.594815  0  4.208858  0
C  C66  1  0.86790348  0.24779993  0.42597814  1  0  0.684368  0  3.862333  0  0  0.627486  0  4.155231  0  0  0.664211  0  4.147658  0  1.559267  0  0.221677  0.601956  0  4.160083  0
C  C67  1  0.88420344  0.24771815  0.07406471  1  0  0.684163  0  3.861156  0  0  0.626219  0  4.15565  0  0  0.66302  0  4.14805  0  1.566978  0  0.221351  0.601042  0  4.160203  0
C  C68  1  0.13209604  0.75220130  0.57402106  1  0  0.684406  0  3.86239  0  0  0.627513  0  4.155301  0  0  0.664243  0  4.147723  0  1.559273  0  0.221714  0.601984  0  4.160153  0
C  C69  1  0.11579848  0.75228104  0.92593500  1  0  0.684198  0  3.861108  0  0  0.626232  0  4.155641  0  0  0.663038  0  4.148033  0  1.566973  0  0.22134  0.60105  0  4.1602  0
C  C70  1  0.26877253  0.95479355  0.36127062  1  0  0.621449  0  3.858178  0  0  0.548724  0  4.163959  0  0  0.582545  0  4.153945  0  1.566894  0  0.155205  0.525735  0  4.170188  0
C  C71  1  0.77664018  0.95463101  0.13866091  1  0  0.620086  0  3.85672  0  0  0.547251  0  4.162725  0  0  0.581021  0  4.152786  0  1.560557  0  0.154642  0.524272  0  4.16897  0
C  C72  1  0.73122750  0.04520666  0.63872979  1  0  0.621478  0  3.85805  0  0  0.548761  0  4.163822  0  0  0.582583  0  4.153802  0  1.56672  0  0.155229  0.525771  0  4.170053  0
C  C73  1  0.22335832  0.04537226  0.86133829  1  0  0.620092  0  3.856723  0  0  0.547216  0  4.162749  0  0  0.580983  0  4.152809  0  1.560521  0  0.154631  0.524237  0  4.168987  0
O  O74  1  0.82830183  0.15067047  0.46617421  1  0  -0.633634  0  2.050517  0  0  -0.557878  0  2.322622  0  0  -0.587424  0  2.307494  0  -1.155127  0  -0.300856  -0.536281  0  2.333891  0
O  O75  1  0.02095414  0.15070011  0.03378769  1  0  -0.632839  0  2.050394  0  0  -0.556659  0  2.322996  0  0  -0.586222  0  2.307666  0  -1.160795  0  -0.301044  -0.536083  0  2.333269  0
O  O76  1  0.17169958  0.84932974  0.53382671  1  0  -0.63365  0  2.050597  0  0  -0.557885  0  2.322691  0  0  -0.587431  0  2.307561  0  -1.155147  0  -0.300875  -0.536289  0  2.333961  0
O  O77  1  0.97904641  0.84929907  0.96621212  1  0  -0.63287  0  2.050383  0  0  -0.556698  0  2.323012  0  0  -0.586261  0  2.307676  0  -1.16077  0  -0.301045  -0.536121  0  2.333286  0
O  O78  1  0.14176910  0.90529040  0.34503594  1  0  -0.684608  0  2.117102  0  0  -0.615125  0  2.417984  0  0  -0.643613  0  2.398227  0  -1.192166  0  -0.368239  -0.594998  0  2.43101  0
O  O79  1  0.95314200  0.90511253  0.15489466  1  0  -0.68366  0  2.116861  0  0  -0.613978  0  2.417131  0  0  -0.642465  0  2.39756  0  -1.189406  0  -0.367524  -0.593901  0  2.429968  0
O  O80  1  0.85823043  0.09471083  0.65496387  1  0  -0.68461  0  2.117149  0  0  -0.615131  0  2.418032  0  0  -0.64362  0  2.398273  0  -1.192189  0  -0.368231  -0.595003  0  2.431059  0
O  O81  1  0.04685342  0.09488870  0.84510543  1  0  -0.683658  0  2.116707  0  0  -0.613996  0  2.417015  0  0  -0.642477  0  2.397435  0  -1.189413  0  -0.367557  -0.593934  0  2.429889  0
O  O82  1  0.79555823  0.84366447  0.47004704  1  0  -0.650766  0  2.018913  0  0  -0.576053  0  2.281235  0  0  -0.606614  0  2.267149  0  -1.166332  0  -0.319235  -0.553125  0  2.291077  0
O  O83  1  0.36071367  0.84363584  0.03014710  1  0  -0.650148  0  2.020579  0  0  -0.575325  0  2.283019  0  0  -0.606094  0  2.268994  0  -1.165014  0  -0.319798  -0.553771  0  2.292148  0
O  O84  1  0.20444318  0.15633574  0.52995388  1  0  -0.650789  0  2.018884  0  0  -0.576112  0  2.281266  0  0  -0.606677  0  2.267177  0  -1.166296  0  -0.319262  -0.553183  0  2.291107  0
O  O85  1  0.63928773  0.15636436  0.96985262  1  0  -0.65013  0  2.020545  0  0  -0.575354  0  2.283034  0  0  -0.606121  0  2.269008  0  -1.164999  0  -0.319809  -0.553801  0  2.292163  0
O  O86  1  0.66602742  0.05648507  0.32695671  1  0  -0.845754  0  1.920694  0  0  -0.772885  0  2.140159  0  0  -0.795933  0  2.100158  0  -1.250926  0  -0.565393  -0.756681  0  2.169032  0
O  O87  1  0.27778380  0.05649223  0.17299419  1  0  -0.844015  0  1.923356  0  0  -0.771974  0  2.142569  0  0  -0.794861  0  2.102465  0  -1.253421  0  -0.565089  -0.755735  0  2.170689  0
O  O88  1  0.33397074  0.94351616  0.67304440  1  0  -0.845779  0  1.920688  0  0  -0.772902  0  2.140143  0  0  -0.795949  0  2.10014  0  -1.250904  0  -0.56543  -0.756696  0  2.169012  0
O  O89  1  0.72221726  0.94350594  0.82700622  1  0  -0.844024  0  1.92331  0  0  -0.772007  0  2.142463  0  0  -0.794904  0  2.102384  0  -1.25341  0  -0.56511  -0.755767  0  2.170582  0
O  O90  1  0.95722575  0.23293754  0.35251756  1  0  -0.685694  0  2.09477  0  0  -0.616881  0  2.378273  0  0  -0.645886  0  2.359403  0  -1.203441  0  -0.329937  -0.595972  0  2.390353  0
O  O91  1  0.81018663  0.23266255  0.14756226  1  0  -0.685651  0  2.09506  0  0  -0.616293  0  2.378887  0  0  -0.645338  0  2.36  0  -1.205618  0  -0.329293  -0.5958  0  2.391174  0
O  O92  1  0.04277343  0.76706165  0.64748295  1  0  -0.685697  0  2.094693  0  0  -0.616894  0  2.378224  0  0  -0.6459  0  2.359351  0  -1.203436  0  -0.329948  -0.595986  0  2.390304  0
O  O93  1  0.18981341  0.76733766  0.85243754  1  0  -0.685669  0  2.095031  0  0  -0.616307  0  2.378884  0  0  -0.645353  0  2.359991  0  -1.205631  0  -0.329296  -0.595811  0  2.391172  0
O  O94  1  0.41917450  0.66625723  0.69193652  1  0  -0.691984  0  2.089649  0  0  -0.605459  0  2.344074  0  0  -0.638059  0  2.329065  0  -1.171461  0  -0.322124  -0.582232  0  2.353628  0
O  O95  1  0.91464210  0.66617749  0.80822510  1  0  -0.692667  0  2.088781  0  0  -0.606393  0  2.343861  0  0  -0.639025  0  2.328743  0  -1.168999  0  -0.322329  -0.583305  0  2.353488  0
O  O96  1  0.58082690  0.33374298  0.30806319  1  0  -0.691954  0  2.089727  0  0  -0.605429  0  2.344155  0  0  -0.638033  0  2.329144  0  -1.171471  0  -0.322109  -0.582202  0  2.35371  0
O  O97  1  0.08536255  0.33382169  0.19177442  1  0  -0.692505  0  2.088778  0  0  -0.606331  0  2.34393  0  0  -0.638967  0  2.328822  0  -1.169124  0  -0.322285  -0.583246  0  2.353558  0
O  O98  1  0.87578116  0.73629315  0.34850889  1  0  -0.707786  0  1.975831  0  0  -0.664052  0  2.227648  0  0  -0.68567  0  2.214628  0  -1.220729  0  -0.410093  -0.648042  0  2.235613  0
O  O99  1  0.38797607  0.73636471  0.15173432  1  0  -0.707416  0  1.977354  0  0  -0.663292  0  2.228486  0  0  -0.685  0  2.215612  0  -1.223875  0  -0.409919  -0.648033  0  2.236888  0
O  O100  1  0.12421785  0.26370910  0.65149032  1  0  -0.707791  0  1.975877  0  0  -0.664058  0  2.227701  0  0  -0.685672  0  2.214666  0  -1.220767  0  -0.410104  -0.64805  0  2.235668  0
O  O101  1  0.61201728  0.26363243  0.84826545  1  0  -0.707399  0  1.977385  0  0  -0.663241  0  2.228458  0  0  -0.684965  0  2.215612  0  -1.22392  0  -0.40991  -0.647983  0  2.23686  0
O  O102  1  0.50917986  0.43864660  0.70903158  1  0  -0.683898  0  1.974424  0  0  -0.644641  0  2.224652  0  0  -0.664869  0  2.210319  0  -1.201158  0  -0.378932  -0.630466  0  2.234411  0
O  O103  1  0.05064395  0.43853824  0.79087246  1  0  -0.684143  0  1.974713  0  0  -0.644547  0  2.224793  0  0  -0.664737  0  2.210274  0  -1.203369  0  -0.378936  -0.630469  0  2.234451  0
O  O104  1  0.49081966  0.56135463  0.29096884  1  0  -0.683876  0  1.974387  0  0  -0.6446  0  2.224595  0  0  -0.664846  0  2.210292  0  -1.201164  0  -0.378898  -0.630424  0  2.234353  0
O  O105  1  0.94934942  0.56146708  0.20913005  1  0  -0.684284  0  1.974243  0  0  -0.644677  0  2.224303  0  0  -0.664867  0  2.209787  0  -1.203171  0  -0.378992  -0.630595  0  2.233958  0
O  O106  1  0.44748122  0.90586285  0.33401347  1  0  -0.614727  0  2.047321  0  0  -0.555621  0  2.283503  0  0  -0.580303  0  2.272842  0  -1.201853  0  -0.362878  -0.538517  0  2.290665  0
O  O107  1  0.64683717  0.90573916  0.16593540  1  0  -0.614812  0  2.047728  0  0  -0.555828  0  2.284007  0  0  -0.58051  0  2.273382  0  -1.20471  0  -0.363197  -0.538625  0  2.290914  0
O  O108  1  0.55251693  0.09413838  0.66598704  1  0  -0.614759  0  2.047245  0  0  -0.555652  0  2.283416  0  0  -0.580337  0  2.272753  0  -1.20187  0  -0.362889  -0.538548  0  2.290582  0
O  O109  1  0.35315550  0.09426207  0.83406549  1  0  -0.614738  0  2.047828  0  0  -0.555807  0  2.284166  0  0  -0.58049  0  2.273543  0  -1.20471  0  -0.363153  -0.538601  0  2.29107  0
