# generated using pymatgen
data_NaGdH14C14(NO6)2
_symmetry_space_group_name_H-M   'P 1'
_cell_length_a   10.63512406
_cell_length_b   11.17699241
_cell_length_c   17.64967171
_cell_angle_alpha   89.99921733
_cell_angle_beta   90.00052045
_cell_angle_gamma   97.09909317
_symmetry_Int_Tables_number   1
_chemical_formula_structural   NaGdH14C14(NO6)2
_chemical_formula_sum   'Na4 Gd4 H56 C56 N8 O48'
_cell_volume   2081.91010869
_cell_formula_units_Z   4
loop_
 _symmetry_equiv_pos_site_id
 _symmetry_equiv_pos_as_xyz
  1  'x, y, z'
loop_
 _atom_site_type_symbol
 _atom_site_label
 _atom_site_symmetry_multiplicity
 _atom_site_fract_x
 _atom_site_fract_y
 _atom_site_fract_z
 _atom_site_occupancy
 _atom_site_pbe_bader_charge
 _atom_site_pbe_bader_spin_density
 _atom_site_pbe_cm5_charge
 _atom_site_pbe_ddec_charge
 _atom_site_pbe_ddec_spin_density
 _atom_site_pbe_ddec_sum_bond_order
 _atom_site_pbe_magmom
Na  Na0  1  0.93624955  0.38948373  0.63376617  1  0.87781  0  0.704698  0.850255  0  0.566165  0
Na  Na1  1  0.06375028  0.11051853  0.13376365  1  0.877768  0  0.704706  0.85026  0  0.566192  0
Na  Na2  1  0.06375115  0.61051597  0.36623663  1  0.877795  0  0.704681  0.85025  0  0.566187  0
Na  Na3  1  0.93624985  0.88948388  0.86623688  1  0.877775  0  0.704713  0.850255  0  0.566201  0
Gd  Gd4  1  0.90668219  0.21762111  0.81617476  1  2.150667  0  1.445389  1.942692  0  2.236594  0
Gd  Gd5  1  0.09331814  0.28237120  0.31617771  1  2.15074  0  1.445403  1.942512  0  2.236842  0
Gd  Gd6  1  0.09332258  0.78237405  0.18382351  1  2.15068  0  1.445411  1.94278  0  2.236447  0
Gd  Gd7  1  0.90668024  0.71763212  0.68382283  1  2.150722  0  1.44536  1.942515  0  2.23685  0
H  H8  1  0.44785736  0.39575906  0.84430528  1  0.113949  0  0.109378  0.113322  0  1.030296  0
H  H9  1  0.55213558  0.10421740  0.34429923  1  0.113847  0  0.109381  0.113368  0  1.030256  0
H  H10  1  0.55214898  0.60424060  0.15568392  1  0.113908  0  0.109405  0.113349  0  1.030352  0
H  H11  1  0.44785686  0.89577694  0.65571037  1  0.113838  0  0.109367  0.113371  0  1.030334  0
H  H12  1  0.30782000  0.19544068  0.84196465  1  0.12223  0  0.112091  0.111374  0  1.00295  0
H  H13  1  0.69217797  0.30453850  0.34194912  1  0.122565  0  0.112036  0.111332  0  1.003062  0
H  H14  1  0.69218388  0.80456170  0.15803248  1  0.122159  0  0.112085  0.111312  0  1.002941  0
H  H15  1  0.30782079  0.69545400  0.65805652  1  0.122492  0  0.112054  0.111358  0  1.002981  0
H  H16  1  0.41115941  0.00518798  0.83866032  1  0.165358  0  0.116207  0.132858  0  1.002794  0
H  H17  1  0.58883934  0.49479036  0.33864824  1  0.165577  0  0.116201  0.132855  0  1.002822  0
H  H18  1  0.58883471  0.99481177  0.16133909  1  0.165409  0  0.1162  0.132858  0  1.002829  0
H  H19  1  0.41116224  0.50520211  0.66135230  1  0.165504  0  0.116205  0.132875  0  1.002813  0
H  H20  1  0.31749999  0.56309893  0.86155778  1  0.115317  0  0.123886  0.136307  0  0.969304  0
H  H21  1  0.68248323  0.93690204  0.36154049  1  0.114578  0  0.123878  0.136419  0  0.969281  0
H  H22  1  0.68249656  0.43691163  0.13844275  1  0.115318  0  0.123897  0.136362  0  0.969365  0
H  H23  1  0.31752029  0.06309764  0.63846005  1  0.115053  0  0.123877  0.13641  0  0.969249  0
H  H24  1  0.32143942  0.55462967  0.00496853  1  0.100917  0  0.11396  0.111735  0  0.982313  0
H  H25  1  0.67853962  0.94536039  0.50495330  1  0.100743  0  0.1139  0.11168  0  0.982272  0
H  H26  1  0.67855431  0.44538091  0.99503088  1  0.100784  0  0.113908  0.111642  0  0.982367  0
H  H27  1  0.32146365  0.05463749  0.49504667  1  0.100742  0  0.113889  0.1117  0  0.982291  0
H  H28  1  0.15421741  0.41553497  0.07153422  1  0.13729  0  0.115491  0.116229  0  1.053162  0
H  H29  1  0.84576357  0.08443979  0.57152643  1  0.13765  0  0.115579  0.116303  0  1.053293  0
H  H30  1  0.84578040  0.58447107  0.92846575  1  0.137276  0  0.115473  0.11616  0  1.053218  0
H  H31  1  0.15423876  0.91555809  0.42847524  1  0.137697  0  0.115552  0.116286  0  1.053349  0
H  H32  1  0.12930232  0.05545699  0.82851694  1  0.64112  0  0.293799  0.387362  0  0.961994  0
H  H33  1  0.87069997  0.44454138  0.32851532  1  0.640989  0  0.293796  0.387345  0  0.962021  0
H  H34  1  0.87070062  0.94454540  0.17148077  1  0.641122  0  0.293812  0.387382  0  0.961974  0
H  H35  1  0.12929559  0.55546197  0.67148408  1  0.641117  0  0.293781  0.387318  0  0.96208  0
H  H36  1  0.09906381  0.08182647  0.91554952  1  0.648758  0  0.295962  0.395096  0  0.936475  0
H  H37  1  0.90093288  0.41816930  0.41555056  1  0.648752  0  0.295961  0.395076  0  0.936501  0
H  H38  1  0.90093763  0.91817864  0.08444705  1  0.648703  0  0.295927  0.39502  0  0.936569  0
H  H39  1  0.09906169  0.58182683  0.58444941  1  0.648758  0  0.29598  0.395142  0  0.936399  0
H  H40  1  0.74635739  0.16029503  0.67872273  1  0.654905  0  0.292703  0.390352  0  0.950993  0
H  H41  1  0.25364375  0.33971175  0.17872095  1  0.654838  0  0.292736  0.390452  0  0.950874  0
H  H42  1  0.25363661  0.83970381  0.32127498  1  0.654922  0  0.292765  0.390422  0  0.950901  0
H  H43  1  0.74636070  0.66028793  0.82127789  1  0.654889  0  0.292742  0.39041  0  0.950892  0
H  H44  1  0.71478041  0.29539925  0.68758285  1  0.640299  0  0.288414  0.388295  0  0.953735  0
H  H45  1  0.28521521  0.20460739  0.18757958  1  0.640382  0  0.288418  0.388276  0  0.953757  0
H  H46  1  0.28521935  0.70460046  0.31241939  1  0.640334  0  0.288438  0.388287  0  0.953737  0
H  H47  1  0.71478186  0.79539324  0.81242266  1  0.640365  0  0.288407  0.388233  0  0.953812  0
H  H48  1  0.00841820  0.15381186  0.66370349  1  0.6499  0  0.308171  0.402885  0  0.920048  0
H  H49  1  0.99157180  0.34619079  0.16370734  1  0.649925  0  0.308221  0.402972  0  0.919888  0
H  H50  1  0.99158112  0.84619146  0.33629535  1  0.649933  0  0.308197  0.40292  0  0.919986  0
H  H51  1  0.00842808  0.65380982  0.83629263  1  0.64995  0  0.3082  0.402953  0  0.919928  0
H  H52  1  0.92316718  0.03421359  0.69195913  1  0.641872  0  0.301705  0.390192  0  0.953675  0
H  H53  1  0.07683351  0.46578842  0.19196097  1  0.641899  0  0.301719  0.390197  0  0.953664  0
H  H54  1  0.07682956  0.96579156  0.30803801  1  0.641892  0  0.301682  0.390143  0  0.953747  0
H  H55  1  0.92316882  0.53420946  0.80803957  1  0.641901  0  0.301696  0.390156  0  0.95372  0
H  H56  1  0.85330400  0.54520595  0.51653703  1  0.633309  0  0.300765  0.390501  0  0.9437  0
H  H57  1  0.14670203  0.95480805  0.01653877  1  0.633135  0  0.300833  0.390641  0  0.943507  0
H  H58  1  0.14669269  0.45479198  0.48346351  1  0.63329  0  0.30078  0.390523  0  0.943656  0
H  H59  1  0.85329786  0.04519256  0.98345837  1  0.633123  0  0.300833  0.390654  0  0.943483  0
H  H60  1  0.75416304  0.42904028  0.51197741  1  0.607763  0  0.327897  0.399897  0  0.879106  0
H  H61  1  0.24583874  0.07097613  0.01196999  1  0.608063  0  0.327934  0.399934  0  0.87905  0
H  H62  1  0.24583810  0.57095580  0.48802596  1  0.607802  0  0.327905  0.399901  0  0.87916  0
H  H63  1  0.75416089  0.92902267  0.98802829  1  0.608063  0  0.327929  0.399945  0  0.879037  0
C  C64  1  0.70942651  0.42538983  0.84012222  1  1.58662  0  0.225595  0.559343  0  4.206267  0
C  C65  1  0.29057200  0.07460021  0.34012520  1  1.586414  0  0.225647  0.559317  0  4.206255  0
C  C66  1  0.29058178  0.57460349  0.15987436  1  1.586689  0  0.22577  0.559674  0  4.206056  0
C  C67  1  0.70942005  0.92540497  0.65987874  1  1.586549  0  0.225694  0.559521  0  4.206152  0
C  C68  1  0.61832590  0.31115592  0.84423019  1  0.534789  0  0.119712  0.11366  0  3.992987  0
C  C69  1  0.38166509  0.18882688  0.34422701  1  0.534591  0  0.119792  0.113509  0  3.993396  0
C  C70  1  0.38167662  0.68883655  0.15576582  1  0.534664  0  0.119631  0.113435  0  3.993516  0
C  C71  1  0.61833067  0.81117105  0.65577239  1  0.534598  0  0.119829  0.113458  0  3.993311  0
C  C72  1  0.48697644  0.31034315  0.84489727  1  -0.070363  0  -0.066304  -0.112496  0  3.911621  0
C  C73  1  0.51301700  0.18963691  0.34489310  1  -0.070451  0  -0.066341  -0.11242  0  3.911749  0
C  C74  1  0.51302658  0.68965293  0.15509250  1  -0.070454  0  -0.066312  -0.112585  0  3.911868  0
C  C75  1  0.48698194  0.81036370  0.65511367  1  -0.070501  0  -0.066367  -0.112413  0  3.911807  0
C  C76  1  0.41067219  0.19951010  0.84374795  1  -0.0511  0  -0.061757  -0.019143  0  3.919022  0
C  C77  1  0.58932418  0.30047086  0.34373756  1  -0.051131  0  -0.06171  -0.01924  0  3.919408  0
C  C78  1  0.58933014  0.80048779  0.15624919  1  -0.051124  0  -0.0617  -0.01887  0  3.918816  0
C  C79  1  0.41067382  0.69952976  0.65626411  1  -0.051063  0  -0.061765  -0.019297  0  3.919181  0
C  C80  1  0.46734092  0.09324516  0.84206978  1  -0.079227  0  -0.061758  -0.105967  0  3.883043  0
C  C81  1  0.53265800  0.40673401  0.34206326  1  -0.079492  0  -0.06177  -0.105935  0  3.88334  0
C  C82  1  0.53266279  0.90674911  0.15792793  1  -0.079218  0  -0.061819  -0.106109  0  3.883208  0
C  C83  1  0.46733963  0.59326390  0.65793841  1  -0.079475  0  -0.061773  -0.105962  0  3.883316  0
C  C84  1  0.59939415  0.10243141  0.84122249  1  0.567433  0  0.119687  0.11842  0  3.971707  0
C  C85  1  0.40060714  0.39755137  0.34122157  1  0.567911  0  0.119561  0.118143  0  3.971727  0
C  C86  1  0.40060731  0.89756016  0.15877805  1  0.567868  0  0.119553  0.118197  0  3.971714  0
C  C87  1  0.59939275  0.60244924  0.65877953  1  0.567802  0  0.119561  0.1181  0  3.971869  0
C  C88  1  0.67205656  0.99539616  0.83434730  1  1.570376  0  0.21357  0.557431  0  4.237285  0
C  C89  1  0.32794380  0.50458898  0.33435393  1  1.569968  0  0.213635  0.557533  0  4.23724  0
C  C90  1  0.32794478  0.00459451  0.16565324  1  1.570123  0  0.213598  0.55754  0  4.237217  0
C  C91  1  0.67205608  0.49541163  0.66565228  1  1.569849  0  0.213676  0.55753  0  4.237211  0
C  C92  1  0.14374081  0.42556304  0.76992731  1  1.616734  0  0.223773  0.578999  0  4.22  0
C  C93  1  0.85626393  0.07443918  0.26992090  1  1.616915  0  0.223885  0.579121  0  4.219801  0
C  C94  1  0.85626176  0.57443664  0.23007493  1  1.616932  0  0.223847  0.579166  0  4.219603  0
C  C95  1  0.14373620  0.92556323  0.73007964  1  1.616949  0  0.223898  0.579047  0  4.219902  0
C  C96  1  0.15675404  0.42629176  0.85499975  1  0.487447  0  0.124005  0.119247  0  3.97579  0
C  C97  1  0.84324013  0.07370613  0.35499043  1  0.487401  0  0.124013  0.119367  0  3.975508  0
C  C98  1  0.84324471  0.57371427  0.14499966  1  0.487436  0  0.124066  0.119202  0  3.975747  0
C  C99  1  0.15675975  0.92629447  0.64501124  1  0.487405  0  0.124011  0.119351  0  3.975716  0
C  C100  1  0.24926179  0.50242582  0.89368481  1  -0.00958  0  -0.060135  -0.111341  0  3.898467  0
C  C101  1  0.75072734  0.99757356  0.39367415  1  -0.009246  0  -0.060198  -0.111682  0  3.898208  0
C  C102  1  0.75073965  0.49757929  0.10631460  1  -0.009482  0  -0.060143  -0.111421  0  3.898595  0
C  C103  1  0.24927479  0.00242974  0.60632639  1  -0.00979  0  -0.060213  -0.1116  0  3.89806  0
C  C104  1  0.24954890  0.49828970  0.97260924  1  0.018504  0  -0.057027  -0.010722  0  3.914717  0
C  C105  1  0.75043957  0.00170138  0.47260005  1  0.018624  0  -0.056895  -0.010443  0  3.914606  0
C  C106  1  0.75044778  0.50172176  0.02738960  1  0.016842  0  -0.057052  -0.010681  0  3.914866  0
C  C107  1  0.24956370  0.99829649  0.52740106  1  0.01859  0  -0.056893  -0.010565  0  3.914663  0
C  C108  1  0.15663316  0.42099185  0.01012287  1  -0.017096  0  -0.06847  -0.117213  0  3.899687  0
C  C109  1  0.84334715  0.07899859  0.51011681  1  -0.017007  0  -0.068609  -0.117399  0  3.899878  0
C  C110  1  0.84336547  0.57901328  0.98987654  1  -0.015824  0  -0.068404  -0.117145  0  3.899706  0
C  C111  1  0.15665273  0.92100202  0.48988429  1  -0.016941  0  -0.068526  -0.117264  0  3.899923  0
C  C112  1  0.06632112  0.34935360  0.96724385  1  0.493332  0  0.119514  0.112281  0  3.978004  0
C  C113  1  0.93367624  0.15062760  0.46723719  1  0.493322  0  0.119669  0.112354  0  3.977738  0
C  C114  1  0.93368302  0.65065059  0.03275499  1  0.493899  0  0.119497  0.112308  0  3.9778  0
C  C115  1  0.06632589  0.84937570  0.53276448  1  0.493309  0  0.119694  0.112396  0  3.977588  0
C  C116  1  0.96351066  0.26040789  0.00222418  1  1.579029  0  0.217764  0.570658  0  4.224472  0
C  C117  1  0.03647256  0.23957727  0.50222540  1  1.579289  0  0.217458  0.570341  0  4.224708  0
C  C118  1  0.03649078  0.73959722  0.99777522  1  1.578376  0  0.217656  0.570572  0  4.224427  0
C  C119  1  0.96352732  0.76042334  0.49777684  1  1.578557  0  0.217516  0.570427  0  4.224322  0
N  N120  1  0.67240745  0.20919970  0.84254690  1  -1.244702  0  -0.382189  -0.357084  0  3.553416  0
N  N121  1  0.32758715  0.29078220  0.34255217  1  -1.244598  0  -0.382021  -0.356601  0  3.553318  0
N  N122  1  0.32759458  0.79078916  0.15744798  1  -1.244573  0  -0.381996  -0.356707  0  3.55333  0
N  N123  1  0.67241342  0.70921660  0.65745063  1  -1.244546  0  -0.382017  -0.356555  0  3.553238  0
N  N124  1  0.06836317  0.35174038  0.89133365  1  -1.287709  0  -0.385416  -0.362468  0  3.560625  0
N  N125  1  0.93163203  0.14825408  0.39132757  1  -1.287684  0  -0.385404  -0.362452  0  3.560507  0
N  N126  1  0.93163778  0.64826112  0.10866519  1  -1.287683  0  -0.38546  -0.362431  0  3.560541  0
N  N127  1  0.06836847  0.85175104  0.60867410  1  -1.287698  0  -0.385469  -0.362572  0  3.560707  0
O  O128  1  0.66671219  0.52496028  0.84292965  1  -1.165482  0  -0.300248  -0.518649  0  2.154622  0
O  O129  1  0.33327407  0.97502389  0.34292656  1  -1.165701  0  -0.30031  -0.518636  0  2.154713  0
O  O130  1  0.33329422  0.47503306  0.15706522  1  -1.16568  0  -0.300268  -0.518736  0  2.154799  0
O  O131  1  0.66671535  0.02497589  0.65707171  1  -1.165967  0  -0.300204  -0.518563  0  2.154983  0
O  O132  1  0.82736841  0.41030457  0.83344599  1  -1.179769  0  -0.36602  -0.642794  0  2.355676  0
O  O133  1  0.17262637  0.08968654  0.33344367  1  -1.179789  0  -0.366058  -0.642814  0  2.355636  0
O  O134  1  0.17263586  0.58968699  0.16655285  1  -1.179665  0  -0.366126  -0.64304  0  2.355359  0
O  O135  1  0.82736718  0.91031592  0.66655573  1  -1.179554  0  -0.36618  -0.643062  0  2.355403  0
O  O136  1  0.61388323  0.89056184  0.83629097  1  -1.170439  0  -0.308142  -0.521121  0  2.117987  0
O  O137  1  0.38611328  0.60942239  0.33629304  1  -1.170301  0  -0.308283  -0.521277  0  2.117941  0
O  O138  1  0.38611472  0.10943157  0.16370956  1  -1.17039  0  -0.308199  -0.521227  0  2.117889  0
O  O139  1  0.61388285  0.39057824  0.66371769  1  -1.170295  0  -0.308318  -0.521318  0  2.117976  0
O  O140  1  0.79283149  0.02110160  0.82632054  1  -1.189643  0  -0.457627  -0.70273  0  2.3525  0
O  O141  1  0.20716897  0.47889051  0.32632353  1  -1.189514  0  -0.457555  -0.702662  0  2.352471  0
O  O142  1  0.20716815  0.97889720  0.17367887  1  -1.189627  0  -0.457603  -0.702747  0  2.352481  0
O  O143  1  0.79283173  0.52110919  0.67368040  1  -1.189257  0  -0.457551  -0.702609  0  2.352395  0
O  O144  1  0.05195524  0.35203185  0.74339771  1  -1.206567  0  -0.446399  -0.680185  0  2.307266  0
O  O145  1  0.94804848  0.14797271  0.24339059  1  -1.206828  0  -0.446419  -0.680115  0  2.307183  0
O  O146  1  0.94805166  0.64796509  0.25660170  1  -1.206637  0  -0.446408  -0.680193  0  2.307078  0
O  O147  1  0.05195041  0.85202068  0.75661108  1  -1.206907  0  -0.44644  -0.680134  0  2.307064  0
O  O148  1  0.21847046  0.49779483  0.73186757  1  -1.177873  0  -0.301207  -0.530862  0  2.19713  0
O  O149  1  0.78152728  0.00221543  0.23186024  1  -1.178009  0  -0.301308  -0.531038  0  2.197139  0
O  O150  1  0.78152334  0.50220943  0.26813184  1  -1.177959  0  -0.301271  -0.530935  0  2.196942  0
O  O151  1  0.21847223  0.99778248  0.76813633  1  -1.178044  0  -0.301293  -0.530943  0  2.197316  0
O  O152  1  0.89201194  0.19557309  0.95501366  1  -1.182794  0  -0.361494  -0.636107  0  2.28893  0
O  O153  1  0.10798188  0.30441108  0.45501707  1  -1.183037  0  -0.361356  -0.635885  0  2.288863  0
O  O154  1  0.10799521  0.80442566  0.04498631  1  -1.182772  0  -0.361519  -0.636165  0  2.288924  0
O  O155  1  0.89201286  0.69559317  0.54498404  1  -1.182341  0  -0.361407  -0.635937  0  2.288776  0
O  O156  1  0.95677887  0.25187534  0.07309237  1  -1.182307  0  -0.376728  -0.597264  0  2.191803  0
O  O157  1  0.04319148  0.24810398  0.57309469  1  -1.182043  0  -0.376622  -0.597108  0  2.191952  0
O  O158  1  0.04322245  0.74812887  0.92690646  1  -1.181822  0  -0.376624  -0.597179  0  2.191816  0
O  O159  1  0.95681110  0.75189570  0.42690699  1  -1.18196  0  -0.376644  -0.597163  0  2.191857  0
O  O160  1  0.06611594  0.08826943  0.86329631  1  -1.306607  0  -0.667574  -0.887573  0  2.111578  0
O  O161  1  0.93388172  0.41172557  0.36329702  1  -1.3066  0  -0.667562  -0.887548  0  2.111639  0
O  O162  1  0.93388500  0.91173207  0.13669970  1  -1.30656  0  -0.667562  -0.887524  0  2.111574  0
O  O163  1  0.06611322  0.58827327  0.63670295  1  -1.306701  0  -0.667573  -0.887603  0  2.111608  0
O  O164  1  0.78427758  0.24268275  0.69548143  1  -1.31812  0  -0.677001  -0.901833  0  2.121306  0
O  O165  1  0.21571933  0.25732553  0.19547959  1  -1.318328  0  -0.677076  -0.901936  0  2.121235  0
O  O166  1  0.21572112  0.75731606  0.30451571  1  -1.318144  0  -0.677081  -0.901916  0  2.121339  0
O  O167  1  0.78428174  0.74267688  0.80452038  1  -1.318314  0  -0.677066  -0.901855  0  2.121324  0
O  O168  1  0.98120830  0.10669530  0.70931397  1  -1.276309  0  -0.625992  -0.807074  0  2.093436  0
O  O169  1  0.01878841  0.39331000  0.20931612  1  -1.27628  0  -0.626012  -0.807112  0  2.093272  0
O  O170  1  0.01879277  0.89330711  0.29068430  1  -1.276356  0  -0.62598  -0.807072  0  2.093317  0
O  O171  1  0.98120878  0.60669153  0.79068499  1  -1.276306  0  -0.625966  -0.807061  0  2.093316  0
O  O172  1  0.84448406  0.45581828  0.50744884  1  -1.239972  0  -0.582689  -0.76677  0  1.955056  0
O  O173  1  0.15551741  0.04419642  0.00744909  1  -1.24003  0  -0.582767  -0.766904  0  1.95487  0
O  O174  1  0.15551557  0.54418052  0.49255283  1  -1.239987  0  -0.582726  -0.766806  0  1.955141  0
O  O175  1  0.84448435  0.95580418  0.99254975  1  -1.240028  0  -0.582772  -0.766941  0  1.954842  0
