# generated using pymatgen
data_Zn4H30C48O13
_symmetry_space_group_name_H-M   'P 1'
_cell_length_a   18.24952271
_cell_length_b   18.43047143
_cell_length_c   18.34155639
_cell_angle_alpha   120.25709290
_cell_angle_beta   119.24856982
_cell_angle_gamma   90.10861129
_symmetry_Int_Tables_number   1
_chemical_formula_structural   Zn4H30C48O13
_chemical_formula_sum   'Zn8 H60 C96 O26'
_cell_volume   4390.22840234
_cell_formula_units_Z   2
loop_
 _symmetry_equiv_pos_site_id
 _symmetry_equiv_pos_as_xyz
  1  'x, y, z'
loop_
 _atom_site_type_symbol
 _atom_site_label
 _atom_site_symmetry_multiplicity
 _atom_site_fract_x
 _atom_site_fract_y
 _atom_site_fract_z
 _atom_site_occupancy
 _atom_site_pbe_bader_charge
 _atom_site_pbe_bader_spin_density
 _atom_site_pbe_cm5_charge
 _atom_site_pbe_ddec_charge
 _atom_site_pbe_ddec_spin_density
 _atom_site_pbe_ddec_sum_bond_order
 _atom_site_pbe_magmom
Zn  Zn0  1  0.93821556  0.84966216  0.89513537  1  1.30733  0  0.666523  0.953338  0  2.397423  0
Zn  Zn1  1  0.93944888  0.02151691  0.07723654  1  1.302472  0  0.668006  0.958934  0  2.374852  0
Zn  Zn2  1  0.93577094  0.02424822  0.90137202  1  1.304827  0  0.66879  0.956677  0  2.386954  0
Zn  Zn3  1  0.11255145  0.02335289  0.07353839  1  1.286739  0  0.669153  0.958403  0  2.376206  0
Zn  Zn4  1  0.52517393  0.61027499  0.07244197  1  1.307455  0  0.66754  0.955289  0  2.388505  0
Zn  Zn5  1  0.52625238  0.43221882  0.89906026  1  1.303237  0  0.668533  0.95842  0  2.374873  0
Zn  Zn6  1  0.35109945  0.43589068  0.89811474  1  1.299669  0  0.669606  0.959682  0  2.377679  0
Zn  Zn7  1  0.52490545  0.44083630  0.07830609  1  1.302756  0  0.66876  0.958334  0  2.382685  0
H  H8  1  0.69037462  0.79264166  0.82080555  1  0.034275  0  0.094626  0.094671  0  0.992824  0
H  H9  1  0.62628654  0.83008258  0.87170998  1  0.032784  0  0.097188  0.097319  0  0.968058  0
H  H10  1  0.57783305  0.64380190  0.68613285  1  0.043102  0  0.102927  0.105482  0  0.947918  0
H  H11  1  0.52279137  0.72228378  0.68770609  1  0.021774  0  0.092072  0.083542  0  0.985236  0
H  H12  1  0.43185505  0.62764690  0.69337629  1  0.025837  0  0.09507  0.084631  0  1.016869  0
H  H13  1  0.49844328  0.62636891  0.84467469  1  0.052214  0  0.097206  0.100633  0  1.017087  0
H  H14  1  0.77106502  0.63545610  0.12144817  1  0.032682  0  0.098898  0.098145  0  1.012327  0
H  H15  1  0.93430102  0.69188374  0.24280751  1  0.055743  0  0.096248  0.088697  0  1.011033  0
H  H16  1  0.02903253  0.78931875  0.24197122  1  0.048687  0  0.096937  0.088673  0  1.013304  0
H  H17  1  0.96007107  0.82956862  0.11980640  1  0.052495  0  0.098434  0.097738  0  1.014158  0
H  H18  1  0.95674879  0.80149566  0.67207112  1  0.050483  0  0.09451  0.094463  0  0.995783  0
H  H19  1  0.94713431  0.84066349  0.59826764  1  0.046199  0  0.097772  0.097911  0  0.966385  0
H  H20  1  0.94258771  0.65287088  0.54411503  1  0.043853  0  0.102892  0.105385  0  0.948293  0
H  H21  1  0.02223092  0.73070376  0.56804520  1  0.005145  0  0.091743  0.083003  0  0.983239  0
H  H22  1  0.92394954  0.63734475  0.37841191  1  0.044845  0  0.094148  0.083172  0  1.022872  0
H  H23  1  0.77188063  0.63883359  0.29378283  1  0.092255  0  0.097304  0.100689  0  1.016337  0
H  H24  1  0.49987996  0.65303263  0.29823243  1  0.112048  0  0.099416  0.099459  0  1.011395  0
H  H25  1  0.43234280  0.71019987  0.39562122  1  0.083015  0  0.09734  0.090704  0  1.007836  0
H  H26  1  0.52843806  0.80526790  0.58712970  1  0.064013  0  0.097019  0.090583  0  1.005526  0
H  H27  1  0.69144457  0.84299797  0.68002007  1  0.068422  0  0.098689  0.09803  0  1.015791  0
H  H28  1  0.10724312  0.79948036  0.08563284  1  0.047948  0  0.093782  0.091867  0  0.995387  0
H  H29  1  0.21965309  0.83740143  0.18800415  1  0.046694  0  0.099182  0.101217  0  0.963347  0
H  H30  1  0.08293849  0.65157149  0.05107783  1  0.055718  0  0.103075  0.105721  0  0.948044  0
H  H31  1  0.13645040  0.73038542  0.18356625  1  0.014254  0  0.091362  0.082429  0  0.988395  0
H  H32  1  0.23038423  0.63342452  0.17990676  1  0.026385  0  0.094544  0.083586  0  1.020431  0
H  H33  1  0.32037484  0.63160332  0.11556711  1  0.051126  0  0.097279  0.100378  0  1.015616  0
H  H34  1  0.34256367  0.64358827  0.86039289  1  0.054209  0  0.099439  0.099209  0  1.011449  0
H  H35  1  0.30543602  0.69797399  0.75236765  1  0.033551  0  0.096592  0.089294  0  1.012414  0
H  H36  1  0.20589203  0.79107209  0.74746293  1  0.01328  0  0.096099  0.088817  0  1.008981  0
H  H37  1  0.14597119  0.83100077  0.85257944  1  0.050553  0  0.09861  0.098632  0  1.011587  0
H  H38  1  0.69792746  0.00655227  0.89719810  1  0.027691  0  0.09458  0.093541  0  0.993245  0
H  H39  1  0.63692088  0.01624789  0.79415236  1  0.029516  0  0.099465  0.101689  0  0.961709  0
H  H40  1  0.58044515  0.01727538  0.92721397  1  0.047465  0  0.101138  0.101456  0  0.951938  0
H  H41  1  0.52910446  0.93994554  0.79465388  1  0.035641  0  0.092467  0.084183  0  0.979964  0
H  H42  1  0.43674853  0.03860744  0.79866274  1  0.059145  0  0.094723  0.083924  0  1.021351  0
H  H43  1  0.50213049  0.19100223  0.86454414  1  0.04351  0  0.097351  0.100279  0  1.0164  0
H  H44  1  0.77142757  0.46216649  0.11421074  1  0.028734  0  0.099562  0.099252  0  1.011189  0
H  H45  1  0.93439462  0.52976455  0.21780685  1  0.035925  0  0.09606  0.088615  0  1.013398  0
H  H46  1  0.03148231  0.43449086  0.22283511  1  0.020448  0  0.09567  0.087061  0  1.018303  0
H  H47  1  0.96509348  0.27200090  0.12370092  1  0.038296  0  0.098355  0.097768  0  1.013065  0
H  H48  1  0.10462854  0.25965032  0.29808589  1  0.036803  0  0.094094  0.092883  0  0.99579  0
H  H49  1  0.21615052  0.32633626  0.36944949  1  0.051518  0  0.098655  0.099871  0  0.962464  0
H  H50  1  0.08127319  0.37046714  0.42573368  1  0.065409  0  0.102977  0.105536  0  0.947363  0
H  H51  1  0.13145419  0.42653528  0.39898866  1  0.018845  0  0.091856  0.08421  0  0.985087  0
H  H52  1  0.22775220  0.51968170  0.58888046  1  0.058765  0  0.094553  0.084463  0  1.021447  0
H  H53  1  0.32030218  0.45751675  0.67595982  1  0.055163  0  0.097472  0.100966  0  1.014812  0
H  H54  1  0.35175329  0.18872968  0.67852870  1  0.046459  0  0.099241  0.099414  0  1.011028  0
H  H55  1  0.31822865  0.02623381  0.58421623  1  0.047632  0  0.096908  0.089986  0  1.007246  0
H  H56  1  0.21881068  0.92881064  0.39280457  1  0.032995  0  0.096799  0.090553  0  1.006757  0
H  H57  1  0.15394587  0.99469794  0.29698229  1  0.055999  0  0.098363  0.097908  0  1.013303  0
H  H58  1  0.11517638  0.00383113  0.83128172  1  0.02241  0  0.093851  0.092398  0  0.994775  0
H  H59  1  0.22953596  0.01838671  0.88357776  1  0.042932  0  0.099156  0.101085  0  0.961343  0
H  H60  1  0.09575224  0.01499610  0.69532578  1  0.041291  0  0.100926  0.100834  0  0.953089  0
H  H61  1  0.15378117  0.93939819  0.69970353  1  0.012726  0  0.091695  0.083219  0  0.979947  0
H  H62  1  0.24919928  0.03929688  0.70388238  1  0.049216  0  0.095419  0.085468  0  1.018268  0
H  H63  1  0.33015628  0.19321416  0.85373028  1  0.067229  0  0.098245  0.101494  0  1.014036  0
H  H64  1  0.32928504  0.46296092  0.12901537  1  0.063131  0  0.099887  0.100316  0  1.009191  0
H  H65  1  0.28253148  0.52924404  0.24754107  1  0.031432  0  0.096386  0.088915  0  1.01097  0
H  H66  1  0.18410736  0.43174062  0.24455795  1  0.038049  0  0.096308  0.089496  0  1.011142  0
H  H67  1  0.13362958  0.26852176  0.12374806  1  0.048846  0  0.098572  0.098524  0  1.011854  0
C  C68  1  0.83957807  0.83703204  0.97860699  1  1.544218  0  0.233724  0.626023  0  4.183139  0
C  C69  1  0.78207510  0.77725784  0.97692681  1  -0.041995  0  -0.01301  -0.130164  0  3.950878  0
C  C70  1  0.69097789  0.74586598  0.90792392  1  0.027451  0  0.001756  0.066496  0  3.901726  0
C  C71  1  0.64482310  0.77170714  0.83467419  1  0.000478  0  -0.153949  -0.180877  0  3.954219  0
C  C72  1  0.56019034  0.69694590  0.73291713  1  0.008639  0  -0.155836  -0.13999  0  3.991442  0
C  C73  1  0.50359704  0.65808772  0.75085873  1  -0.097951  0  -0.091062  -0.072118  0  3.946184  0
C  C74  1  0.54036048  0.65665756  0.83392673  1  0.013269  0  -0.102169  -0.155503  0  4.032308  0
C  C75  1  0.63657493  0.69065730  0.90878434  1  0.042579  0  -0.004902  0.056991  0  3.996719  0
C  C76  1  0.67652952  0.66940364  0.97886346  1  -0.063276  0  -0.007783  -0.114887  0  3.918183  0
C  C77  1  0.61959182  0.61271349  0.98087297  1  1.546979  0  0.232744  0.621814  0  4.185637  0
C  C78  1  0.77032985  0.70006202  0.04956788  1  0.045777  0  -0.00084  0.060519  0  3.987868  0
C  C79  1  0.81211227  0.67795433  0.12077858  1  -0.042313  0  -0.089482  -0.122751  0  3.977887  0
C  C80  1  0.90336971  0.70929633  0.18840837  1  -0.041695  0  -0.096493  -0.087548  0  4.052426  0
C  C81  1  0.95693292  0.76424826  0.18785995  1  -0.075638  0  -0.096212  -0.086194  0  4.049535  0
C  C82  1  0.91826974  0.78681596  0.11947823  1  -0.0295  0  -0.090799  -0.126418  0  3.980665  0
C  C83  1  0.82461660  0.75554746  0.04884699  1  0.051962  0  1.5e-05  0.064571  0  3.984645  0
C  C84  1  0.84206714  0.84511708  0.70822387  1  1.551836  0  0.232866  0.622004  0  4.188686  0
C  C85  1  0.78488392  0.78887780  0.59339711  1  -0.004779  0  -0.012405  -0.130302  0  3.946237  0
C  C86  1  0.82402046  0.75765605  0.54033237  1  -0.010831  0  0.001839  0.06792  0  3.896002  0
C  C87  1  0.92368776  0.78188532  0.59318500  1  -0.044222  0  -0.153717  -0.180327  0  3.95154  0
C  C88  1  0.95096555  0.70648444  0.53481463  1  -0.020431  0  -0.15601  -0.14026  0  3.991976  0
C  C89  1  0.89584531  0.66858710  0.42277567  1  -0.045327  0  -0.090347  -0.070458  0  3.945004  0
C  C90  1  0.81161213  0.66871675  0.37584440  1  -0.061686  0  -0.102555  -0.155178  0  4.029348  0
C  C91  1  0.76920538  0.70363999  0.43068077  1  0.039109  0  -0.004563  0.05702  0  3.992945  0
C  C92  1  0.67747595  0.68341522  0.37963175  1  0.005095  0  -0.00669  -0.113494  0  3.913922  0
C  C93  1  0.61976526  0.62438936  0.26480301  1  1.571361  0  0.23248  0.619017  0  4.188099  0
C  C94  1  0.63592907  0.71486725  0.43296948  1  0.008454  0  -0.000749  0.061849  0  3.98507  0
C  C95  1  0.54223845  0.69437773  0.38182331  1  -0.07194  0  -0.089177  -0.123267  0  3.975543  0
C  C96  1  0.50439797  0.72619014  0.43627970  1  -0.020318  0  -0.096772  -0.08869  0  4.054119  0
C  C97  1  0.55874219  0.77991387  0.54453469  1  -0.15686  0  -0.097114  -0.089332  0  4.05624  0
C  C98  1  0.64996616  0.80089539  0.59644772  1  -0.054494  0  -0.091848  -0.128281  0  3.986635  0
C  C99  1  0.69090723  0.76922680  0.54266805  1  0.021907  0  -0.000324  0.064724  0  3.980581  0
C  C100  1  0.11982827  0.84059132  0.98080749  1  1.548137  0  0.232362  0.622912  0  4.18815  0
C  C101  1  0.17689087  0.78224070  0.98060541  1  -0.00752  0  -0.012513  -0.131016  0  3.951334  0
C  C102  1  0.19657085  0.75217324  0.04121093  1  0.042956  0  0.002356  0.069185  0  3.897267  0
C  C103  1  0.16596906  0.77866364  0.11150415  1  -0.035558  0  -0.153383  -0.180318  0  3.951602  0
C  C104  1  0.14635789  0.70441839  0.12149602  1  0.012395  0  -0.155793  -0.139994  0  3.990706  0
C  C105  1  0.21962384  0.66458138  0.13984557  1  -0.0313  0  -0.089964  -0.068577  0  3.943337  0
C  C106  1  0.26883064  0.66285801  0.10354833  1  -0.06799  0  -0.102488  -0.155633  0  4.031245  0
C  C107  1  0.25182540  0.69722432  0.04235124  1  -0.009933  0  -0.003842  0.057446  0  3.996437  0
C  C108  1  0.28560944  0.67604986  0.98336736  1  -0.030119  0  -0.007503  -0.11472  0  3.919852  0
C  C109  1  0.34324589  0.61831115  0.98455032  1  1.604585  0  0.232391  0.6215  0  4.189088  0
C  C110  1  0.26588914  0.70616200  0.92019800  1  0.021004  0  -0.000323  0.060469  0  3.987198  0
C  C111  1  0.29941790  0.68450175  0.85891715  1  -0.0708  0  -0.088692  -0.121181  0  3.975243  0
C  C112  1  0.27834632  0.71462242  0.79815392  1  0.011055  0  -0.09806  -0.091494  0  4.057519  0
C  C113  1  0.22242265  0.76755389  0.79575975  1  -0.016076  0  -0.098419  -0.090391  0  4.060581  0
C  C114  1  0.18893118  0.78990288  0.85460628  1  -0.00587  0  -0.092062  -0.128651  0  3.985293  0
C  C115  1  0.20963351  0.76024621  0.91817324  1  -0.012682  0  -0.000317  0.065866  0  3.980598  0
C  C116  1  0.84553729  0.12088037  0.99832971  1  1.587488  0  0.232834  0.62368  0  4.187394  0
C  C117  1  0.78761382  0.17843113  0.00008968  1  -0.01003  0  -0.012875  -0.130823  0  3.950342  0
C  C118  1  0.69654702  0.13908307  0.94015323  1  -0.008699  0  0.002498  0.069276  0  3.898052  0
C  C119  1  0.65214445  0.03935011  0.87010225  1  0.013782  0  -0.153802  -0.182188  0  3.950429  0
C  C120  1  0.56549562  0.01094577  0.85769205  1  -0.030787  0  -0.156132  -0.139095  0  3.996065  0
C  C121  1  0.50851507  0.06652994  0.83933586  1  -0.07404  0  -0.091233  -0.073166  0  3.950499  0
C  C122  1  0.54470823  0.15105216  0.87653538  1  -0.026475  0  -0.101717  -0.152774  0  4.032154  0
C  C123  1  0.64083011  0.19357240  0.93807674  1  0.021386  0  -0.005005  0.055733  0  3.996381  0
C  C124  1  0.67947309  0.28511316  0.99562887  1  -0.043152  0  -0.007068  -0.113354  0  3.913942  0
C  C125  1  0.62128160  0.34232095  0.99317108  1  1.577644  0  0.232352  0.62012  0  4.187603  0
C  C126  1  0.77315898  0.32686064  0.05776416  1  -0.021883  0  -0.000565  0.060746  0  3.984615  0
C  C127  1  0.81348771  0.42023563  0.11622426  1  0.019897  0  -0.088605  -0.121279  0  3.975589  0
C  C128  1  0.90462661  0.45806824  0.17446814  1  -0.042984  0  -0.097072  -0.089592  0  4.054912  0
C  C129  1  0.95951587  0.40419382  0.17724990  1  0.002052  0  -0.096619  -0.086991  0  4.055247  0
C  C130  1  0.92232098  0.31326991  0.12158727  1  -0.015965  0  -0.091179  -0.127021  0  3.98163  0
C  C131  1  0.82881083  0.27227759  0.06051565  1  0.004256  0  0.000135  0.065243  0  3.983423  0
C  C132  1  0.12121793  0.11357256  0.26493157  1  1.51977  0  0.233914  0.624549  0  4.183  0
C  C133  1  0.17907119  0.17160586  0.37990993  1  0.046434  0  -0.011557  -0.129457  0  3.941001  0
C  C134  1  0.19701299  0.26246967  0.43133718  1  -0.028834  0  0.002131  0.067754  0  3.894302  0
C  C135  1  0.16381577  0.30680715  0.37641707  1  -0.02906  0  -0.153891  -0.179814  0  3.951947  0
C  C136  1  0.14359288  0.38991946  0.43386198  1  -0.018909  0  -0.156367  -0.140752  0  3.99402  0
C  C137  1  0.21775098  0.44846816  0.54563887  1  -0.080001  0  -0.090508  -0.071377  0  3.945212  0
C  C138  1  0.26848108  0.41399792  0.59395084  1  -0.022951  0  -0.102913  -0.155666  0  4.031369  0
C  C139  1  0.25290095  0.31833791  0.54100442  1  0.050353  0  -0.004532  0.057398  0  3.990756  0
C  C140  1  0.28919943  0.28019777  0.59384410  1  -0.019402  0  -0.007404  -0.115263  0  3.910421  0
C  C141  1  0.34606621  0.33829411  0.70874472  1  1.564095  0  0.232468  0.619805  0  4.187157  0
C  C142  1  0.27192828  0.18676145  0.54218083  1  0.030498  0  -0.000415  0.062309  0  3.981161  0
C  C143  1  0.30797979  0.14664746  0.59501014  1  -0.019585  0  -0.089127  -0.122524  0  3.974199  0
C  C144  1  0.28915626  0.05566704  0.54224187  1  -0.125866  0  -0.097262  -0.08984  0  4.055256  0
C  C145  1  0.23311322  0.00065204  0.43404208  1  0.056501  0  -0.097855  -0.09011  0  4.059061  0
C  C146  1  0.19693909  0.03758531  0.38050905  1  -0.048138  0  -0.091784  -0.12802  0  3.986052  0
C  C147  1  0.21504163  0.13088474  0.43247583  1  -0.011962  0  -2.7e-05  0.066096  0  3.978171  0
C  C148  1  0.11796605  0.11832232  0.98532227  1  1.568207  0  0.233364  0.625002  0  4.187752  0
C  C149  1  0.17473515  0.17650744  0.98460605  1  -0.015943  0  -0.012928  -0.132476  0  3.949518  0
C  C150  1  0.19934593  0.13815500  0.91697165  1  -0.003334  0  0.002484  0.068682  0  3.89746  0
C  C151  1  0.17441081  0.03867053  0.84519528  1  0.011653  0  -0.153478  -0.181087  0  3.953101  0
C  C152  1  0.15965957  0.00998472  0.74342755  1  0.011564  0  -0.155938  -0.138557  0  3.993772  0
C  C153  1  0.23368614  0.06693571  0.76108635  1  -0.076101  0  -0.090717  -0.073513  0  3.944706  0
C  C154  1  0.27791386  0.15218975  0.84337442  1  -0.051344  0  -0.101245  -0.152912  0  4.03021  0
C  C155  1  0.25477244  0.19386167  0.91764962  1  0.016236  0  -0.005082  0.056142  0  3.995051  0
C  C156  1  0.28352256  0.28560998  0.98710168  1  0.044149  0  -0.006911  -0.113667  0  3.917079  0
C  C157  1  0.34183412  0.34383753  0.98797305  1  1.561718  0  0.232417  0.620265  0  4.191201  0
C  C158  1  0.25848210  0.32637644  0.05701044  1  -0.015602  0  -0.000773  0.060777  0  3.985175  0
C  C159  1  0.28641465  0.42009805  0.12749984  1  -0.029351  0  -0.08904  -0.122885  0  3.978275  0
C  C160  1  0.26013471  0.45713229  0.19361593  1  -0.025748  0  -0.096994  -0.089406  0  4.058755  0
C  C161  1  0.20465120  0.40200264  0.19206860  1  -0.03217  0  -0.097361  -0.088259  0  4.054597  0
C  C162  1  0.17648471  0.31067321  0.12452347  1  -0.037827  0  -0.090776  -0.128061  0  3.983858  0
C  C163  1  0.20235439  0.27054406  0.05557320  1  -0.012609  0  0.000931  0.068096  0  3.980066  0
O  O164  1  0.98174806  0.98009803  0.98748361  1  -1.20774  0  -0.574903  -1.03649  0  2.547381  0
O  O165  1  0.85702603  0.92031935  0.03857572  1  -1.161631  0  -0.310133  -0.539247  0  2.310572  0
O  O166  1  0.86641172  0.79900305  0.92062168  1  -1.148253  0  -0.310465  -0.541028  0  2.321439  0
O  O167  1  0.60532728  0.52933942  0.92783838  1  -1.157802  0  -0.30785  -0.535795  0  2.314056  0
O  O168  1  0.59096068  0.65378045  0.03619844  1  -1.154549  0  -0.309927  -0.537971  0  2.320241  0
O  O169  1  0.86285667  0.92906381  0.75388194  1  -1.163156  0  -0.307865  -0.534746  0  2.314814  0
O  O170  1  0.86441973  0.80356923  0.74987317  1  -1.170449  0  -0.309784  -0.539317  0  2.323199  0
O  O171  1  0.59032299  0.54163241  0.22315648  1  -1.149068  0  -0.307731  -0.535269  0  2.3175  0
O  O172  1  0.60515333  0.66211596  0.21922372  1  -1.164057  0  -0.308051  -0.534878  0  2.314129  0
O  O173  1  0.15972741  0.92388698  0.04848660  1  -1.164893  0  -0.30827  -0.53617  0  2.312792  0
O  O174  1  0.03650492  0.80139210  0.91333241  1  -1.16639  0  -0.310455  -0.539979  0  2.321462  0
O  O175  1  0.30386679  0.53491696  0.91746007  1  -1.171039  0  -0.307479  -0.535466  0  2.31855  0
O  O176  1  0.42640613  0.65811037  0.05271673  1  -1.176555  0  -0.309572  -0.537804  0  2.317345  0
O  O177  1  0.86025393  0.09374199  0.92928628  1  -1.159658  0  -0.308679  -0.535985  0  2.318665  0
O  O178  1  0.87475420  0.10442253  0.06532214  1  -1.17376  0  -0.310241  -0.541674  0  2.314889  0
O  O179  1  0.60529490  0.37350221  0.06155736  1  -1.151977  0  -0.308493  -0.535852  0  2.316662  0
O  O180  1  0.59347526  0.35465900  0.92303840  1  -1.169352  0  -0.308213  -0.536704  0  2.316628  0
O  O181  1  0.16078193  0.09826797  0.22017968  1  -1.162729  0  -0.307697  -0.535162  0  2.313395  0
O  O182  1  0.03782040  0.08495375  0.22228356  1  -1.158085  0  -0.310431  -0.542009  0  2.314954  0
O  O183  1  0.30507290  0.35932768  0.75227049  1  -1.164514  0  -0.307014  -0.5344  0  2.321962  0
O  O184  1  0.42997902  0.36105012  0.75247756  1  -1.174493  0  -0.308491  -0.536753  0  2.314051  0
O  O185  1  0.15876867  0.09416960  0.04425182  1  -1.161759  0  -0.308105  -0.535329  0  2.314843  0
O  O186  1  0.03420382  0.09879639  0.92722974  1  -1.177808  0  -0.310648  -0.541486  0  2.323043  0
O  O187  1  0.30264430  0.36735971  0.92807725  1  -1.157945  0  -0.307639  -0.535493  0  2.318447  0
O  O188  1  0.42533644  0.36441195  0.04885745  1  -1.165202  0  -0.308554  -0.536246  0  2.320087  0
O  O189  1  0.48186097  0.47956173  0.98680265  1  -1.215502  0  -0.574505  -1.037278  0  2.546621  0
