# generated using pymatgen
data_ZnH21C22N2O7
_symmetry_space_group_name_H-M   'P 1'
_cell_length_a   8.07402188
_cell_length_b   12.10625543
_cell_length_c   14.03650000
_cell_angle_alpha   108.83817614
_cell_angle_beta   104.38877911
_cell_angle_gamma   96.19903146
_symmetry_Int_Tables_number   1
_chemical_formula_structural   ZnH21C22N2O7
_chemical_formula_sum   'Zn2 H42 C44 N4 O14'
_cell_volume   1230.99288179
_cell_formula_units_Z   2
loop_
 _symmetry_equiv_pos_site_id
 _symmetry_equiv_pos_as_xyz
  1  'x, y, z'
loop_
 _atom_site_type_symbol
 _atom_site_label
 _atom_site_symmetry_multiplicity
 _atom_site_fract_x
 _atom_site_fract_y
 _atom_site_fract_z
 _atom_site_occupancy
 _atom_site_hle17_bader_spin_density
 _atom_site_hle17_ddec_charge
 _atom_site_hle17_ddec_spin_density
 _atom_site_hle17_ddec_sum_bond_order
 _atom_site_hle17_magmom
 _atom_site_hse06_10hf_bader_spin_density
 _atom_site_hse06_10hf_ddec_charge
 _atom_site_hse06_10hf_ddec_spin_density
 _atom_site_hse06_10hf_ddec_sum_bond_order
 _atom_site_hse06_10hf_magmom
 _atom_site_hse06_bader_spin_density
 _atom_site_hse06_ddec_charge
 _atom_site_hse06_ddec_spin_density
 _atom_site_hse06_ddec_sum_bond_order
 _atom_site_hse06_magmom
 _atom_site_pbe_bader_charge
 _atom_site_pbe_bader_spin_density
 _atom_site_pbe_cm5_charge
 _atom_site_pbe_ddec_charge
 _atom_site_pbe_ddec_spin_density
 _atom_site_pbe_ddec_sum_bond_order
 _atom_site_pbe_magmom
Zn  Zn0  1  0.95549409  0.25377046  0.43340398  1  0  1.082234  0  1.775058  0  0  0.913853  0  2.224301  0  0  0.963552  0  2.166636  0  1.326527  0  0.671777  0.878967  0  2.263847  0
Zn  Zn1  1  0.04449808  0.74623515  0.56659945  1  0  1.082252  0  1.775021  0  0  0.913821  0  2.224297  0  0  0.96352  0  2.166636  0  1.326553  0  0.671823  0.878937  0  2.263839  0
H  H2  1  0.77906822  0.42587814  0.40816266  1  0  0.420404  0  0.887345  0  0  0.388183  0  0.954568  0  0  0.399262  0  0.938396  0  0.655794  0  0.283237  0.380341  0  0.965997  0
H  H3  1  0.22092396  0.57412746  0.59183864  1  0  0.420354  0  0.887423  0  0  0.388137  0  0.954649  0  0  0.399215  0  0.938477  0  0.655831  0  0.283226  0.380293  0  0.966078  0
H  H4  1  0.65998848  0.28936004  0.36414959  1  0  0.409604  0  0.905395  0  0  0.37635  0  0.973463  0  0  0.388919  0  0.955358  0  0.645118  0  0.278245  0.367508  0  0.986155  0
H  H5  1  0.34000316  0.71064379  0.63584615  1  0  0.409501  0  0.90554  0  0  0.376243  0  0.973615  0  0  0.388816  0  0.955505  0  0.645166  0  0.278205  0.367401  0  0.986307  0
H  H6  1  0.28045409  0.99498495  0.18179060  1  0  0.107349  0  0.931121  0  0  0.117156  0  0.987345  0  0  0.121012  0  0.984595  0  0.107866  0  0.108484  0.114375  0  0.989343  0
H  H7  1  0.71953885  0.00500193  0.81819490  1  0  0.107421  0  0.931254  0  0  0.117244  0  0.987456  0  0  0.121103  0  0.984701  0  0.108366  0  0.108501  0.114463  0  0.989454  0
H  H8  1  0.12807793  0.77971391  0.08662189  1  0  0.108598  0  0.945539  0  0  0.123179  0  0.998033  0  0  0.126028  0  0.997336  0  0.06182  0  0.108247  0.121146  0  0.998671  0
H  H9  1  0.87193312  0.22026941  0.91337447  1  0  0.108709  0  0.945386  0  0  0.123238  0  0.997943  0  0  0.126087  0  0.997247  0  0.061741  0  0.10828  0.121205  0  0.998582  0
H  H10  1  0.60950362  0.67188309  0.19234716  1  0  0.110657  0  0.974987  0  0  0.119115  0  1.038148  0  0  0.121203  0  1.039254  0  0.116342  0  0.101696  0.117588  0  1.037559  0
H  H11  1  0.39051413  0.32812252  0.80766135  1  0  0.110653  0  0.97496  0  0  0.119109  0  1.038119  0  0  0.121193  0  1.039224  0  0.116476  0  0.101705  0.117575  0  1.037521  0
H  H12  1  0.75969980  0.88654238  0.28755255  1  0  0.098244  0  0.95608  0  0  0.108538  0  1.016444  0  0  0.111753  0  1.013869  0  0.060903  0  0.104429  0.106213  0  1.018326  0
H  H13  1  0.24030650  0.11346769  0.71245629  1  0  0.098212  0  0.956207  0  0  0.108512  0  1.016552  0  0  0.111724  0  1.013981  0  0.060623  0  0.104409  0.106193  0  1.018416  0
H  H14  1  0.08139945  0.39251888  0.97171458  1  0  0.106456  0  0.957987  0  0  0.115565  0  1.022632  0  0  0.119156  0  1.020734  0  0.062118  0  0.103746  0.113025  0  1.024109  0
H  H15  1  0.91861851  0.60748316  0.02829012  1  0  0.106571  0  0.957815  0  0  0.115656  0  1.022491  0  0  0.119251  0  1.020585  0  0.062097  0  0.103763  0.113111  0  1.023979  0
H  H16  1  0.99070651  0.29722186  0.77399419  1  0  0.100328  0  0.943596  0  0  0.10997  0  1.00455  0  0  0.113425  0  1.001997  0  0.097944  0  0.104971  0.107484  0  1.006392  0
H  H17  1  0.00929401  0.70277750  0.22600799  1  0  0.100327  0  0.943601  0  0  0.109958  0  1.004576  0  0  0.113417  0  1.002011  0  0.097916  0  0.104964  0.107473  0  1.006416  0
H  H18  1  0.30288278  0.60061030  0.76174531  1  0  0.095072  0  0.957056  0  0  0.106603  0  1.017337  0  0  0.10985  0  1.01464  0  0.093069  0  0.106729  0.104248  0  1.019302  0
H  H19  1  0.69711338  0.39938728  0.23825147  1  0  0.095104  0  0.957029  0  0  0.106648  0  1.017285  0  0  0.109897  0  1.014584  0  0.093103  0  0.106739  0.104294  0  1.01925  0
H  H20  1  0.39010411  0.69565406  0.95626409  1  0  0.117098  0  0.948783  0  0  0.129597  0  1.000779  0  0  0.132884  0  1.000249  0  0.08259  0  0.108227  0.127268  0  1.001286  0
H  H21  1  0.60991021  0.30434442  0.04373553  1  0  0.117169  0  0.948788  0  0  0.12963  0  1.000822  0  0  0.132916  0  1.000294  0  0.082539  0  0.108246  0.127302  0  1.001329  0
H  H22  1  0.98859305  0.00125561  0.39960513  1  0  0.081244  0  0.974005  0  0  0.088306  0  1.040257  0  0  0.09135  0  1.037273  0  0.127704  0  0.11527  0.086041  0  1.042456  0
H  H23  1  0.01139799  0.99874197  0.60038950  1  0  0.081245  0  0.974122  0  0  0.088297  0  1.040379  0  0  0.091336  0  1.037398  0  0.127722  0  0.115241  0.086033  0  1.042579  0
H  H24  1  0.21033865  0.88203271  0.43132951  1  0  0.12061  0  0.978991  0  0  0.128129  0  1.043414  0  0  0.132157  0  1.04067  0  0.132973  0  0.108814  0.125214  0  1.045506  0
H  H25  1  0.78966227  0.11797647  0.56867617  1  0  0.120646  0  0.979126  0  0  0.128146  0  1.043577  0  0  0.132174  0  1.040835  0  0.132845  0  0.108823  0.125255  0  1.045636  0
H  H26  1  0.60330834  0.20495418  0.53353791  1  0  0.113429  0  0.956882  0  0  0.125286  0  1.014348  0  0  0.12823  0  1.013506  0  0.091556  0  0.112329  0.123093  0  1.015251  0
H  H27  1  0.39668470  0.79505856  0.46647476  1  0  0.113429  0  0.956942  0  0  0.125243  0  1.014441  0  0  0.128186  0  1.013604  0  0.091525  0  0.112374  0.123081  0  1.015304  0
H  H28  1  0.36093184  0.30894861  0.49746252  1  0  0.075381  0  0.946875  0  0  0.085225  0  1.010122  0  0  0.087229  0  1.008405  0  0.083391  0  0.116359  0.083694  0  1.01143  0
H  H29  1  0.63905764  0.69106502  0.50254632  1  0  0.075298  0  0.946921  0  0  0.08522  0  1.010093  0  0  0.087184  0  1.008418  0  0.083246  0  0.116329  0.083716  0  1.011372  0
H  H30  1  0.15422244  0.47598927  0.41544151  1  0  0.058326  0  0.955034  0  0  0.067697  0  1.023514  0  0  0.069173  0  1.019375  0  0.127604  0  0.126631  0.06636  0  1.026725  0
H  H31  1  0.84579679  0.52401277  0.58455981  1  0  0.058281  0  0.955159  0  0  0.067709  0  1.023558  0  0  0.069146  0  1.01947  0  0.127715  0  0.126657  0.066371  0  1.026769  0
H  H32  1  0.34967443  0.27537889  0.21008440  1  0  0.118898  0  0.941754  0  0  0.138678  0  1.003916  0  0  0.139945  0  1.002741  0  0.120721  0  0.107397  0.137641  0  1.004879  0
H  H33  1  0.65029624  0.72460620  0.78989600  1  0  0.118849  0  0.941777  0  0  0.138639  0  1.00392  0  0  0.139907  0  1.002748  0  0.120536  0  0.107413  0.137598  0  1.00489  0
H  H34  1  0.27144677  0.36544658  0.13592666  1  0  0.099559  0  0.937084  0  0  0.120307  0  0.999252  0  0  0.12111  0  0.999096  0  0.055273  0  0.105213  0.119624  0  0.999455  0
H  H35  1  0.72852396  0.63454297  0.86406212  1  0  0.099473  0  0.937064  0  0  0.120243  0  0.99923  0  0  0.121045  0  0.999073  0  0.055189  0  0.105194  0.119562  0  0.999431  0
H  H36  1  0.12030116  0.26163496  0.15679764  1  0  0.112493  0  0.926818  0  0  0.131467  0  0.986638  0  0  0.133108  0  0.985507  0  0.100764  0  0.110657  0.130209  0  0.98754  0
H  H37  1  0.87967641  0.73836886  0.84320036  1  0  0.112482  0  0.926794  0  0  0.131436  0  0.986652  0  0  0.133074  0  0.985519  0  0.10096  0  0.110672  0.130178  0  0.987553  0
H  H38  1  0.33890633  0.59278504  0.39350950  1  0  0.108665  0  0.961497  0  0  0.126542  0  1.028993  0  0  0.127631  0  1.028397  0  0.063603  0  0.109242  0.125615  0  1.029558  0
H  H39  1  0.66109690  0.40720630  0.60648014  1  0  0.108601  0  0.961481  0  0  0.126486  0  1.028987  0  0  0.127576  0  1.02839  0  0.063403  0  0.109207  0.125559  0  1.029552  0
H  H40  1  0.32059554  0.57366285  0.25917341  1  0  0.106169  0  0.953413  0  0  0.120506  0  1.024241  0  0  0.121922  0  1.024047  0  0.061774  0  0.101334  0.119378  0  1.024477  0
H  H41  1  0.67940822  0.42633027  0.74082393  1  0  0.106161  0  0.953252  0  0  0.120486  0  1.024132  0  0  0.121908  0  1.023921  0  0.061766  0  0.101334  0.119358  0  1.024369  0
H  H42  1  0.49345292  0.52639112  0.33347911  1  0  0.105138  0  0.942273  0  0  0.12276  0  1.008372  0  0  0.123758  0  1.008057  0  0.07524  0  0.101668  0.121883  0  1.008738  0
H  H43  1  0.50654243  0.47360379  0.66651467  1  0  0.105164  0  0.942211  0  0  0.122769  0  1.008339  0  0  0.123768  0  1.008025  0  0.075229  0  0.101673  0.121894  0  1.008709  0
C  C44  1  0.62120312  0.08225313  0.29368948  1  0  0.657222  0  3.903124  0  0  0.606262  0  4.199195  0  0  0.641082  0  4.19169  0  1.593542  0  0.210069  0.58268  0  4.203522  0
C  C45  1  0.37878388  0.91774802  0.70630770  1  0  0.657084  0  3.903422  0  0  0.606144  0  4.199431  0  0  0.640966  0  4.191926  0  1.593577  0  0.209961  0.582555  0  4.203764  0
C  C46  1  0.52936163  0.95363456  0.23894984  1  0  -0.07861  0  3.76022  0  0  -0.058477  0  3.996676  0  0  -0.067939  0  4.020932  0  -0.095307  0  -0.021734  -0.05244  0  3.980334  0
C  C47  1  0.47062941  0.04636303  0.76104265  1  0  -0.078706  0  3.760229  0  0  -0.058589  0  3.996706  0  0  -0.068055  0  4.020962  0  -0.094989  0  -0.021777  -0.052543  0  3.980371  0
C  C48  1  0.35089469  0.92335725  0.18318656  1  0  -0.044829  0  3.749003  0  0  -0.066983  0  3.995783  0  0  -0.065415  0  4.015995  0  0.048734  0  -0.078295  -0.067719  0  3.981909  0
C  C49  1  0.64910241  0.07663499  0.81680460  1  0  -0.044838  0  3.748845  0  0  -0.066994  0  3.99561  0  0  -0.065424  0  4.015823  0  0.047915  0  -0.078218  -0.067738  0  3.981739  0
C  C50  1  0.26642717  0.80418849  0.13098239  1  0  -0.185632  0  3.769276  0  0  -0.2066  0  4.021508  0  0  -0.212926  0  4.042319  0  -0.083492  0  -0.099639  -0.202395  0  4.007339  0
C  C51  1  0.73358097  0.19580642  0.86901251  1  0  -0.18568  0  3.769078  0  0  -0.206643  0  4.021369  0  0  -0.212973  0  4.042175  0  -0.083561  0  -0.099678  -0.202431  0  4.007213  0
C  C52  1  0.36246676  0.71549501  0.13454630  1  0  0.262717  0  3.808997  0  0  0.254397  0  4.071732  0  0  0.264592  0  4.087846  0  0.375951  0  0.080907  0.247521  0  4.060653  0
C  C53  1  0.63754447  0.28450168  0.86545097  1  0  0.262568  0  3.809155  0  0  0.25426  0  4.071847  0  0  0.264472  0  4.087944  0  0.376059  0  0.080814  0.247361  0  4.060797  0
C  C54  1  0.53884988  0.74339308  0.19125059  1  0  -0.18053  0  3.758024  0  0  -0.201061  0  4.008271  0  0  -0.206873  0  4.028979  0  -0.018283  0  -0.101279  -0.19723  0  3.99426  0
C  C55  1  0.46115987  0.25660717  0.80875601  1  0  -0.180522  0  3.757861  0  0  -0.201047  0  4.008127  0  0  -0.206858  0  4.028827  0  -0.0185  0  -0.101315  -0.197192  0  3.994114  0
C  C56  1  0.62150675  0.86282937  0.24350626  1  0  -0.040847  0  3.738809  0  0  -0.064166  0  3.985386  0  0  -0.062471  0  4.005471  0  0.021884  0  -0.081583  -0.064966  0  3.971632  0
C  C57  1  0.37849613  0.13717356  0.75649226  1  0  -0.040747  0  3.738706  0  0  -0.064077  0  3.985315  0  0  -0.062381  0  4.005397  0  0.022305  0  -0.081531  -0.064885  0  3.971572  0
C  C58  1  0.23964718  0.54877093  0.97477996  1  0  0.289962  0  3.794365  0  0  0.278476  0  4.0585  0  0  0.291566  0  4.072684  0  0.391703  0  0.089687  0.269625  0  4.048759  0
C  C59  1  0.76037011  0.45122041  0.02522238  1  0  0.289998  0  3.79401  0  0  0.278407  0  4.058289  0  0  0.291511  0  4.072459  0  0.391579  0  0.089628  0.269565  0  4.048539  0
C  C60  1  0.12885860  0.43606749  0.92401510  1  0  -0.189863  0  3.759887  0  0  -0.216131  0  4.025603  0  0  -0.222127  0  4.0432  0  -0.047996  0  -0.105131  -0.212272  0  4.013819  0
C  C61  1  0.87115540  0.56392564  0.07598798  1  0  -0.189915  0  3.759756  0  0  -0.216151  0  4.025494  0  0  -0.222154  0  4.043094  0  -0.047898  0  -0.105119  -0.212294  0  4.013704  0
C  C62  1  0.07888198  0.38411129  0.81478608  1  0  -0.037775  0  3.746455  0  0  -0.061422  0  3.997851  0  0  -0.05741  0  4.014891  0  0.039264  0  -0.081554  -0.063776  0  3.986204  0
C  C63  1  0.92112596  0.61588718  0.18521690  1  0  -0.037806  0  3.746704  0  0  -0.061436  0  3.998088  0  0  -0.057428  0  4.015133  0  0.039308  0  -0.081579  -0.063793  0  3.986446  0
C  C64  1  0.14086674  0.44238121  0.75474668  1  0  -0.109075  0  3.798086  0  0  -0.088055  0  4.036728  0  0  -0.098781  0  4.060335  0  -0.03246  0  -0.035477  -0.081239  0  4.020927  0
C  C65  1  0.85913688  0.55761994  0.24525786  1  0  -0.109198  0  3.798214  0  0  -0.0882  0  4.036871  0  0  -0.098917  0  4.060464  0  -0.03255  0  -0.03547  -0.081383  0  4.021074  0
C  C66  1  0.25406740  0.55426600  0.80717360  1  0  -0.035011  0  3.755026  0  0  -0.059082  0  4.003796  0  0  -0.05528  0  4.022059  0  -0.01626  0  -0.081728  -0.061275  0  3.991313  0
C  C67  1  0.74594437  0.44573247  0.19282994  1  0  -0.03482  0  3.754959  0  0  -0.058882  0  4.003681  0  0  -0.055082  0  4.021941  0  -0.016237  0  -0.08163  -0.061077  0  3.991201  0
C  C68  1  0.30352186  0.60824830  0.91656879  1  0  -0.205186  0  3.762468  0  0  -0.222568  0  4.009505  0  0  -0.229824  0  4.028982  0  -0.053759  0  -0.106967  -0.217829  0  3.996353  0
C  C69  1  0.69649220  0.39174929  0.08343340  1  0  -0.205419  0  3.762507  0  0  -0.222744  0  4.009583  0  0  -0.230003  0  4.029058  0  -0.053526  0  -0.107079  -0.218006  0  3.996433  0
C  C70  1  0.08725365  0.38484789  0.63759635  1  0  0.629439  0  3.935441  0  0  0.57928  0  4.229972  0  0  0.613421  0  4.224181  0  1.553189  0  0.196612  0.556203  0  4.233097  0
C  C71  1  0.91274283  0.61515504  0.36240767  1  0  0.629475  0  3.935564  0  0  0.579356  0  4.230028  0  0  0.613492  0  4.224241  0  1.553511  0  0.196632  0.556279  0  4.233153  0
C  C72  1  0.12706165  0.04208700  0.42963038  1  0  0.127586  0  3.706505  0  0  0.098335  0  3.955641  0  0  0.104335  0  3.973961  0  0.441131  0  0.046022  0.094491  0  3.9432  0
C  C73  1  0.87293585  0.95791504  0.57037140  1  0  0.127582  0  3.706566  0  0  0.098321  0  3.955694  0  0  0.104326  0  3.974015  0  0.441306  0  0.046042  0.094473  0  3.943261  0
C  C74  1  0.25368437  0.97636216  0.44791547  1  0  -0.148635  0  3.687608  0  0  -0.169034  0  3.938681  0  0  -0.176154  0  3.959497  0  -0.006996  0  -0.078467  -0.164413  0  3.924748  0
C  C75  1  0.74632449  0.02364791  0.55208946  1  0  -0.148636  0  3.687615  0  0  -0.169043  0  3.938687  0  0  -0.176167  0  3.959503  0  -0.006785  0  -0.078442  -0.164436  0  3.924739  0
C  C76  1  0.43060657  0.03304982  0.48836043  1  0  0.096882  0  3.741743  0  0  0.106341  0  3.977162  0  0  0.109523  0  3.999846  0  -0.076326  0  0.016174  0.104351  0  3.961682  0
C  C77  1  0.56940216  0.96695133  0.51164413  1  0  0.096871  0  3.741745  0  0  0.106373  0  3.977099  0  0  0.109557  0  3.999778  0  -0.033754  0  0.016162  0.104382  0  3.961629  0
C  C78  1  0.46924426  0.15502676  0.50515653  1  0  -0.143072  0  3.677566  0  0  -0.16122  0  3.923173  0  0  -0.168408  0  3.944982  0  -0.044142  0  -0.076187  -0.156568  0  3.908572  0
C  C79  1  0.53075276  0.84497796  0.49485234  1  0  -0.143193  0  3.677827  0  0  -0.161307  0  3.923485  0  0  -0.168493  0  3.945277  0  -0.044152  0  -0.076268  -0.156676  0  3.908878  0
C  C80  1  0.33437820  0.21411621  0.48428308  1  0  0.136812  0  3.705055  0  0  0.10589  0  3.955431  0  0  0.112433  0  3.974482  0  0.542873  0  0.049104  0.101664  0  3.942481  0
C  C81  1  0.66562144  0.78589297  0.51572384  1  0  0.13691  0  3.705105  0  0  0.10589  0  3.955486  0  0  0.112467  0  3.974543  0  0.543191  0  0.049061  0.101641  0  3.942538  0
C  C82  1  0.14273318  0.39862571  0.34450208  1  0  0.383226  0  3.790139  0  0  0.306937  0  4.078307  0  0  0.334744  0  4.079708  0  1.342591  0  0.1716  0.288356  0  4.076955  0
C  C83  1  0.85727333  0.60138079  0.65549581  1  0  0.383143  0  3.790462  0  0  0.306824  0  4.078621  0  0  0.334647  0  4.080027  0  1.342441  0  0.171496  0.288244  0  4.077267  0
C  C84  1  0.24656371  0.32443238  0.19157996  1  0  -0.173172  0  3.63525  0  0  -0.270498  0  3.872217  0  0  -0.267096  0  3.88152  0  0.211089  0  -0.130206  -0.272506  0  3.866037  0
C  C85  1  0.75341959  0.67556074  0.80841304  1  0  -0.17298  0  3.635227  0  0  -0.270303  0  3.872186  0  0  -0.266904  0  3.881485  0  0.211217  0  -0.130252  -0.272309  0  3.866  0
C  C86  1  0.35595998  0.53457041  0.32005826  1  0  -0.1855  0  3.650419  0  0  -0.28689  0  3.901048  0  0  -0.284409  0  3.911688  0  0.280308  0  -0.135094  -0.28818  0  3.893872  0
C  C87  1  0.64404304  0.46542450  0.67993520  1  0  -0.185376  0  3.650218  0  0  -0.286768  0  3.900867  0  0  -0.284293  0  3.911504  0  0.280408  0  -0.135044  -0.288065  0  3.893695  0
N  N88  1  0.16507083  0.15958548  0.44845137  1  0  -0.321311  0  3.272075  0  0  -0.244595  0  3.534529  0  0  -0.262984  0  3.55161  0  -1.204012  0  -0.318701  -0.232094  0  3.522726  0
N  N89  1  0.83492976  0.84041835  0.55155135  1  0  -0.321298  0  3.272044  0  0  -0.244525  0  3.534489  0  0  -0.262913  0  3.55155  0  -1.204054  0  -0.318639  -0.232026  0  3.522697  0
N  N90  1  0.24297352  0.41839443  0.28682382  1  0  -0.072864  0  3.495303  0  0  0.031674  0  3.72742  0  0  0.011749  0  3.753272  0  -1.20423  0  -0.277762  0.044926  0  3.709535  0
N  N91  1  0.75703287  0.58160316  0.71317300  1  0  -0.072962  0  3.495376  0  0  0.031563  0  3.727542  0  0  0.011657  0  3.753364  0  -1.204004  0  -0.277714  0.044818  0  3.709652  0
O  O92  1  0.77892430  0.09975764  0.35229009  1  0  -0.658195  0  2.08847  0  0  -0.587197  0  2.357237  0  0  -0.616498  0  2.343701  0  -1.193848  0  -0.326799  -0.566717  0  2.365836  0
O  O93  1  0.22106431  0.90024886  0.64770952  1  0  -0.658155  0  2.088669  0  0  -0.587117  0  2.3574  0  0  -0.616418  0  2.343866  0  -1.194154  0  -0.326741  -0.566637  0  2.365997  0
O  O94  1  0.54073662  0.16262908  0.28009187  1  0  -0.62628  0  1.947726  0  0  -0.576226  0  2.160521  0  0  -0.60066  0  2.150334  0  -1.18271  0  -0.323646  -0.559265  0  2.167044  0
O  O95  1  0.45925576  0.83737296  0.71990062  1  0  -0.626156  0  1.947758  0  0  -0.576123  0  2.160544  0  0  -0.60056  0  2.150362  0  -1.182543  0  -0.323575  -0.559157  0  2.167065  0
O  O96  1  0.28112075  0.59525613  0.08305525  1  0  -0.311821  0  2.362942  0  0  -0.244352  0  2.592849  0  0  -0.262752  0  2.595316  0  -1.109979  0  -0.157709  -0.23118  0  2.590588  0
O  O97  1  0.71890273  0.40473878  0.91694683  1  0  -0.311846  0  2.36275  0  0  -0.244294  0  2.592608  0  0  -0.262707  0  2.59507  0  -1.10994  0  -0.15765  -0.231117  0  2.590353  0
O  O98  1  0.15415294  0.43261189  0.58314325  1  0  -0.66551  0  1.998644  0  0  -0.60366  0  2.23722  0  0  -0.630654  0  2.226759  0  -1.202035  0  -0.320318  -0.584743  0  2.243753  0
O  O99  1  0.84584180  0.56739372  0.41686126  1  0  -0.665543  0  1.998593  0  0  -0.603749  0  2.237215  0  0  -0.630746  0  2.226757  0  -1.202152  0  -0.320369  -0.584833  0  2.243748  0
O  O100  1  0.97392190  0.28670167  0.59352750  1  0  -0.631449  0  2.004107  0  0  -0.569826  0  2.256854  0  0  -0.597608  0  2.246061  0  -1.179452  0  -0.321982  -0.550406  0  2.263581  0
O  O101  1  0.02606967  0.71329769  0.40647340  1  0  -0.631366  0  2.00417  0  0  -0.569759  0  2.256916  0  0  -0.597539  0  2.246126  0  -1.179742  0  -0.32196  -0.550336  0  2.263641  0
O  O102  1  0.04298519  0.30010138  0.32105734  1  0  -0.541579  0  2.107357  0  0  -0.481808  0  2.374704  0  0  -0.506482  0  2.363446  0  -1.164431  0  -0.306554  -0.4648  0  2.381951  0
O  O103  1  0.95701035  0.69990690  0.67894874  1  0  -0.541477  0  2.107662  0  0  -0.481697  0  2.375009  0  0  -0.506368  0  2.363743  0  -1.16461  0  -0.306521  -0.46469  0  2.382253  0
O  O104  1  0.75326302  0.35349600  0.42554648  1  0  -0.85305  0  1.910681  0  0  -0.790738  0  2.114746  0  0  -0.81333  0  2.07789  0  -1.298699  0  -0.588057  -0.774713  0  2.140285  0
O  O105  1  0.24672835  0.64650693  0.57445040  1  0  -0.8529  0  1.910759  0  0  -0.790576  0  2.11479  0  0  -0.813177  0  2.077933  0  -1.298746  0  -0.588011  -0.77455  0  2.140326  0
