# generated using pymatgen
data_Cd3H22C20N14(ClO2)2
_symmetry_space_group_name_H-M   'P 1'
_cell_length_a   6.92565710
_cell_length_b   9.00451812
_cell_length_c   12.89257614
_cell_angle_alpha   76.31196683
_cell_angle_beta   87.03707187
_cell_angle_gamma   73.51874991
_symmetry_Int_Tables_number   1
_chemical_formula_structural   Cd3H22C20N14(ClO2)2
_chemical_formula_sum   'Cd3 H22 C20 N14 Cl2 O4'
_cell_volume   748.97512238
_cell_formula_units_Z   1
loop_
 _symmetry_equiv_pos_site_id
 _symmetry_equiv_pos_as_xyz
  1  'x, y, z'
loop_
 _atom_site_type_symbol
 _atom_site_label
 _atom_site_symmetry_multiplicity
 _atom_site_fract_x
 _atom_site_fract_y
 _atom_site_fract_z
 _atom_site_occupancy
 _atom_site_hle17_bader_spin_density
 _atom_site_hle17_ddec_charge
 _atom_site_hle17_ddec_spin_density
 _atom_site_hle17_ddec_sum_bond_order
 _atom_site_hle17_magmom
 _atom_site_hse06_10hf_bader_spin_density
 _atom_site_hse06_10hf_ddec_charge
 _atom_site_hse06_10hf_ddec_spin_density
 _atom_site_hse06_10hf_ddec_sum_bond_order
 _atom_site_hse06_10hf_magmom
 _atom_site_hse06_bader_spin_density
 _atom_site_hse06_ddec_charge
 _atom_site_hse06_ddec_spin_density
 _atom_site_hse06_ddec_sum_bond_order
 _atom_site_hse06_magmom
 _atom_site_pbe_bader_spin_density
 _atom_site_pbe_cm5_charge
 _atom_site_pbe_ddec_charge
 _atom_site_pbe_ddec_spin_density
 _atom_site_pbe_ddec_sum_bond_order
 _atom_site_pbe_magmom
Cd  Cd0  1  0.49999960  0.99999925  0.50000061  1  0  1.058317  0  1.840963  0  0  0.876132  0  2.304637  0  0  0.926461  0  2.257489  0  0  0.663683  0.840285  0  2.336646  0
Cd  Cd1  1  0.92772045  0.09098253  0.60483887  1  0  1.108135  0  1.787794  0  0  0.930583  0  2.239957  0  0  0.982408  0  2.189886  0  0  0.691102  0.893688  0  2.274084  0
Cd  Cd2  1  0.07227623  0.90901885  0.39516158  1  0  1.108112  0  1.787793  0  0  0.93055  0  2.239968  0  0  0.982382  0  2.189885  0  0  0.691084  0.893654  0  2.274101  0
H  H3  1  0.27447348  0.48552991  0.42597784  1  0  0.099004  0  0.965905  0  0  0.104923  0  1.03689  0  0  0.107407  0  1.033925  0  0  0.116766  0.10297  0  1.039178  0
H  H4  1  0.72552564  0.51447268  0.57402623  1  0  0.099028  0  0.96586  0  0  0.10491  0  1.036874  0  0  0.107431  0  1.033869  0  0  0.116756  0.102956  0  1.039164  0
H  H5  1  0.72506321  0.77842917  0.27797151  1  0  0.112795  0  0.932304  0  0  0.120558  0  0.996362  0  0  0.122636  0  0.994153  0  0  0.141814  0.119017  0  0.997886  0
H  H6  1  0.27493826  0.22157099  0.72202670  1  0  0.112818  0  0.932255  0  0  0.120601  0  0.996313  0  0  0.122678  0  0.994107  0  0  0.141865  0.119066  0  0.997833  0
H  H7  1  0.58844171  0.47104156  0.33421510  1  0  0.094142  0  0.942268  0  0  0.103534  0  1.015716  0  0  0.104454  0  1.014708  0  0  0.105427  0.102787  0  1.016516  0
H  H8  1  0.41156121  0.52895859  0.66578307  1  0  0.094173  0  0.942242  0  0  0.103534  0  1.01572  0  0  0.104452  0  1.014717  0  0  0.105418  0.102789  0  1.016519  0
H  H9  1  0.78364937  0.34078483  0.27697791  1  0  0.101419  0  0.936001  0  0  0.110541  0  1.005938  0  0  0.111677  0  1.005242  0  0  0.120232  0.109698  0  1.00647  0
H  H10  1  0.21635540  0.65921414  0.72302119  1  0  0.101437  0  0.935994  0  0  0.110569  0  1.005913  0  0  0.1117  0  1.005226  0  0  0.120252  0.109725  0  1.006446  0
H  H11  1  0.35491325  0.70027827  0.21952657  1  0  0.102359  0  0.969128  0  0  0.110267  0  1.036356  0  0  0.112667  0  1.03584  0  0  0.097762  0.108474  0  1.036927  0
H  H12  1  0.64509047  0.29971952  0.78047431  1  0  0.102461  0  0.969042  0  0  0.110344  0  1.036284  0  0  0.112749  0  1.035764  0  0  0.097784  0.108549  0  1.03686  0
H  H13  1  0.23016364  0.85180373  0.03821341  1  0  0.102296  0  0.934527  0  0  0.112945  0  0.992337  0  0  0.116428  0  0.989898  0  0  0.104862  0.110401  0  0.994219  0
H  H14  1  0.76984007  0.14819407  0.96178824  1  0  0.102292  0  0.934501  0  0  0.112938  0  0.992315  0  0  0.116421  0  0.989876  0  0  0.104848  0.110397  0  0.994201  0
H  H15  1  0.76697819  0.59341619  0.90418956  1  0  0.093998  0  0.954412  0  0  0.102315  0  1.01956  0  0  0.105539  0  1.017717  0  0  0.101872  0.100014  0  1.02092  0
H  H16  1  0.23302080  0.40658279  0.09580968  1  0  0.09401  0  0.954397  0  0  0.102325  0  1.019542  0  0  0.105551  0  1.017698  0  0  0.101885  0.100026  0  1.0209  0
H  H17  1  0.89191867  0.43926638  0.08653173  1  0  0.09431  0  0.953632  0  0  0.106633  0  1.013562  0  0  0.109263  0  1.012434  0  0  0.10177  0.104776  0  1.014389  0
H  H18  1  0.10808424  0.56073378  0.91346722  1  0  0.094307  0  0.953637  0  0  0.106649  0  1.013545  0  0  0.109281  0  1.012414  0  0  0.101785  0.104794  0  1.014372  0
H  H19  1  0.94630514  0.93637301  0.81953250  1  0  0.389806  0  0.921767  0  0  0.352968  0  0.997102  0  0  0.364526  0  0.980154  0  0  0.283717  0.34473  0  1.009162  0
H  H20  1  0.05369093  0.06362599  0.18046836  1  0  0.389777  0  0.921802  0  0  0.352942  0  0.997137  0  0  0.364501  0  0.980188  0  0  0.283696  0.344704  0  1.009198  0
H  H21  1  0.73813031  0.92269052  0.77858071  1  0  0.387152  0  0.933403  0  0  0.347495  0  1.012227  0  0  0.358677  0  0.99622  0  0  0.278145  0.33955  0  1.023566  0
H  H22  1  0.26186535  0.07730966  0.22141919  1  0  0.387183  0  0.933365  0  0  0.347524  0  1.012188  0  0  0.358705  0  0.996182  0  0  0.278152  0.339577  0  1.023532  0
H  H23  1  0.12044247  0.20173501  0.42048046  1  0  0.372142  0  0.954931  0  0  0.329894  0  1.039412  0  0  0.341508  0  1.022922  0  0  0.25478  0.321693  0  1.050989  0
H  H24  1  0.87955565  0.79826637  0.57952073  1  0  0.372112  0  0.954971  0  0  0.329865  0  1.039449  0  0  0.341479  0  1.02296  0  0  0.254773  0.321662  0  1.05103  0
C  C25  1  0.12916954  0.52665652  0.38481931  1  0  0.199687  0  3.702615  0  0  0.141659  0  3.991663  0  0  0.153302  0  4.005503  0  0  0.139667  0.134221  0  3.981999  0
C  C26  1  0.87082856  0.47334487  0.61518343  1  0  0.199648  0  3.702573  0  0  0.141647  0  3.991643  0  0  0.15326  0  4.005474  0  0  0.1397  0.134212  0  3.981979  0
C  C27  1  0.85226336  0.67829767  0.31021800  1  0  0.180683  0  3.648629  0  0  0.102855  0  3.91449  0  0  0.118002  0  3.926181  0  0  0.162557  0.093372  0  3.906064  0
C  C28  1  0.14773892  0.32170013  0.68978291  1  0  0.180636  0  3.648436  0  0  0.102724  0  3.914306  0  0  0.117863  0  3.926002  0  0  0.162485  0.093241  0  3.905876  0
C  C29  1  0.70917822  0.46603025  0.27545565  1  0  -0.063078  0  3.638485  0  0  -0.14136  0  3.887186  0  0  -0.136838  0  3.896661  0  0  -0.048224  -0.14402  0  3.880523  0
C  C30  1  0.29082612  0.53396992  0.72454404  1  0  -0.063101  0  3.638524  0  0  -0.141407  0  3.887228  0  0  -0.136899  0  3.896728  0  0  -0.048233  -0.144071  0  3.880566  0
C  C31  1  0.63160612  0.55899040  0.16528225  1  0  0.064181  0  3.763387  0  0  0.081804  0  4.008272  0  0  0.080588  0  4.033752  0  0  -0.015207  0.08278  0  3.990721  0
C  C32  1  0.36839532  0.44100978  0.83471829  1  0  0.064249  0  3.763356  0  0  0.081852  0  4.008273  0  0  0.080634  0  4.033757  0  0  -0.015187  0.082833  0  3.99072  0
C  C33  1  0.44522832  0.67482176  0.15076531  1  0  -0.107781  0  3.728418  0  0  -0.126723  0  3.973141  0  0  -0.129509  0  3.995164  0  0  -0.090382  -0.124816  0  3.958185  0
C  C34  1  0.55477458  0.32517841  0.84923441  1  0  -0.107906  0  3.728419  0  0  -0.126811  0  3.97313  0  0  -0.1296  0  3.995154  0  0  -0.090393  -0.124899  0  3.958178  0
C  C35  1  0.37482918  0.76103629  0.04858084  1  0  -0.07016  0  3.715117  0  0  -0.091924  0  3.960173  0  0  -0.093274  0  3.979942  0  0  -0.080281  -0.090868  0  3.946721  0
C  C36  1  0.62517227  0.23896388  0.95141892  1  0  -0.070189  0  3.715122  0  0  -0.091954  0  3.960159  0  0  -0.093303  0  3.97993  0  0  -0.080304  -0.090907  0  3.946718  0
C  C37  1  0.49121934  0.73258582  0.95940685  1  0  0.001284  0  3.812333  0  0  0.019115  0  4.044741  0  0  0.016881  0  4.068721  0  0  -0.004873  0.020527  0  4.028518  0
C  C38  1  0.50878026  0.26741554  0.04059198  1  0  0.001299  0  3.812311  0  0  0.019142  0  4.04469  0  0  0.016908  0  4.068673  0  0  -0.004863  0.020555  0  4.028466  0
C  C39  1  0.67966090  0.61774417  0.97406003  1  0  -0.088619  0  3.749167  0  0  -0.110502  0  3.998711  0  0  -0.112605  0  4.020315  0  0  -0.086338  -0.108953  0  3.984043  0
C  C40  1  0.32034014  0.38225718  0.02593876  1  0  -0.088625  0  3.749154  0  0  -0.110509  0  3.998695  0  0  -0.112612  0  4.020296  0  0  -0.08637  -0.108959  0  3.984028  0
C  C41  1  0.74847677  0.53172185  0.07598273  1  0  -0.113896  0  3.758376  0  0  -0.136774  0  4.011031  0  0  -0.139634  0  4.033555  0  0  -0.092395  -0.134746  0  3.995583  0
C  C42  1  0.25152613  0.46827832  0.92401699  1  0  -0.113914  0  3.7584  0  0  -0.136804  0  4.011066  0  0  -0.139663  0  4.033591  0  0  -0.092407  -0.134785  0  3.995625  0
C  C43  1  0.41912855  0.81644207  0.85107678  1  0  0.276488  0  3.792424  0  0  0.252943  0  4.062127  0  0  0.262685  0  4.078016  0  0  0.219032  0.246428  0  4.051357  0
C  C44  1  0.58086813  0.18355931  0.14892444  1  0  0.276471  0  3.79233  0  0  0.252928  0  4.062027  0  0  0.262668  0  4.077918  0  0  0.219049  0.246417  0  4.05125  0
N  N45  1  0.01951888  0.68252123  0.35532575  1  0  -0.415135  0  3.206791  0  0  -0.341388  0  3.500659  0  0  -0.365007  0  3.516063  0  0  -0.346341  -0.325256  0  3.489471  0
N  N46  1  0.98047780  0.31748015  0.64467470  1  0  -0.415101  0  3.206689  0  0  -0.341336  0  3.500556  0  0  -0.364956  0  3.515978  0  0  -0.346336  -0.32521  0  3.489376  0
N  N47  1  0.03843180  0.42785210  0.35956464  1  0  -0.27001  0  2.903353  0  0  -0.249801  0  3.161745  0  0  -0.259459  0  3.174361  0  0  -0.208622  -0.243001  0  3.15324  0
N  N48  1  0.96156818  0.57214808  0.64043670  1  0  -0.26998  0  2.90341  0  0  -0.249831  0  3.16179  0  0  -0.259496  0  3.174421  0  0  -0.208661  -0.243033  0  3.153287  0
N  N49  1  0.86230134  0.52669155  0.31224636  1  0  0.055143  0  3.541163  0  0  0.173077  0  3.726026  0  0  0.161669  0  3.750395  0  0  -0.128293  0.179051  0  3.712158  0
N  N50  1  0.13770113  0.47330981  0.68775395  1  0  0.055109  0  3.541223  0  0  0.17318  0  3.725994  0  0  0.161809  0  3.750294  0  0  -0.12825  0.179158  0  3.712122  0
N  N51  1  0.22468578  0.87799120  0.81875337  1  0  -0.321029  0  2.997827  0  0  -0.287669  0  3.261134  0  0  -0.298343  0  3.273802  0  0  -0.216797  -0.280348  0  3.252554  0
N  N52  1  0.77531421  0.12200898  0.18124797  1  0  -0.321049  0  2.99784  0  0  -0.28769  0  3.261155  0  0  -0.298364  0  3.273824  0  0  -0.216805  -0.280373  0  3.252576  0
N  N53  1  0.23137627  0.93793347  0.71332445  1  0  -0.128264  0  3.170534  0  0  -0.086013  0  3.458128  0  0  -0.093083  0  3.47521  0  0  -0.114979  -0.080879  0  3.446318  0
N  N54  1  0.76862083  0.06206672  0.28667696  1  0  -0.128247  0  3.170528  0  0  -0.085988  0  3.45812  0  0  -0.093058  0  3.475205  0  0  -0.114951  -0.080856  0  3.44631  0
N  N55  1  0.42043467  0.91472530  0.68332250  1  0  -0.099015  0  3.185783  0  0  -0.056005  0  3.474468  0  0  -0.063063  0  3.491618  0  0  -0.107967  -0.050857  0  3.462551  0
N  N56  1  0.57956200  0.08527608  0.31667872  1  0  -0.099039  0  3.185706  0  0  -0.056048  0  3.474419  0  0  -0.063107  0  3.491571  0  0  -0.108026  -0.050895  0  3.462496  0
N  N57  1  0.54267025  0.83833275  0.76756914  1  0  -0.298289  0  3.004668  0  0  -0.262345  0  3.266806  0  0  -0.27265  0  3.279546  0  0  -0.209552  -0.255269  0  3.258143  0
N  N58  1  0.45732687  0.16166743  0.23243072  1  0  -0.298239  0  3.004514  0  0  -0.262286  0  3.26665  0  0  -0.272591  0  3.279391  0  0  -0.209512  -0.255213  0  3.257985  0
Cl  Cl59  1  0.55886944  0.26526985  0.53840450  1  0  -0.595891  0  0.900081  0  0  -0.535042  0  1.184495  0  0  -0.553384  0  1.161363  0  0  -0.308238  -0.521633  0  1.200237  0
Cl  Cl60  1  0.44112956  0.73472912  0.46159397  1  0  -0.5959  0  0.90007  0  0  -0.535031  0  1.184461  0  0  -0.553376  0  1.161329  0  0  -0.308241  -0.521619  0  1.200203  0
O  O61  1  0.15649055  0.09274711  0.46620316  1  0  -0.976624  0  1.87891  0  0  -0.863847  0  2.147669  0  0  -0.902143  0  2.116504  0  0  -0.603762  -0.836437  0  2.168244  0
O  O62  1  0.84350841  0.90725188  0.53379763  1  0  -0.976579  0  1.878911  0  0  -0.863802  0  2.147671  0  0  -0.902104  0  2.116521  0  0  -0.603759  -0.836387  0  2.168246  0
O  O63  1  0.81740569  0.99852479  0.78166010  1  0  -0.816409  0  1.919448  0  0  -0.752787  0  2.115619  0  0  -0.774563  0  2.082576  0  0  -0.589094  -0.737244  0  2.138686  0
O  O64  1  0.18258996  0.00147540  0.21834135  1  0  -0.816393  0  1.919425  0  0  -0.75279  0  2.115641  0  0  -0.774568  0  2.082598  0  0  -0.589076  -0.737244  0  2.138711  0
