# generated using pymatgen
data_MnH19C23N3O8
_symmetry_space_group_name_H-M   'P 1'
_cell_length_a   7.32240758
_cell_length_b   8.02262676
_cell_length_c   10.30977751
_cell_angle_alpha   84.48485396
_cell_angle_beta   74.12766475
_cell_angle_gamma   64.50757284
_symmetry_Int_Tables_number   1
_chemical_formula_structural   MnH19C23N3O8
_chemical_formula_sum   'Mn1 H19 C23 N3 O8'
_cell_volume   525.67690641
_cell_formula_units_Z   1
loop_
 _symmetry_equiv_pos_site_id
 _symmetry_equiv_pos_as_xyz
  1  'x, y, z'
loop_
 _atom_site_type_symbol
 _atom_site_label
 _atom_site_symmetry_multiplicity
 _atom_site_fract_x
 _atom_site_fract_y
 _atom_site_fract_z
 _atom_site_occupancy
 _atom_site_pbe_cm5_charge
 _atom_site_pbe_ddec_charge
 _atom_site_pbe_ddec_spin_density
 _atom_site_pbe_ddec_sum_bond_order
 _atom_site_pbe_magmom
Mn  Mn0  1  0.05021919  0.49048193  0.45995159  1  0.611433  0.948437  4.647236  2.358929  4.44
H  H1  1  0.49506558  0.48012431  0.45834061  1  0.314131  0.263911  6.9e-05  1.021658  0.001
H  H2  1  0.08813398  0.12778979  0.48873599  1  0.296633  0.321563  0.001137  1.026789  0.002
H  H3  1  0.42713117  0.94511666  0.51030195  1  0.093077  0.09303  0.000671  1.022616  0.001
H  H4  1  0.50124914  0.12330245  0.43010012  1  0.098568  0.099122  -0.000115  1.0282  0.0
H  H5  1  0.44528021  0.98483317  0.33470872  1  0.087221  0.083728  0.000488  1.008274  0.001
H  H6  1  0.80589959  0.68893200  0.09905714  1  0.10316  0.104869  7.7e-05  1.025621  0.0
H  H7  1  0.76417252  0.83549730  0.87765949  1  0.098061  0.100895  -4.4e-05  1.008313  0.0
H  H8  1  0.56231216  0.93848944  0.70424697  1  0.095835  0.097097  -0.000146  1.032193  0.0
H  H9  1  0.24235083  0.88350373  0.73510027  1  0.096515  0.100198  -5.3e-05  1.03274  0.0
H  H10  1  0.12419950  0.72736918  0.93652412  1  0.09697  0.099444  -7e-06  1.007513  0.0
H  H11  1  0.16347077  0.58753834  0.15936811  1  0.100847  0.12608  0.0003  1.051604  0.0
H  H12  1  0.46321254  0.27834211  0.63833657  1  0.1058  0.158515  0.000569  0.98523  0.001
H  H13  1  0.33668768  0.52264864  0.65520215  1  0.108997  0.161163  0.00029  1.028244  0.0
H  H14  1  0.37974877  0.39044722  0.79817350  1  0.095121  0.139271  0.000371  1.036699  0.0
H  H15  1  0.59083700  0.20816298  0.88272646  1  0.114983  0.114529  9.4e-05  1.006524  0.0
H  H16  1  0.63943126  0.05385166  0.10173418  1  0.103853  0.101033  -3.6e-05  1.016603  0.0
H  H17  1  0.83887464  0.96492968  0.27821924  1  0.105277  0.107935  -0.000285  1.037678  0.0
H  H18  1  0.12322735  0.06208008  0.25913554  1  0.107226  0.102044  -0.000167  1.014605  0.0
H  H19  1  0.21686747  0.24555992  0.06413604  1  0.112988  0.129679  -5e-06  0.984082  0.0
C  C20  1  0.40177430  0.05201741  0.43381138  1  -0.151435  -0.113078  0.0045  3.905343  0.004
C  C21  1  0.72012067  0.54008785  0.32668715  1  0.248826  0.463941  0.007952  4.087842  0.007
C  C22  1  0.59587325  0.58741469  0.22758161  1  -0.033126  -0.162818  0.004577  3.994054  0.004
C  C23  1  0.66444810  0.66846231  0.11038350  1  -0.085934  -0.132614  0.000462  3.99578  0.0
C  C24  1  0.55625951  0.72664169  0.00906771  1  -0.027946  0.031846  0.002257  4.054765  0.002
C  C25  1  0.62159981  0.81581098  0.89140147  1  -0.09862  -0.134386  -0.0008  4.013794  -0.001
C  C26  1  0.50970152  0.87295053  0.79526184  1  -0.107436  -0.105974  0.00264  4.033613  0.002
C  C27  1  0.32863640  0.84071503  0.81252377  1  -0.097546  -0.075132  -0.000118  4.003612  0.0
C  C28  1  0.26295947  0.75250232  0.92466400  1  -0.096014  -0.13763  0.00204  3.970581  0.002
C  C29  1  0.37244082  0.69382211  0.02731835  1  -0.010414  0.100034  0.000105  4.039752  0.0
C  C30  1  0.30520895  0.60861059  0.14514711  1  -0.123025  -0.304279  0.007262  3.947351  0.005
C  C31  1  0.40809252  0.55687790  0.24871220  1  0.088275  0.331858  0.0053  4.103222  0.005
C  C32  1  0.44917858  0.39792270  0.69106527  1  -0.243275  -0.482703  0.001744  3.940239  0.001
C  C33  1  0.65648822  0.40503542  0.66389933  1  0.148856  0.288666  0.012843  3.921386  0.011
C  C34  1  0.77027565  0.34993507  0.76883786  1  -0.009598  -0.148679  -0.004948  3.974128  -0.004
C  C35  1  0.71557647  0.25045991  0.87726736  1  -0.047845  -0.058214  0.013084  3.900372  0.01
C  C36  1  0.81860289  0.19604416  0.98248239  1  -0.020606  -0.015888  -0.000365  4.097182  -0.001
C  C37  1  0.76667206  0.09377761  0.09450302  1  -0.075515  -0.096605  0.002602  3.953428  0.002
C  C38  1  0.87635746  0.04536658  0.19234072  1  -0.08885  -0.092493  0.000443  3.983955  0.0
C  C39  1  0.03905582  0.09935147  0.18111001  1  -0.068929  -0.01802  0.003557  3.946135  0.003
C  C40  1  0.09318703  0.20088300  0.07275171  1  -0.089511  -0.187929  5.5e-05  3.974071  0.0
C  C41  1  0.98251950  0.24744229  0.97450549  1  0.103658  0.239096  0.003862  3.998863  0.003
C  C42  1  0.94182010  0.39862813  0.76304576  1  0.247176  0.529097  0.017309  4.037315  0.016
N  N43  1  0.97568260  0.88219287  0.52120302  1  0.107897  0.704362  0.007438  4.405912  0.008
N  N44  1  0.74092144  0.45405719  0.54651298  1  -0.204316  -0.179399  0.025759  3.404937  0.015
N  N45  1  0.63379783  0.49368256  0.45073400  1  -0.28174  -0.199885  0.001479  3.625577  0.002
O  O46  1  0.01324760  0.48604323  0.67469298  1  -0.262586  -0.47813  0.033757  2.436965  0.016
O  O47  1  0.03838159  0.34561992  0.86717046  1  -0.112865  -0.200381  0.007264  2.569807  0.008
O  O48  1  0.89639078  0.54575083  0.30070589  1  -0.284368  -0.49601  0.043626  2.340129  0.029
O  O49  1  0.34030004  0.48214862  0.36111410  1  -0.342101  -0.5516  0.052953  2.365139  0.035
O  O50  1  0.88498618  0.79374500  0.48748810  1  -0.177215  -0.443309  0.035517  2.104027  0.022
O  O51  1  0.13472728  0.80040520  0.56499474  1  -0.162407  -0.416124  0.005526  1.986937  0.006
O  O52  1  0.89898312  0.05658068  0.50720347  1  -0.182984  -0.443093  0.007117  2.041022  0.008
O  O53  1  0.18805619  0.18753050  0.46638598  1  -0.405177  -0.467067  0.042755  2.525816  0.029
