# generated using pymatgen
data_Zn2H32C38N10O
_symmetry_space_group_name_H-M   'P 1'
_cell_length_a   19.96962129
_cell_length_b   20.00852920
_cell_length_c   20.72871181
_cell_angle_alpha   106.65232335
_cell_angle_beta   106.66057071
_cell_angle_gamma   113.60986902
_symmetry_Int_Tables_number   1
_chemical_formula_structural   Zn2H32C38N10O
_chemical_formula_sum   'Zn4 H64 C76 N20 O2'
_cell_volume   6465.95762344
_cell_formula_units_Z   2
loop_
 _symmetry_equiv_pos_site_id
 _symmetry_equiv_pos_as_xyz
  1  'x, y, z'
loop_
 _atom_site_type_symbol
 _atom_site_label
 _atom_site_symmetry_multiplicity
 _atom_site_fract_x
 _atom_site_fract_y
 _atom_site_fract_z
 _atom_site_occupancy
 _atom_site_pbe_bader_charge
 _atom_site_pbe_bader_spin_density
 _atom_site_pbe_cm5_charge
 _atom_site_pbe_ddec_charge
 _atom_site_pbe_ddec_spin_density
 _atom_site_pbe_ddec_sum_bond_order
 _atom_site_pbe_magmom
Zn  Zn0  1  0.61083322  0.61668247  0.49802083  1  1.197955  0  0.742552  0.635883  0  2.345933  0
Zn  Zn1  1  0.39777125  0.39640899  0.49851191  1  1.184169  0  0.748327  0.601753  0  2.500059  0
Zn  Zn2  1  0.51492809  0.59690534  0.60109853  1  1.188004  0  0.744007  0.608275  0  2.457397  0
Zn  Zn3  1  0.49608808  0.41788026  0.39575037  1  1.188731  0  0.743691  0.610471  0  2.449936  0
H  H4  1  0.78315652  0.64812478  0.61461897  1  0.128986  0  0.113527  0.097377  0  1.055485  0
H  H5  1  0.23882216  0.38241120  0.38821201  1  0.089845  0  0.120165  0.110353  0  0.992732  0
H  H6  1  0.52164643  0.77626532  0.65440028  1  0.07168  0  0.121106  0.111579  0  0.988766  0
H  H7  1  0.36534289  0.23756171  0.24396480  1  0.080637  0  0.118919  0.105993  0  0.998636  0
H  H8  1  0.24100536  0.19919474  0.38191692  1  0.076278  0  0.117718  0.104509  0  0.999137  0
H  H9  1  0.63227369  0.79329502  0.50377516  1  0.069529  0  0.1197  0.108748  0  0.989032  0
H  H10  1  0.35843106  0.40192845  0.25408912  1  0.078492  0  0.118032  0.104174  0  1.006223  0
H  H11  1  0.39486914  0.64670410  0.52115528  1  0.075287  0  0.117505  0.107151  0  1.016466  0
H  H12  1  0.05905382  0.43009905  0.47345722  1  0.035507  0  0.09119  0.08868  0  0.980828  0
H  H13  1  0.94488593  0.42885366  0.48373007  1  0.010652  0  0.091032  0.089494  0  0.978796  0
H  H14  1  0.02268222  0.64119101  0.50589638  1  0.017831  0  0.088588  0.08431  0  0.985047  0
H  H15  1  0.49829632  0.35218531  0.60931774  1  0.0868  0  0.120051  0.110391  0  0.990263  0
H  H16  1  0.01739712  0.58195434  0.55519931  1  0.009618  0  0.08993  0.086711  0  0.984153  0
H  H17  1  0.13467117  0.58369712  0.55300651  1  0.040457  0  0.091153  0.090203  0  0.979773  0
H  H18  1  0.14386655  0.64865801  0.50938973  1  0.036828  0  0.090574  0.088277  0  0.982864  0
H  H19  1  0.89655149  0.46221565  0.31163852  1  0.035037  0  0.091094  0.088547  0  0.978809  0
H  H20  1  0.94566724  0.56971861  0.36109776  1  0.028514  0  0.090706  0.088332  0  0.981043  0
H  H21  1  0.01925226  0.47979123  0.31003530  1  0.018177  0  0.0918  0.090057  0  0.981442  0
H  H22  1  0.88952655  0.37779570  0.38393405  1  0.015385  0  0.090224  0.087719  0  0.983336  0
H  H23  1  0.00640792  0.38670444  0.37388246  1  0.03165  0  0.09051  0.08773  0  0.981246  0
H  H24  1  0.07057989  0.58664931  0.36641606  1  -0.001836  0  0.090962  0.088891  0  0.980453  0
H  H25  1  0.65247461  0.08564943  0.68757339  1  0.024124  0  0.091222  0.089305  0  0.979563  0
H  H26  1  0.47837021  0.61476989  0.74792710  1  0.084446  0  0.119037  0.106041  0  0.997896  0
H  H27  1  0.67174343  0.20848069  0.68616128  1  -0.01486  0  0.091593  0.089556  0  0.979526  0
H  H28  1  0.62831023  0.12331405  0.48292757  1  0.036479  0  0.090409  0.088246  0  0.982076  0
H  H29  1  0.70711750  0.17926236  0.57717949  1  0.006521  0  0.091359  0.089684  0  0.980069  0
H  H30  1  0.68975923  0.05679953  0.57815978  1  0.027779  0  0.090248  0.087962  0  0.981269  0
H  H31  1  0.61124016  0.00099213  0.48388916  1  0.023876  0  0.089794  0.085526  0  0.983158  0
H  H32  1  0.45551210  0.09331308  0.53148346  1  0.037346  0  0.089893  0.087314  0  0.981741  0
H  H33  1  0.48064392  0.07280965  0.45613932  1  0.026974  0  0.091303  0.089252  0  0.978981  0
H  H34  1  0.43788426  0.97048053  0.53173874  1  0.033185  0  0.089598  0.086515  0  0.982585  0
H  H35  1  0.56890846  0.17485192  0.66782335  1  0.017726  0  0.090047  0.086904  0  0.982466  0
H  H36  1  0.54897558  0.05108879  0.66705998  1  0.028737  0  0.089576  0.086222  0  0.981256  0
H  H37  1  0.62782767  0.38078777  0.34539975  1  0.105169  0  0.120477  0.109461  0  0.98801  0
H  H38  1  0.46345262  0.95016082  0.45653935  1  0.014462  0  0.090403  0.088222  0  0.981601  0
H  H39  1  0.40864673  0.61202588  0.81965012  1  0.037784  0  0.096849  0.097126  0  1.006203  0
H  H40  1  0.38004330  0.61274743  0.92887146  1  0.081098  0  0.104513  0.105164  0  1.018211  0
H  H41  1  0.46588680  0.67392627  0.26407040  1  0.016114  0  0.096475  0.100182  0  1.013696  0
H  H42  1  0.30220166  0.35029063  0.72712994  1  0.025335  0  0.094574  0.096669  0  1.017503  0
H  H43  1  0.26381175  0.41555887  0.02626312  1  0.093419  0  0.103644  0.103971  0  1.01741  0
H  H44  1  0.29516256  0.41209205  0.14958820  1  0.031207  0  0.098288  0.100215  0  1.003098  0
H  H45  1  0.28475671  0.09628535  0.16527234  1  0.05875  0  0.097792  0.096113  0  1.004709  0
H  H46  1  0.31300321  0.35198595  0.61347164  1  0.092421  0  0.117976  0.106085  0  0.998414  0
H  H47  1  0.17625493  0.95866165  0.05829835  1  0.105216  0  0.101599  0.102028  0  1.021577  0
H  H48  1  0.03317680  0.80906644  0.86348422  1  0.083016  0  0.104308  0.114298  0  1.038274  0
H  H49  1  0.12482528  0.08016083  0.27047890  1  0.042527  0  0.09729  0.096393  0  1.005742  0
H  H50  1  0.01775190  0.94131903  0.16365630  1  0.078758  0  0.105482  0.108286  0  0.995622  0
H  H51  1  0.76040032  0.63351678  0.83870722  1  0.078783  0  0.108026  0.12727  0  0.993479  0
H  H52  1  0.78547086  0.64159797  0.49410374  1  0.036737  0  0.120349  0.109927  0  0.989285  0
H  H53  1  0.62507688  0.37415761  0.47121839  1  0.089898  0  0.118217  0.10806  0  1.016925  0
H  H54  1  0.64841231  0.60818361  0.74433065  1  0.08968  0  0.118855  0.106747  0  1.000251  0
H  H55  1  0.51894989  0.66664667  0.37771262  1  0.102736  0  0.115064  0.098832  0  1.018284  0
H  H56  1  0.47537694  0.75215713  0.19819624  1  0.009192  0  0.087153  0.120185  0  1.00487  0
H  H57  1  0.48632527  0.70412166  0.11827028  1  0.05426  0  0.094365  0.131863  0  0.993416  0
H  H58  1  0.39700341  0.70793806  0.10403809  1  0.036757  0  0.093702  0.130597  0  0.997008  0
H  H59  1  0.24762692  0.27668202  0.78643478  1  0.013971  0  0.08616  0.118696  0  1.006278  0
H  H60  1  0.29365817  0.33146648  0.88735733  1  0.077897  0  0.094478  0.131416  0  1.000933  0
H  H61  1  0.19751551  0.31387973  0.83193970  1  0.058828  0  0.094225  0.132386  0  0.990482  0
H  H62  1  0.02927159  0.73994727  0.75083599  1  0.050588  0  0.100236  0.09833  0  0.9844  0
H  H63  1  0.02102677  0.82801301  0.76002114  1  0.055049  0  0.098768  0.096273  0  0.984341  0
H  H64  1  0.98207323  0.74778810  0.66776364  1  0.058803  0  0.108496  0.112034  0  0.976172  0
H  H65  1  0.97408054  0.76599354  0.07573117  1  0.119068  0  0.094411  0.09005  0  1.048786  0
H  H66  1  0.97093304  0.68536844  0.00634622  1  0.045521  0  0.098328  0.097139  0  0.987445  0
H  H67  1  0.90053108  0.66005257  0.04592228  1  0.055443  0  0.103573  0.107609  0  0.975289  0
C  C68  1  0.73835974  0.63450900  0.63590003  1  0.403575  0  0.011114  -0.037838  0  3.951166  0
C  C69  1  0.57421485  0.34131216  0.54922073  1  0.095917  0  -0.027969  0.057955  0  4.185465  0
C  C70  1  0.38357516  0.48215057  0.70628922  1  0.045341  0  -0.036778  -0.039793  0  4.089548  0
C  C71  1  0.73764483  0.50912286  0.42175211  1  0.165247  0  -0.031086  0.050183  0  4.205493  0
C  C72  1  0.48633012  0.60072218  0.35744835  1  0.376048  0  0.012015  -0.039639  0  3.949731  0
C  C73  1  0.28874630  0.44576752  0.42486262  1  0.40054  0  0.013536  -0.048746  0  3.939316  0
C  C74  1  0.54986841  0.76878188  0.61734760  1  0.438461  0  0.01032  -0.062023  0  3.980267  0
C  C75  1  0.34493609  0.24088817  0.28742439  1  0.423865  0  0.006382  -0.057376  0  3.996419  0
C  C76  1  0.28111094  0.22173141  0.35736899  1  0.377648  0  0.007632  -0.054671  0  3.995197  0
C  C77  1  0.60630419  0.77706883  0.54031137  1  0.413015  0  0.011  -0.05443  0  3.974668  0
C  C78  1  0.40410277  0.46573225  0.29439452  1  0.445069  0  0.012115  -0.042362  0  3.954191  0
C  C79  1  0.52376776  0.36519224  0.57153503  1  0.430544  0  0.013892  -0.048945  0  3.938957  0
C  C80  1  0.36851179  0.58094339  0.49305789  1  0.42947  0  0.013513  -0.042205  0  3.915391  0
C  C81  1  0.42057120  0.53746399  0.28627047  1  0.021626  0  -0.034156  -0.041526  0  4.058946  0
C  C82  1  0.28574175  0.51761558  0.44529729  1  0.156937  0  -0.028488  0.055447  0  4.186556  0
C  C83  1  0.57230064  0.81375919  0.57801221  1  0.140462  0  -0.032673  0.050412  0  4.207213  0
C  C84  1  0.27536380  0.18169434  0.28627685  1  0.03227  0  -0.037217  -0.042951  0  4.101226  0
C  C85  1  0.94603109  0.43256551  0.43211866  1  -1e-06  0  -0.156202  -0.185822  0  3.853748  0
C  C86  1  0.02239002  0.58579661  0.50475728  1  0.004475  0  -0.156516  -0.184484  0  3.852094  0
C  C87  1  0.10139677  0.58960182  0.50464783  1  -0.047531  0  -0.155852  -0.186772  0  3.847274  0
C  C88  1  0.21491697  0.52244336  0.43256803  1  -0.380897  0  -0.071336  -0.134643  0  4.214593  0
C  C89  1  0.94519925  0.50993170  0.43324135  1  0.124824  0  -0.00156  0.181438  0  3.89935  0
C  C90  1  0.44136312  0.55092264  0.70543241  1  0.404323  0  0.00827  -0.0545  0  3.994311  0
C  C91  1  0.02328801  0.43659452  0.42692822  1  -0.038379  0  -0.155597  -0.182989  0  3.845296  0
C  C92  1  0.07956620  0.51956774  0.43058406  1  0.144241  0  -0.00196  0.183604  0  3.89566  0
C  C93  1  0.03135961  0.52684041  0.36248242  1  0.017302  0  -0.156884  -0.186776  0  3.860621  0
C  C94  1  0.95047602  0.51716413  0.36206724  1  -0.028842  0  -0.155991  -0.181979  0  3.849206  0
C  C95  1  0.15344121  0.52308411  0.42974916  1  0.013214  0  -0.05532  -0.133109  0  4.098063  0
C  C96  1  0.87067070  0.50611510  0.43251558  1  -0.039155  0  -0.055208  -0.133134  0  4.097956  0
C  C97  1  0.80810884  0.50600726  0.42645001  1  -0.370563  0  -0.074074  -0.138488  0  4.222379  0
C  C98  1  0.60786491  0.15766941  0.64804581  1  0.022605  0  -0.155917  -0.183156  0  3.853566  0
C  C99  1  0.64309444  0.12834127  0.54008533  1  -0.012208  0  -0.155987  -0.186199  0  3.856117  0
C  C100  1  0.63171237  0.04737564  0.54069168  1  -0.0289  0  -0.155293  -0.181346  0  3.84794  0
C  C101  1  0.65442925  0.44534345  0.38164946  1  0.391962  0  0.011004  -0.05679  0  3.975943  0
C  C102  1  0.56461026  0.88012304  0.57542047  1  -0.423403  0  -0.074123  -0.140152  0  4.223467  0
C  C103  1  0.58644618  0.14965886  0.56719114  1  0.126799  0  -0.002605  0.181178  0  3.901184  0
C  C104  1  0.59540710  0.07637956  0.64835667  1  -0.023219  0  -0.15552  -0.183156  0  3.849945  0
C  C105  1  0.56692054  0.01191866  0.56794544  1  0.147682  0  -0.001524  0.182623  0  3.895651  0
C  C106  1  0.48464786  0.99651583  0.51360634  1  -0.032648  0  -0.156079  -0.18549  0  3.852085  0
C  C107  1  0.49614915  0.07773534  0.51331395  1  -0.036966  0  -0.155079  -0.182278  0  3.839614  0
C  C108  1  0.56064247  0.93762304  0.57000560  1  0.026036  0  -0.055306  -0.132251  0  4.096135  0
C  C109  1  0.59435579  0.22487293  0.56637660  1  -0.359925  0  -0.054464  -0.132659  0  4.098961  0
C  C110  1  0.59181397  0.28332235  0.56206169  1  0.002405  0  -0.071529  -0.135517  0  4.212875  0
C  C111  1  0.38725446  0.54233114  0.21634661  1  -0.028175  0  -0.004309  0.104122  0  4.044073  0
C  C112  1  0.35789811  0.41690521  0.63740471  1  0.378822  0  0.006846  -0.056458  0  3.991003  0
C  C113  1  0.32602064  0.47023261  0.14819326  1  -0.05481  0  -0.098216  -0.14106  0  4.008437  0
C  C114  1  0.30756187  0.47163828  0.07925082  1  0.008414  0  -0.088543  -0.134718  0  4.016216  0
C  C115  1  0.34829595  0.54541749  0.07553134  1  0.362103  0  0.078804  0.096549  0  4.029798  0
C  C116  1  0.40185639  0.62022840  0.14330959  1  0.024788  0  0.001488  0.127867  0  3.936555  0
C  C117  1  0.42061752  0.61677727  0.21211876  1  -0.025817  0  -0.100272  -0.206976  0  3.944092  0
C  C118  1  0.36252718  0.55568690  0.88347980  1  -0.024761  0  -0.089559  -0.134642  0  4.010753  0
C  C119  1  0.37913631  0.55488048  0.82305966  1  -0.020928  0  -0.099904  -0.142117  0  4.017526  0
C  C120  1  0.32447666  0.48257299  0.88898663  1  0.354575  0  0.078941  0.097899  0  4.027368  0
C  C121  1  0.35928513  0.48110347  0.76609618  1  0.024798  0  -0.008237  0.096934  0  4.062549  0
C  C122  1  0.31813590  0.40809305  0.77052955  1  -0.033191  0  -0.100742  -0.207323  0  3.957674  0
C  C123  1  0.73472111  0.57859153  0.45753519  1  0.462133  0  0.012079  -0.05164  0  3.972629  0
C  C124  1  0.29968033  0.40695887  0.83036659  1  -0.007333  0  0.000544  0.128678  0  3.93953  0
C  C125  1  0.82441340  0.67614173  0.77709680  1  0.052244  0  -0.00682  0.026127  0  4.016548  0
C  C126  1  0.81970229  0.67222842  0.84235193  1  0.008945  0  -0.10529  -0.243617  0  3.985932  0
C  C127  1  0.88748654  0.71603966  0.91368319  1  0.475454  0  0.086029  0.190814  0  4.037518  0
C  C128  1  0.96512817  0.77193706  0.92193177  1  0.42563  0  0.071771  0.075497  0  4.069574  0
C  C129  1  0.97231666  0.76749009  0.85508026  1  -0.058616  0  -0.111491  -0.281399  0  4.023819  0
C  C130  1  0.90466806  0.72075045  0.78413555  1  0.459953  0  0.071034  0.18949  0  4.045191  0
C  C131  1  0.16613922  0.98589430  0.10536915  1  -0.003708  0  -0.090808  -0.140327  0  3.984984  0
C  C132  1  0.22594389  0.06292595  0.16499550  1  -0.065958  0  -0.095397  -0.127456  0  3.997977  0
C  C133  1  0.09009315  0.94168115  0.10439109  1  0.34168  0  0.078855  0.161974  0  4.065542  0
C  C134  1  0.58828794  0.37600615  0.50060358  1  0.446978  0  0.01474  -0.043447  0  3.919529  0
C  C135  1  0.21272106  0.09924195  0.22558655  1  -0.016816  0  -0.009398  0.086801  0  4.045454  0
C  C136  1  0.13716974  0.05369326  0.22476198  1  0.019463  0  -0.098002  -0.134719  0  4.005652  0
C  C137  1  0.07705165  0.97616144  0.16537514  1  -0.094115  0  -0.087533  -0.14329  0  3.994341  0
C  C138  1  0.66983974  0.61371806  0.70245797  1  0.416497  0  0.012835  -0.043621  0  3.948601  0
C  C139  1  0.74934679  0.64049473  0.70815965  1  0.012953  0  -0.032119  -0.021542  0  4.041549  0
C  C140  1  0.44238254  0.70063701  0.14118243  1  -0.022134  0  -0.237778  -0.409109  0  4.004973  0
C  C141  1  0.25742956  0.32775679  0.83393993  1  -0.093809  0  -0.237868  -0.409733  0  4.004983  0
C  C142  1  0.99054428  0.76129492  0.72559644  1  0.397798  0  -0.133132  -0.168716  0  3.938714  0
C  C143  1  0.93367170  0.70384952  0.02811530  1  0.348204  0  -0.140711  -0.16924  0  3.928701  0
N  N144  1  0.65958761  0.60781416  0.59241594  1  -0.784406  0  -0.279553  -0.182481  0  3.60836  0
N  N145  1  0.36688556  0.46545628  0.45990165  1  -0.815631  0  -0.289378  -0.192961  0  3.652045  0
N  N146  1  0.56869021  0.71028271  0.60364726  1  -0.786049  0  -0.271986  -0.181482  0  3.534938  0
N  N147  1  0.38813891  0.30977981  0.35347740  1  -0.805772  0  -0.268585  -0.170217  0  3.545057  0
N  N148  1  0.34844435  0.29780559  0.39717903  1  -0.804468  0  -0.269894  -0.171052  0  3.550759  0
N  N149  1  0.60398239  0.71566522  0.55577917  1  -0.782413  0  -0.268026  -0.184666  0  3.537429  0
N  N150  1  0.45683505  0.48544549  0.36379611  1  -0.800889  0  -0.281861  -0.174398  0  3.638189  0
N  N151  1  0.41598200  0.54841639  0.50190036  1  -0.788906  0  -0.281984  -0.188676  0  3.611509  0
N  N152  1  0.34564322  0.54908899  0.00831496  1  -0.511996  0  -0.160337  -0.13925  0  3.299503  0
N  N153  1  0.31575973  0.47967043  0.95306680  1  -0.52117  0  -0.162805  -0.144495  0  3.316773  0
N  N154  1  0.03392471  0.84002967  0.98692980  1  -0.515854  0  -0.169246  -0.141789  0  3.342124  0
N  N155  1  0.50744753  0.40823731  0.53679743  1  -0.791583  0  -0.289026  -0.193896  0  3.646665  0
N  N156  1  0.02249899  0.86605790  0.04428054  1  -0.488661  0  -0.166665  -0.155911  0  3.308399  0
N  N157  1  0.44899599  0.52850596  0.64163479  1  -0.813188  0  -0.270107  -0.16981  0  3.549321  0
N  N158  1  0.60655644  0.47459912  0.39327592  1  -0.78507  0  -0.272859  -0.185107  0  3.532936  0
N  N159  1  0.39684902  0.44492100  0.59902313  1  -0.785748  0  -0.268246  -0.170485  0  3.545698  0
N  N160  1  0.65670222  0.55770639  0.44048314  1  -0.802419  0  -0.269533  -0.187084  0  3.532478  0
N  N161  1  0.54700813  0.41490949  0.49315886  1  -0.790971  0  -0.282489  -0.185459  0  3.606178  0
N  N162  1  0.61760723  0.59528878  0.63348913  1  -0.797412  0  -0.283241  -0.173504  0  3.64573  0
N  N163  1  0.50737711  0.56846972  0.40268611  1  -0.778637  0  -0.275152  -0.175823  0  3.604154  0
O  O164  1  0.91020185  0.71815586  0.71898110  1  -1.07296  0  -0.187392  -0.156748  0  2.591059  0
O  O165  1  0.87177342  0.70131563  0.96960881  1  -1.071354  0  -0.19319  -0.164714  0  2.574004  0
