# generated using pymatgen
data_ZnH10C17N3O4
_symmetry_space_group_name_H-M   'P 1'
_cell_length_a   13.98891880
_cell_length_b   15.14636819
_cell_length_c   15.21361679
_cell_angle_alpha   76.23882658
_cell_angle_beta   86.27444256
_cell_angle_gamma   82.75769583
_symmetry_Int_Tables_number   1
_chemical_formula_structural   ZnH10C17N3O4
_chemical_formula_sum   'Zn4 H40 C68 N12 O16'
_cell_volume   3103.92574438
_cell_formula_units_Z   4
loop_
 _symmetry_equiv_pos_site_id
 _symmetry_equiv_pos_as_xyz
  1  'x, y, z'
loop_
 _atom_site_type_symbol
 _atom_site_label
 _atom_site_symmetry_multiplicity
 _atom_site_fract_x
 _atom_site_fract_y
 _atom_site_fract_z
 _atom_site_occupancy
 _atom_site_pbe_bader_charge
 _atom_site_pbe_bader_spin_density
 _atom_site_pbe_cm5_charge
 _atom_site_pbe_ddec_charge
 _atom_site_pbe_ddec_spin_density
 _atom_site_pbe_ddec_sum_bond_order
 _atom_site_pbe_magmom
Zn  Zn0  1  0.89596936  0.10888087  0.82932347  1  1.29392  0  0.672122  0.827763  0  2.389561  0
Zn  Zn1  1  0.68971240  0.13097967  0.83602585  1  1.289102  0  0.668759  0.825759  0  2.418487  0
Zn  Zn2  1  0.10403212  0.89111742  0.17067771  1  1.293984  0  0.672126  0.827805  0  2.389532  0
Zn  Zn3  1  0.31028733  0.86902137  0.16397282  1  1.289092  0  0.668746  0.825708  0  2.418489  0
H  H4  1  0.21059035  0.12480083  0.97240060  1  0.112987  0  0.111926  0.118341  0  1.024091  0
H  H5  1  0.23648318  0.11747802  0.68881783  1  0.09924  0  0.117499  0.125096  0  0.984269  0
H  H6  1  0.35740053  0.06562504  0.97600317  1  0.104415  0  0.113073  0.125827  0  1.023178  0
H  H7  1  0.94210648  0.11145511  0.09911732  1  0.114503  0  0.107634  0.110217  0  1.023513  0
H  H8  1  0.94865692  0.11718283  0.25944148  1  0.074758  0  0.107096  0.113711  0  1.014734  0
H  H9  1  0.63451458  0.11186350  0.13660350  1  0.075059  0  0.108642  0.081808  0  0.986312  0
H  H10  1  0.03620176  0.11029642  0.96744016  1  0.149848  0  0.125527  0.103238  0  1.0005  0
H  H11  1  0.05895730  0.11056314  0.69470873  1  0.125589  0  0.126077  0.098938  0  0.983093  0
H  H12  1  0.64695625  0.17038426  0.54115762  1  0.098789  0  0.112356  0.082774  0  0.985206  0
H  H13  1  0.94845551  0.07208080  0.55718431  1  0.090477  0  0.105225  0.102516  0  1.015309  0
H  H14  1  0.63321510  0.41342877  0.83084383  1  0.113814  0  0.110862  0.115808  0  0.985345  0
H  H15  1  0.94781196  0.06349989  0.39536600  1  0.054012  0  0.10337  0.106779  0  1.026595  0
H  H16  1  0.63132719  0.57609609  0.83957337  1  0.068375  0  0.104682  0.10806  0  1.013147  0
H  H17  1  0.94942493  0.79920931  0.85615083  1  0.071564  0  0.110618  0.082042  0  1.010673  0
H  H18  1  0.63473135  0.71071381  0.80959907  1  0.057846  0  0.108025  0.114028  0  1.006307  0
H  H19  1  0.64342522  0.86833312  0.82865847  1  0.103504  0  0.110309  0.11669  0  0.984477  0
H  H20  1  0.53363719  0.07972370  0.97236494  1  0.130168  0  0.122037  0.095576  0  1.013904  0
H  H21  1  0.94028052  0.40210015  0.78446710  1  0.114215  0  0.114791  0.089309  0  0.97487  0
H  H22  1  0.36281722  0.19012508  0.68819100  1  0.10027  0  0.118672  0.124856  0  0.985687  0
H  H23  1  0.54030713  0.19090415  0.69662714  1  0.142757  0  0.129056  0.105484  0  0.985221  0
H  H24  1  0.78940740  0.87520499  0.02760103  1  0.112953  0  0.111916  0.118296  0  1.024153  0
H  H25  1  0.76351718  0.88251754  0.31118404  1  0.09922  0  0.117492  0.125101  0  0.98424  0
H  H26  1  0.64260000  0.93438143  0.02400011  1  0.104391  0  0.113071  0.125791  0  1.023309  0
H  H27  1  0.05788879  0.88854120  0.90087810  1  0.114527  0  0.107702  0.110209  0  1.023551  0
H  H28  1  0.05134186  0.88281413  0.74055556  1  0.074682  0  0.107067  0.113635  0  1.01483  0
H  H29  1  0.36548108  0.88813550  0.86339850  1  0.075156  0  0.108622  0.081831  0  0.986243  0
H  H30  1  0.96379584  0.88971078  0.03255853  1  0.150492  0  0.125527  0.103249  0  1.000458  0
H  H31  1  0.94104258  0.88943037  0.30529299  1  0.125716  0  0.126078  0.098888  0  0.983164  0
H  H32  1  0.35304133  0.82961680  0.45884117  1  0.098827  0  0.112363  0.082783  0  0.98525  0
H  H33  1  0.05154192  0.92792163  0.44281417  1  0.090448  0  0.105218  0.102477  0  1.015254  0
H  H34  1  0.36678838  0.58657089  0.16915363  1  0.113743  0  0.110848  0.115824  0  0.985394  0
H  H35  1  0.05218633  0.93650115  0.60463472  1  0.053979  0  0.103381  0.106813  0  1.026545  0
H  H36  1  0.36867636  0.42390289  0.16042292  1  0.068335  0  0.104663  0.108024  0  1.013096  0
H  H37  1  0.05057782  0.20079034  0.14384996  1  0.071605  0  0.110605  0.082032  0  1.010664  0
H  H38  1  0.36527213  0.28928586  0.19039773  1  0.057827  0  0.107984  0.113977  0  1.006336  0
H  H39  1  0.35657618  0.13166589  0.17133663  1  0.103488  0  0.110311  0.116707  0  0.984433  0
H  H40  1  0.46636358  0.92028074  0.02763617  1  0.130222  0  0.122004  0.095512  0  1.013894  0
H  H41  1  0.05972454  0.59789810  0.21553585  1  0.114297  0  0.114814  0.089309  0  0.974911  0
H  H42  1  0.63718139  0.80987322  0.31181100  1  0.100208  0  0.118642  0.124835  0  0.985636  0
H  H43  1  0.45969109  0.80909759  0.30337211  1  0.142648  0  0.129058  0.105446  0  0.985239  0
C  C44  1  0.34401033  0.12737251  0.83175267  1  -0.02076  0  0.020962  0.113221  0  3.966046  0
C  C45  1  0.23945198  0.12253632  0.83063031  1  -0.038578  0  0.017899  0.101782  0  3.97823  0
C  C46  1  0.18098672  0.12061917  0.90933501  1  -0.058333  0  -0.071529  -0.154295  0  3.907645  0
C  C47  1  0.78112061  0.11001590  0.00760908  1  1.573501  0  0.212483  0.588796  0  4.198041  0
C  C48  1  0.79514440  0.12556160  0.65914681  1  1.581311  0  0.215752  0.597906  0  4.180628  0
C  C49  1  0.19499034  0.11866002  0.75169970  1  -0.01327  0  -0.071443  -0.16369  0  3.934188  0
C  C50  1  0.39389048  0.09612657  0.91258775  1  -0.008727  0  -0.073546  -0.166492  0  3.917225  0
C  C51  1  0.79062660  0.29562401  0.80952115  1  1.574826  0  0.21388  0.597885  0  4.184139  0
C  C52  1  0.78723352  0.11197339  0.10487644  1  -0.006134  0  -0.019717  -0.087269  0  3.968682  0
C  C53  1  0.87621450  0.11309747  0.14108253  1  -0.021324  0  -0.068676  -0.043466  0  3.960556  0
C  C54  1  0.87954502  0.11496111  0.23146091  1  -0.082149  0  -0.084217  -0.167009  0  3.955752  0
C  C55  1  0.79716124  0.84603096  0.84448919  1  -0.029845  0  -0.024698  -0.097023  0  3.986379  0
C  C56  1  0.70519651  0.11242630  0.16311651  1  0.526426  0  0.046478  0.078096  0  3.981416  0
C  C57  1  0.79576773  0.11556114  0.38215854  1  0.523496  0  0.12127  0.180694  0  3.984314  0
C  C58  1  0.78709632  0.39513512  0.80801934  1  -0.043901  0  -0.015083  -0.078789  0  3.955715  0
C  C59  1  0.08330855  0.11355760  0.90716243  1  0.50485  0  0.063812  0.116882  0  3.887834  0
C  C60  1  0.09653900  0.11308948  0.75450353  1  0.494919  0  0.06026  0.106879  0  3.925812  0
C  C61  1  0.79360982  0.11449866  0.28483021  1  0.573378  0  0.120804  0.176906  0  3.988585  0
C  C62  1  0.71484370  0.14688219  0.50972519  1  0.54365  0  0.052954  0.088364  0  3.968242  0
C  C63  1  0.79758496  0.12206191  0.56153477  1  -0.021321  0  -0.016585  -0.082708  0  3.961004  0
C  C64  1  0.88292030  0.09200984  0.51897982  1  -0.068929  0  -0.07084  -0.045081  0  3.977437  0
C  C65  1  0.80397943  0.94182061  0.85174971  1  1.556651  0  0.207496  0.577313  0  4.213671  0
C  C66  1  0.69935684  0.44606724  0.82214341  1  -0.001122  0  -0.069855  -0.049277  0  3.976799  0
C  C67  1  0.88210265  0.08797572  0.42890753  1  -0.03795  0  -0.089027  -0.173505  0  3.96983  0
C  C68  1  0.78909264  0.67051296  0.82503421  1  0.510215  0  0.126184  0.183182  0  3.973504  0
C  C69  1  0.69903221  0.53654377  0.82650381  1  -0.084697  0  -0.087469  -0.171457  0  3.977778  0
C  C70  1  0.87837388  0.78097271  0.84650677  1  0.549442  0  0.049111  0.079164  0  3.97306  0
C  C71  1  0.70364997  0.73128631  0.82149749  1  -0.045296  0  -0.088031  -0.172126  0  3.967096  0
C  C72  1  0.70782006  0.81924411  0.83169171  1  -0.021748  0  -0.07193  -0.049564  0  3.976051  0
C  C73  1  0.78679143  0.57488577  0.81647608  1  0.52954  0  0.121788  0.178941  0  3.983442  0
C  C74  1  0.49223601  0.10191692  0.91115106  1  0.458845  0  0.055513  0.097644  0  3.918684  0
C  C75  1  0.87072118  0.43974259  0.79668847  1  0.555031  0  0.05639  0.089224  0  3.956388  0
C  C76  1  0.39733827  0.16310474  0.75273465  1  -0.017004  0  -0.071604  -0.165378  0  3.928699  0
C  C77  1  0.49590958  0.16523291  0.75662224  1  0.488577  0  0.062601  0.10728  0  3.914728  0
C  C78  1  0.65598883  0.87262715  0.16825030  1  -0.020635  0  0.020998  0.113317  0  3.965994  0
C  C79  1  0.76054726  0.87746267  0.16937084  1  -0.038825  0  0.017875  0.101727  0  3.978247  0
C  C80  1  0.81901286  0.87938324  0.09066401  1  -0.058225  0  -0.071548  -0.154238  0  3.907697  0
C  C81  1  0.21887450  0.88998175  0.99238998  1  1.573597  0  0.212576  0.588968  0  4.198006  0
C  C82  1  0.20485143  0.87444219  0.34085276  1  1.581346  0  0.215775  0.597884  0  4.180623  0
C  C83  1  0.80500899  0.88133828  0.24830226  1  -0.013394  0  -0.071471  -0.163764  0  3.934232  0
C  C84  1  0.60610981  0.90387582  0.08741321  1  -0.008579  0  -0.073565  -0.166509  0  3.917313  0
C  C85  1  0.20937192  0.70437496  0.19048333  1  1.574675  0  0.213903  0.597721  0  4.184203  0
C  C86  1  0.21276350  0.88802630  0.89512270  1  -0.00613  0  -0.019638  -0.087253  0  3.968783  0
C  C87  1  0.12377917  0.88690020  0.85891596  1  -0.021354  0  -0.068816  -0.043423  0  3.960544  0
C  C88  1  0.12045295  0.88503653  0.76853799  1  -0.082213  0  -0.084193  -0.166979  0  3.955669  0
C  C89  1  0.20284167  0.15396732  0.15551125  1  -0.029896  0  -0.024709  -0.097022  0  3.986122  0
C  C90  1  0.29479828  0.88757408  0.83688391  1  0.526382  0  0.046523  0.078076  0  3.981511  0
C  C91  1  0.20423151  0.88443785  0.61784129  1  0.523494  0  0.121264  0.180727  0  3.984094  0
C  C92  1  0.21290873  0.60486314  0.19198427  1  -0.043867  0  -0.015077  -0.078502  0  3.955477  0
C  C93  1  0.91668959  0.88644480  0.09283864  1  0.504131  0  0.063818  0.116873  0  3.888051  0
C  C94  1  0.90346071  0.88690539  0.24550052  1  0.494911  0  0.06037  0.107111  0  3.925684  0
C  C95  1  0.20638871  0.88550034  0.71516966  1  0.573395  0  0.120831  0.176882  0  3.988441  0
C  C96  1  0.28515539  0.85311816  0.49027631  1  0.543706  0  0.052941  0.088303  0  3.968212  0
C  C97  1  0.20241103  0.87794052  0.43846380  1  -0.021673  0  -0.016591  -0.082652  0  3.960944  0
C  C98  1  0.11708007  0.90799187  0.48102129  1  -0.068699  0  -0.070889  -0.045127  0  3.977735  0
C  C99  1  0.19602356  0.05817699  0.14825088  1  1.556723  0  0.207561  0.577461  0  4.213722  0
C  C100  1  0.30064965  0.55393102  0.17785749  1  -0.001152  0  -0.069866  -0.049443  0  3.976916  0
C  C101  1  0.11789486  0.91202602  0.57109045  1  -0.037899  0  -0.088999  -0.173514  0  3.969858  0
C  C102  1  0.21091083  0.32948670  0.17496391  1  0.510449  0  0.126196  0.183255  0  3.973445  0
C  C103  1  0.30096911  0.46345589  0.17349640  1  -0.084508  0  -0.087465  -0.171387  0  3.977745  0
C  C104  1  0.12162808  0.21902763  0.15349259  1  0.549636  0  0.049076  0.079038  0  3.973029  0
C  C105  1  0.29635343  0.26871404  0.17849916  1  -0.045355  0  -0.087957  -0.17207  0  3.967047  0
C  C106  1  0.29218270  0.18075556  0.16830513  1  -0.021791  0  -0.071926  -0.049561  0  3.975771  0
C  C107  1  0.21321197  0.42511457  0.18352189  1  0.529033  0  0.121776  0.178901  0  3.983403  0
C  C108  1  0.50776491  0.89808615  0.08885036  1  0.458817  0  0.055536  0.097685  0  3.918643  0
C  C109  1  0.12928077  0.56025775  0.20331286  1  0.555006  0  0.056378  0.089163  0  3.956241  0
C  C110  1  0.60266011  0.83689562  0.24726623  1  -0.016968  0  -0.07161  -0.165431  0  3.9286  0
C  C111  1  0.50408935  0.83476881  0.24337829  1  0.488654  0  0.062607  0.107377  0  3.91479  0
N  N112  1  0.54274477  0.13506841  0.83456359  1  -1.22551  0  -0.319828  -0.199439  0  3.517257  0
N  N113  1  0.04172344  0.10998106  0.83098314  1  -1.252402  0  -0.320263  -0.203157  0  3.525893  0
N  N114  1  0.70732706  0.11299200  0.25058928  1  -1.192887  0  -0.320696  -0.297263  0  3.301356  0
N  N115  1  0.87531720  0.69590696  0.83740209  1  -1.154605  0  -0.312548  -0.276112  0  3.284413  0
N  N116  1  0.71308760  0.14444472  0.42272658  1  -1.158491  0  -0.316295  -0.286431  0  3.288455  0
N  N117  1  0.87138778  0.52679554  0.80056229  1  -1.167707  0  -0.315873  -0.285892  0  3.286284  0
N  N118  1  0.45725560  0.86493331  0.16543686  1  -1.22553  0  -0.319761  -0.199376  0  3.517244  0
N  N119  1  0.95827755  0.89001518  0.16901854  1  -1.252323  0  -0.320316  -0.203301  0  3.526011  0
N  N120  1  0.29266989  0.88700836  0.74941168  1  -1.192797  0  -0.320727  -0.297248  0  3.30131  0
N  N121  1  0.12468556  0.30409271  0.16259541  1  -1.154819  0  -0.312587  -0.276123  0  3.284467  0
N  N122  1  0.28691070  0.85555633  0.57727151  1  -1.158496  0  -0.316286  -0.286409  0  3.288541  0
N  N123  1  0.12861490  0.47320481  0.19943572  1  -1.167428  0  -0.315822  -0.285855  0  3.286163  0
O  O124  1  0.69851371  0.10867761  0.97780819  1  -1.166919  0  -0.315666  -0.553869  0  2.317872  0
O  O125  1  0.86080822  0.10981889  0.96175114  1  -1.17659  0  -0.313786  -0.553969  0  2.371802  0
O  O126  1  0.71364461  0.14519912  0.69619812  1  -1.164324  0  -0.313063  -0.552113  0  2.318476  0
O  O127  1  0.87591958  0.10688989  0.69786801  1  -1.168569  0  -0.316802  -0.549621  0  2.334996  0
O  O128  1  0.88692394  0.96615876  0.85696013  1  -1.162225  0  -0.312769  -0.545684  0  2.298848  0
O  O129  1  0.71001494  0.26229158  0.82523964  1  -1.172182  0  -0.322202  -0.549673  0  2.338518  0
O  O130  1  0.87199467  0.25163779  0.79747382  1  -1.169111  0  -0.317761  -0.549806  0  2.301014  0
O  O131  1  0.72372564  0.99250725  0.85161443  1  -1.177276  0  -0.32219  -0.564614  0  2.369614  0
O  O132  1  0.30148355  0.89132004  0.02218943  1  -1.166823  0  -0.315692  -0.553904  0  2.317778  0
O  O133  1  0.13918783  0.89017671  0.03824900  1  -1.176731  0  -0.313849  -0.55411  0  2.371842  0
O  O134  1  0.28635418  0.85480398  0.30380012  1  -1.164269  0  -0.313096  -0.552106  0  2.318241  0
O  O135  1  0.12407936  0.89311183  0.30213384  1  -1.168669  0  -0.316772  -0.549584  0  2.335193  0
O  O136  1  0.11308105  0.03384020  0.14304069  1  -1.16219  0  -0.312864  -0.545793  0  2.298849  0
O  O137  1  0.28998916  0.73770874  0.17476158  1  -1.172182  0  -0.322263  -0.549696  0  2.338462  0
O  O138  1  0.12800991  0.74835844  0.20252766  1  -1.168967  0  -0.317725  -0.549715  0  2.30118  0
O  O139  1  0.27627775  0.00749309  0.14838353  1  -1.177396  0  -0.322164  -0.564631  0  2.369811  0
