# generated using pymatgen
data_AgH6C5N3O5
_symmetry_space_group_name_H-M   'P 1'
_cell_length_a   4.84922317
_cell_length_b   12.34579335
_cell_length_c   14.86556798
_cell_angle_alpha   112.64861991
_cell_angle_beta   89.99972589
_cell_angle_gamma   90.00009553
_symmetry_Int_Tables_number   1
_chemical_formula_structural   AgH6C5N3O5
_chemical_formula_sum   'Ag4 H24 C20 N12 O20'
_cell_volume   821.33379922
_cell_formula_units_Z   4
loop_
 _symmetry_equiv_pos_site_id
 _symmetry_equiv_pos_as_xyz
  1  'x, y, z'
loop_
 _atom_site_type_symbol
 _atom_site_label
 _atom_site_symmetry_multiplicity
 _atom_site_fract_x
 _atom_site_fract_y
 _atom_site_fract_z
 _atom_site_occupancy
 _atom_site_hle17_bader_spin_density
 _atom_site_hle17_ddec_charge
 _atom_site_hle17_ddec_spin_density
 _atom_site_hle17_ddec_sum_bond_order
 _atom_site_hle17_magmom
 _atom_site_hse06_10hf_bader_spin_density
 _atom_site_hse06_10hf_ddec_charge
 _atom_site_hse06_10hf_ddec_spin_density
 _atom_site_hse06_10hf_ddec_sum_bond_order
 _atom_site_hse06_10hf_magmom
 _atom_site_hse06_bader_spin_density
 _atom_site_hse06_ddec_charge
 _atom_site_hse06_ddec_spin_density
 _atom_site_hse06_ddec_sum_bond_order
 _atom_site_hse06_magmom
 _atom_site_pbe_bader_spin_density
 _atom_site_pbe_cm5_charge
 _atom_site_pbe_ddec_charge
 _atom_site_pbe_ddec_spin_density
 _atom_site_pbe_ddec_sum_bond_order
 _atom_site_pbe_magmom
Ag  Ag0  1  0.88416944  0.18976870  0.75896452  1  0  0.600884  0  1.376831  0  0  0.486164  0  1.824643  0  0  0.522064  0  1.760601  0  0  0.40749  0.460731  0  1.869462  0
Ag  Ag1  1  0.38417016  0.31023008  0.74103544  1  0  0.600849  0  1.376874  0  0  0.486139  0  1.824699  0  0  0.522006  0  1.760683  0  0  0.407483  0.460701  0  1.869521  0
Ag  Ag2  1  0.11583499  0.81023153  0.24103804  1  0  0.600878  0  1.376831  0  0  0.486161  0  1.824654  0  0  0.522031  0  1.760651  0  0  0.407478  0.460721  0  1.869476  0
Ag  Ag3  1  0.61583428  0.68977103  0.25896471  1  0  0.600865  0  1.376849  0  0  0.486157  0  1.824683  0  0  0.522024  0  1.760681  0  0  0.407485  0.460722  0  1.869506  0
H  H4  1  0.04899298  0.93203085  0.60887972  1  0  0.13649  0  0.939623  0  0  0.145534  0  1.00447  0  0  0.149001  0  1.001641  0  0  0.123576  0.14302  0  1.006559  0
H  H5  1  0.54900012  0.56797130  0.89111866  1  0  0.13649  0  0.939497  0  0  0.145524  0  1.004384  0  0  0.148988  0  1.001557  0  0  0.123594  0.143011  0  1.006473  0
H  H6  1  0.95100114  0.06797026  0.39111908  1  0  0.136475  0  0.939524  0  0  0.145519  0  1.004394  0  0  0.148983  0  1.001567  0  0  0.123589  0.143006  0  1.006484  0
H  H7  1  0.45100225  0.43202807  0.10887957  1  0  0.136481  0  0.939631  0  0  0.14553  0  1.004492  0  0  0.148995  0  1.001666  0  0  0.123603  0.143016  0  1.006581  0
H  H8  1  0.22037996  0.90936503  0.49792078  1  0  0.131342  0  0.908564  0  0  0.14474  0  0.966716  0  0  0.146675  0  0.965906  0  0  0.125326  0.143245  0  0.967483  0
H  H9  1  0.72037641  0.59063490  0.00207895  1  0  0.131305  0  0.908546  0  0  0.1447  0  0.966722  0  0  0.146633  0  0.965911  0  0  0.125299  0.143205  0  0.967489  0
H  H10  1  0.77963066  0.09063608  0.50208072  1  0  0.131319  0  0.908484  0  0  0.144732  0  0.966627  0  0  0.146663  0  0.96582  0  0  0.125318  0.143237  0  0.967394  0
H  H11  1  0.27961771  0.40936534  0.99792226  1  0  0.131326  0  0.908581  0  0  0.14471  0  0.966765  0  0  0.146645  0  0.965956  0  0  0.125325  0.143216  0  0.967532  0
H  H12  1  0.15437390  0.79003057  0.69107584  1  0  0.128254  0  0.947437  0  0  0.137737  0  1.006978  0  0  0.140333  0  1.006168  0  0  0.130969  0.135841  0  1.007677  0
H  H13  1  0.65438079  0.70997069  0.80892277  1  0  0.12826  0  0.947409  0  0  0.137713  0  1.006983  0  0  0.140308  0  1.006176  0  0  0.13097  0.135817  0  1.007682  0
H  H14  1  0.84562847  0.20997230  0.30892420  1  0  0.128271  0  0.947407  0  0  0.137747  0  1.006949  0  0  0.140343  0  1.00614  0  0  0.130972  0.13585  0  1.007648  0
H  H15  1  0.34562364  0.29002955  0.19107373  1  0  0.128245  0  0.947397  0  0  0.137731  0  1.006933  0  0  0.140327  0  1.006124  0  0  0.130984  0.135835  0  1.007631  0
H  H16  1  0.50503414  0.59476258  0.64153370  1  0  0.128319  0  0.989146  0  0  0.128831  0  1.059857  0  0  0.133675  0  1.055313  0  0  0.123469  0.125282  0  1.063229  0
H  H17  1  0.00504178  0.90523782  0.85846689  1  0  0.128309  0  0.989143  0  0  0.128862  0  1.05982  0  0  0.133719  0  1.055254  0  0  0.123469  0.125313  0  1.063192  0
H  H18  1  0.49496410  0.40523854  0.35846847  1  0  0.128308  0  0.989118  0  0  0.128857  0  1.059802  0  0  0.133705  0  1.055251  0  0  0.123471  0.125309  0  1.063172  0
H  H19  1  0.99496884  0.09476067  0.14153242  1  0  0.128307  0  0.989163  0  0  0.128843  0  1.059856  0  0  0.133687  0  1.055312  0  0  0.12345  0.125292  0  1.06323  0
H  H20  1  0.68658452  0.78420821  0.46296825  1  0  0.128173  0  0.98292  0  0  0.130715  0  1.055124  0  0  0.134768  0  1.049738  0  0  0.141982  0.127683  0  1.059096  0
H  H21  1  0.18658576  0.71578997  0.03703029  1  0  0.128139  0  0.982946  0  0  0.130718  0  1.055123  0  0  0.134771  0  1.049737  0  0  0.141987  0.127685  0  1.059094  0
H  H22  1  0.31341785  0.21579115  0.53703268  1  0  0.128108  0  0.982977  0  0  0.130661  0  1.055153  0  0  0.134714  0  1.049767  0  0  0.141963  0.127629  0  1.059122  0
H  H23  1  0.81341042  0.28420764  0.96296738  1  0  0.128155  0  0.982938  0  0  0.130686  0  1.055156  0  0  0.134743  0  1.049764  0  0  0.141963  0.127653  0  1.059126  0
H  H24  1  0.80734135  0.60650286  0.50054949  1  0  0.314501  0  0.911728  0  0  0.288103  0  0.984214  0  0  0.297623  0  0.976275  0  0  0.314105  0.28133  0  0.989877  0
H  H25  1  0.30734275  0.89349839  0.99945157  1  0  0.314525  0  0.911672  0  0  0.28809  0  0.984195  0  0  0.297613  0  0.97625  0  0  0.314115  0.281318  0  0.989855  0
H  H26  1  0.19265895  0.39349826  0.49945201  1  0  0.314486  0  0.911734  0  0  0.28808  0  0.984236  0  0  0.297601  0  0.976297  0  0  0.314107  0.281308  0  0.989898  0
H  H27  1  0.69266168  0.10649921  0.00054812  1  0  0.314473  0  0.911774  0  0  0.288067  0  0.984281  0  0  0.297602  0  0.976321  0  0  0.314088  0.281297  0  0.989936  0
C  C28  1  0.42034940  0.03262694  0.62700512  1  0  0.680679  0  3.884449  0  0  0.623227  0  4.192136  0  0  0.657772  0  4.188175  0  0  0.203515  0.599558  0  4.193972  0
C  C29  1  0.92034818  0.46737272  0.87299371  1  0  0.680543  0  3.884483  0  0  0.623101  0  4.192158  0  0  0.657639  0  4.188212  0  0  0.203473  0.599431  0  4.193996  0
C  C30  1  0.57964885  0.96737594  0.37299559  1  0  0.68066  0  3.884588  0  0  0.623249  0  4.192201  0  0  0.657788  0  4.188249  0  0  0.203561  0.599579  0  4.194041  0
C  C31  1  0.07965006  0.53262751  0.12700750  1  0  0.680659  0  3.884492  0  0  0.623224  0  4.192164  0  0  0.657765  0  4.188211  0  0  0.203527  0.599554  0  4.194001  0
C  C32  1  0.25231237  0.92097606  0.57421986  1  0  -0.16763  0  3.584746  0  0  -0.223502  0  3.827783  0  0  -0.225565  0  3.834327  0  0  -0.05212  -0.221874  0  3.823338  0
C  C33  1  0.75231906  0.57902695  0.92578184  1  0  -0.167665  0  3.584578  0  0  -0.223543  0  3.827614  0  0  -0.225601  0  3.834165  0  0  -0.052183  -0.221912  0  3.823166  0
C  C34  1  0.74768175  0.07902769  0.42578180  1  0  -0.167617  0  3.584584  0  0  -0.223523  0  3.827654  0  0  -0.225579  0  3.834203  0  0  -0.052168  -0.221895  0  3.823209  0
C  C35  1  0.24768538  0.42097504  0.07421993  1  0  -0.167673  0  3.584717  0  0  -0.223551  0  3.827754  0  0  -0.225613  0  3.834302  0  0  -0.052161  -0.221921  0  3.823307  0
C  C36  1  0.31567636  0.75834759  0.63695991  1  0  -0.038887  0  3.619383  0  0  -0.083736  0  3.881606  0  0  -0.0822  0  3.899849  0  0  0.015138  -0.084814  0  3.869512  0
C  C37  1  0.81568877  0.74165103  0.86303693  1  0  -0.038791  0  3.61927  0  0  -0.083613  0  3.881497  0  0  -0.082075  0  3.899741  0  0  0.015217  -0.084693  0  3.869405  0
C  C38  1  0.68431983  0.24165353  0.36304024  1  0  -0.038906  0  3.619397  0  0  -0.083736  0  3.881609  0  0  -0.082199  0  3.899854  0  0  0.015146  -0.084814  0  3.869516  0
C  C39  1  0.18431154  0.25835009  0.13696120  1  0  -0.03886  0  3.619331  0  0  -0.083706  0  3.881564  0  0  -0.082169  0  3.899808  0  0  0.015173  -0.084786  0  3.869471  0
C  C40  1  0.48809776  0.66348468  0.61317479  1  0  0.015488  0  3.645658  0  0  -0.025642  0  3.915282  0  0  -0.023539  0  3.931325  0  0  0.013199  -0.027047  0  3.904653  0
C  C41  1  0.98810817  0.83651568  0.88682369  1  0  0.015449  0  3.645686  0  0  -0.025727  0  3.915288  0  0  -0.023623  0  3.931318  0  0  0.013172  -0.027131  0  3.904661  0
C  C42  1  0.51189636  0.33651644  0.38682536  1  0  0.015496  0  3.645584  0  0  -0.025682  0  3.915198  0  0  -0.023579  0  3.93124  0  0  0.013166  -0.027086  0  3.904569  0
C  C43  1  0.01189420  0.16348456  0.11317483  1  0  0.015428  0  3.645674  0  0  -0.02573  0  3.915292  0  0  -0.023629  0  3.931339  0  0  0.013198  -0.027134  0  3.904666  0
C  C44  1  0.59025317  0.75898621  0.51779265  1  0  0.187737  0  3.545579  0  0  0.115476  0  3.816485  0  0  0.1311  0  3.824392  0  0  0.166654  0.105325  0  3.811141  0
C  C45  1  0.09025418  0.74101418  0.98220712  1  0  0.187819  0  3.545512  0  0  0.115479  0  3.816459  0  0  0.1311  0  3.824367  0  0  0.166687  0.105328  0  3.811118  0
C  C46  1  0.40974920  0.24101666  0.48220940  1  0  0.187863  0  3.545575  0  0  0.115649  0  3.816387  0  0  0.131273  0  3.824297  0  0  0.166758  0.105498  0  3.811044  0
C  C47  1  0.90974613  0.25898342  0.01779123  1  0  0.187702  0  3.545645  0  0  0.115476  0  3.816495  0  0  0.1311  0  3.824397  0  0  0.166752  0.105327  0  3.811149  0
N  N48  1  0.38148540  0.81566779  0.57606524  1  0  -0.012642  0  3.591724  0  0  0.075925  0  3.811238  0  0  0.062488  0  3.837206  0  0  -0.230572  0.084644  0  3.79366  0
N  N49  1  0.88149050  0.68433258  0.92393340  1  0  -0.012554  0  3.591602  0  0  0.076054  0  3.811095  0  0  0.062614  0  3.837064  0  0  -0.23054  0.084772  0  3.793518  0
N  N50  1  0.61851491  0.18433508  0.42393682  1  0  -0.012665  0  3.591812  0  0  0.075882  0  3.81133  0  0  0.062441  0  3.837301  0  0  -0.230562  0.084601  0  3.793753  0
N  N51  1  0.11850775  0.31566678  0.07606551  1  0  -0.01247  0  3.59152  0  0  0.076104  0  3.811037  0  0  0.062667  0  3.837005  0  0  -0.230624  0.084822  0  3.793459  0
N  N52  1  0.65635619  0.66655432  0.53919898  1  0  -0.258637  0  3.4656  0  0  -0.193118  0  3.707428  0  0  -0.209313  0  3.722186  0  0  -0.360714  -0.18227  0  3.697387  0
N  N53  1  0.15635996  0.83344606  0.96080069  1  0  -0.258732  0  3.465607  0  0  -0.193162  0  3.707488  0  0  -0.209354  0  3.722247  0  0  -0.360752  -0.182316  0  3.697446  0
N  N54  1  0.34364412  0.33344767  0.46080279  1  0  -0.258628  0  3.465671  0  0  -0.193113  0  3.70748  0  0  -0.209312  0  3.722245  0  0  -0.36073  -0.182267  0  3.697439  0
N  N55  1  0.84364241  0.16655154  0.03919766  1  0  -0.258633  0  3.465761  0  0  -0.193116  0  3.707588  0  0  -0.209308  0  3.722336  0  0  -0.360748  -0.18227  0  3.697545  0
N  N56  1  0.33590743  0.08267724  0.86471943  1  0  0.692484  0  4.128835  0  0  0.720018  0  4.427332  0  0  0.748502  0  4.434755  0  0  0.094646  0.700885  0  4.42173  0
N  N57  1  0.83590743  0.41732067  0.63528031  1  0  0.692572  0  4.128813  0  0  0.720105  0  4.427282  0  0  0.748325  0  4.434851  0  0  0.09469  0.700956  0  4.421683  0
N  N58  1  0.66409288  0.91732036  0.13527959  1  0  0.692541  0  4.128728  0  0  0.720086  0  4.427199  0  0  0.7483  0  4.434771  0  0  0.094693  0.700932  0  4.421612  0
N  N59  1  0.16409288  0.58267781  0.36472100  1  0  0.692508  0  4.128826  0  0  0.720064  0  4.42728  0  0  0.748282  0  4.434842  0  0  0.094661  0.700922  0  4.421694  0
O  O60  1  0.65305857  0.02386676  0.66111254  1  0  -0.596634  0  2.055276  0  0  -0.527658  0  2.312076  0  0  -0.558118  0  2.30304  0  0  -0.315257  -0.506343  0  2.317618  0
O  O61  1  0.15305648  0.47613029  0.83888519  1  0  -0.596542  0  2.055278  0  0  -0.527576  0  2.312081  0  0  -0.558036  0  2.303059  0  0  -0.315257  -0.506266  0  2.31763  0
O  O62  1  0.34693762  0.97613611  0.33888951  1  0  -0.596615  0  2.055266  0  0  -0.527661  0  2.312067  0  0  -0.558121  0  2.303044  0  0  -0.315283  -0.506346  0  2.317613  0
O  O63  1  0.84693970  0.52386643  0.16111422  1  0  -0.596604  0  2.055218  0  0  -0.527666  0  2.312051  0  0  -0.558126  0  2.303026  0  0  -0.315285  -0.506353  0  2.317595  0
O  O64  1  0.29998184  0.12582735  0.62993331  1  0  -0.655501  0  2.135796  0  0  -0.574422  0  2.414087  0  0  -0.608123  0  2.402032  0  0  -0.331891  -0.550734  0  2.421562  0
O  O65  1  0.79997615  0.37417232  0.87006504  1  0  -0.655504  0  2.135737  0  0  -0.574391  0  2.413978  0  0  -0.60809  0  2.401923  0  0  -0.33187  -0.550701  0  2.421453  0
O  O66  1  0.70001228  0.87417464  0.37006846  1  0  -0.655539  0  2.135913  0  0  -0.574462  0  2.414178  0  0  -0.608161  0  2.402129  0  0  -0.33193  -0.550772  0  2.421655  0
O  O67  1  0.20002003  0.62582704  0.12993454  1  0  -0.655535  0  2.13587  0  0  -0.574421  0  2.414101  0  0  -0.60812  0  2.402054  0  0  -0.331871  -0.55073  0  2.421575  0
O  O68  1  0.13263189  0.03860670  0.80816309  1  0  -0.463505  0  1.805125  0  0  -0.440446  0  2.037693  0  0  -0.458572  0  2.03012  0  0  -0.189553  -0.427874  0  2.04279  0
O  O69  1  0.63263125  0.46139122  0.69183630  1  0  -0.463537  0  1.805106  0  0  -0.440494  0  2.037685  0  0  -0.458506  0  2.030135  0  0  -0.189558  -0.427908  0  2.042774  0
O  O70  1  0.86737048  0.96139178  0.19183419  1  0  -0.463475  0  1.805104  0  0  -0.440459  0  2.037711  0  0  -0.458467  0  2.030163  0  0  -0.18952  -0.427864  0  2.042793  0
O  O71  1  0.36737112  0.53860725  0.30816569  1  0  -0.463464  0  1.805086  0  0  -0.440447  0  2.037679  0  0  -0.458458  0  2.03013  0  0  -0.189518  -0.427877  0  2.042785  0
O  O72  1  0.42357520  0.18395660  0.87723691  1  0  -0.486613  0  1.83498  0  0  -0.47966  0  2.094919  0  0  -0.495701  0  2.08499  0  0  -0.189767  -0.468465  0  2.101481  0
O  O73  1  0.92357702  0.31604218  0.62276298  1  0  -0.486658  0  1.835046  0  0  -0.479705  0  2.09499  0  0  -0.495636  0  2.085088  0  0  -0.189782  -0.468502  0  2.101551  0
O  O74  1  0.57642511  0.81604275  0.12276402  1  0  -0.486635  0  1.835074  0  0  -0.479668  0  2.094997  0  0  -0.495601  0  2.085112  0  0  -0.189779  -0.468465  0  2.101563  0
O  O75  1  0.07642535  0.68395630  0.37723699  1  0  -0.486677  0  1.835038  0  0  -0.479692  0  2.094928  0  0  -0.495623  0  2.085037  0  0  -0.189774  -0.468488  0  2.101492  0
O  O76  1  0.44775789  0.02413121  0.90911565  1  0  -0.464257  0  1.761827  0  0  -0.448262  0  1.973686  0  0  -0.462878  0  1.968719  0  0  -0.190185  -0.438102  0  1.976955  0
O  O77  1  0.94775878  0.47586581  0.59088296  1  0  -0.464279  0  1.761771  0  0  -0.44827  0  1.973614  0  0  -0.462778  0  1.968677  0  0  -0.190213  -0.438106  0  1.976883  0
O  O78  1  0.55224036  0.97586464  0.09088213  1  0  -0.464331  0  1.761668  0  0  -0.44832  0  1.973511  0  0  -0.462827  0  1.968574  0  0  -0.190261  -0.438156  0  1.976786  0
O  O79  1  0.05223946  0.52413267  0.40911768  1  0  -0.464269  0  1.761818  0  0  -0.448288  0  1.973674  0  0  -0.462796  0  1.968735  0  0  -0.190228  -0.438126  0  1.976948  0
