# generated using pymatgen
data_CdH30C18S2(N2O3)2
_symmetry_space_group_name_H-M   'P 1'
_cell_length_a   7.56195729
_cell_length_b   11.82467657
_cell_length_c   12.75336073
_cell_angle_alpha   89.99999204
_cell_angle_beta   103.03526414
_cell_angle_gamma   90.00000813
_symmetry_Int_Tables_number   1
_chemical_formula_structural   CdH30C18S2(N2O3)2
_chemical_formula_sum   'Cd2 H60 C36 S4 N8 O12'
_cell_volume   1110.99030857
_cell_formula_units_Z   2
loop_
 _symmetry_equiv_pos_site_id
 _symmetry_equiv_pos_as_xyz
  1  'x, y, z'
loop_
 _atom_site_type_symbol
 _atom_site_label
 _atom_site_symmetry_multiplicity
 _atom_site_fract_x
 _atom_site_fract_y
 _atom_site_fract_z
 _atom_site_occupancy
 _atom_site_hle17_bader_spin_density
 _atom_site_hle17_ddec_charge
 _atom_site_hle17_ddec_spin_density
 _atom_site_hle17_ddec_sum_bond_order
 _atom_site_hle17_magmom
 _atom_site_hse06_10hf_bader_spin_density
 _atom_site_hse06_10hf_ddec_charge
 _atom_site_hse06_10hf_ddec_spin_density
 _atom_site_hse06_10hf_ddec_sum_bond_order
 _atom_site_hse06_10hf_magmom
 _atom_site_hse06_bader_spin_density
 _atom_site_hse06_ddec_charge
 _atom_site_hse06_ddec_spin_density
 _atom_site_hse06_ddec_sum_bond_order
 _atom_site_hse06_magmom
 _atom_site_pbe_bader_spin_density
 _atom_site_pbe_cm5_charge
 _atom_site_pbe_ddec_charge
 _atom_site_pbe_ddec_spin_density
 _atom_site_pbe_ddec_sum_bond_order
 _atom_site_pbe_magmom
Cd  Cd0  1  0.99999868  0.50000014  0.99999978  1  0  1.019875  0  1.637714  0  0  0.838221  0  2.025433  0  0  0.887096  0  1.988098  0  0  0.782213  0.803892  0  2.050707  0
Cd  Cd1  1  0.99999809  0.00000081  0.49999815  1  0  1.019866  0  1.637697  0  0  0.838233  0  2.02542  0  0  0.887102  0  1.988093  0  0  0.782203  0.803906  0  2.050693  0
H  H2  1  0.71562556  0.65528301  0.96438722  1  0  0.262375  0  0.929101  0  0  0.249893  0  0.989782  0  0  0.255129  0  0.987162  0  0  0.292356  0.246161  0  0.991689  0
H  H3  1  0.71562342  0.84471655  0.46438771  1  0  0.262364  0  0.929094  0  0  0.249914  0  0.989743  0  0  0.255155  0  0.987113  0  0  0.29235  0.246182  0  0.991646  0
H  H4  1  0.28437674  0.34471473  0.03561352  1  0  0.26236  0  0.929107  0  0  0.249881  0  0.989788  0  0  0.255118  0  0.987168  0  0  0.292345  0.246149  0  0.991695  0
H  H5  1  0.28437481  0.15528203  0.53561168  1  0  0.262359  0  0.929116  0  0  0.249912  0  0.989759  0  0  0.255154  0  0.987124  0  0  0.292361  0.246181  0  0.99167  0
H  H6  1  0.75164976  0.43743187  0.12468005  1  0  0.260568  0  0.942793  0  0  0.249412  0  0.999707  0  0  0.255174  0  0.996385  0  0  0.289771  0.245263  0  1.002201  0
H  H7  1  0.75165050  0.06256830  0.62468095  1  0  0.260516  0  0.942798  0  0  0.249358  0  0.999723  0  0  0.255121  0  0.996401  0  0  0.289741  0.245214  0  1.002209  0
H  H8  1  0.24834985  0.56256671  0.87531875  1  0  0.260562  0  0.942724  0  0  0.249404  0  0.999649  0  0  0.255165  0  0.996326  0  0  0.289744  0.245262  0  1.002135  0
H  H9  1  0.24834906  0.93743281  0.37532098  1  0  0.260612  0  0.94277  0  0  0.249509  0  0.999621  0  0  0.255274  0  0.996291  0  0  0.289796  0.245364  0  1.00211  0
H  H10  1  0.53292725  0.26595145  0.48828395  1  0  0.114869  0  0.962092  0  0  0.123494  0  1.023651  0  0  0.127453  0  1.02091  0  0  0.106106  0.120527  0  1.025878  0
H  H11  1  0.53292939  0.23404864  0.98828423  1  0  0.114844  0  0.962146  0  0  0.123469  0  1.023701  0  0  0.127434  0  1.020952  0  0  0.106103  0.120499  0  1.025926  0
H  H12  1  0.46706961  0.73404713  0.51171683  1  0  0.114881  0  0.962119  0  0  0.123495  0  1.023686  0  0  0.127479  0  1.020913  0  0  0.106111  0.120532  0  1.025904  0
H  H13  1  0.46707156  0.76595416  0.01171632  1  0  0.114903  0  0.962131  0  0  0.123519  0  1.023688  0  0  0.127502  0  1.020915  0  0  0.106117  0.120551  0  1.025917  0
H  H14  1  0.50676314  0.37074587  0.31794079  1  0  0.111861  0  0.957079  0  0  0.118584  0  1.026026  0  0  0.122574  0  1.022854  0  0  0.106649  0.115713  0  1.028349  0
H  H15  1  0.50676528  0.12925424  0.81794030  1  0  0.11188  0  0.957101  0  0  0.118617  0  1.026028  0  0  0.122609  0  1.022852  0  0  0.106655  0.115742  0  1.028357  0
H  H16  1  0.49323644  0.62925271  0.68205957  1  0  0.111861  0  0.95711  0  0  0.118579  0  1.026063  0  0  0.122572  0  1.022886  0  0  0.106632  0.115705  0  1.028385  0
H  H17  1  0.49323569  0.87074772  0.18205869  1  0  0.111881  0  0.957112  0  0  0.118612  0  1.026033  0  0  0.122602  0  1.022862  0  0  0.106644  0.115736  0  1.02836  0
H  H18  1  0.44724277  0.73405644  0.31484883  1  0  0.107968  0  0.947873  0  0  0.11786  0  1.01063  0  0  0.121287  0  1.008409  0  0  0.107542  0.11534  0  1.012421  0
H  H19  1  0.44724356  0.76594396  0.81484891  1  0  0.107982  0  0.947862  0  0  0.117872  0  1.010622  0  0  0.121298  0  1.008404  0  0  0.107547  0.115348  0  1.012417  0
H  H20  1  0.55275545  0.26594467  0.68515214  1  0  0.107991  0  0.947874  0  0  0.117869  0  1.010639  0  0  0.121295  0  1.00842  0  0  0.107552  0.115345  0  1.012435  0
H  H21  1  0.55275740  0.23405547  0.18515086  1  0  0.107978  0  0.947864  0  0  0.117868  0  1.010629  0  0  0.121295  0  1.00841  0  0  0.107549  0.115342  0  1.012427  0
H  H22  1  0.77688522  0.66893667  0.80248521  1  0  0.068823  0  0.942346  0  0  0.084651  0  1.009731  0  0  0.084654  0  1.01037  0  0  0.105827  0.08454  0  1.009418  0
H  H23  1  0.77688444  0.83106376  0.30248590  1  0  0.068805  0  0.942356  0  0  0.084628  0  1.009736  0  0  0.084633  0  1.010374  0  0  0.105816  0.084518  0  1.009413  0
H  H24  1  0.22311436  0.33106444  0.19751515  1  0  0.068804  0  0.942362  0  0  0.084624  0  1.00976  0  0  0.084628  0  1.010398  0  0  0.105824  0.084511  0  1.009443  0
H  H25  1  0.22311650  0.16893566  0.69751466  1  0  0.068808  0  0.942361  0  0  0.084639  0  1.009735  0  0  0.084642  0  1.010374  0  0  0.105821  0.084532  0  1.009418  0
H  H26  1  0.84015312  0.80549178  0.85352318  1  0  0.057329  0  0.942772  0  0  0.075895  0  1.005589  0  0  0.075722  0  1.00663  0  0  0.098736  0.075925  0  1.00501  0
H  H27  1  0.84015096  0.69450950  0.35352291  1  0  0.057375  0  0.942797  0  0  0.075913  0  1.005629  0  0  0.075739  0  1.00667  0  0  0.098747  0.075936  0  1.005053  0
H  H28  1  0.15984917  0.19450933  0.14647835  1  0  0.05733  0  0.9428  0  0  0.075892  0  1.005613  0  0  0.075719  0  1.006653  0  0  0.098735  0.075917  0  1.005033  0
H  H29  1  0.15984863  0.30548908  0.64647668  1  0  0.057349  0  0.9428  0  0  0.075889  0  1.005643  0  0  0.075715  0  1.006685  0  0  0.09874  0.075915  0  1.005068  0
H  H30  1  0.83657577  0.26732828  0.07755834  1  0  0.067195  0  0.948076  0  0  0.086734  0  1.008276  0  0  0.086418  0  1.009716  0  0  0.106099  0.086856  0  1.007394  0
H  H31  1  0.83657520  0.23267190  0.57755825  1  0  0.067172  0  0.948087  0  0  0.086741  0  1.008256  0  0  0.086422  0  1.009698  0  0  0.106095  0.086865  0  1.007371  0
H  H32  1  0.16342380  0.73266946  0.92244281  1  0  0.06715  0  0.948139  0  0  0.086699  0  1.00832  0  0  0.08638  0  1.00976  0  0  0.106088  0.086827  0  1.007433  0
H  H33  1  0.16342302  0.76732921  0.42244272  1  0  0.067172  0  0.948118  0  0  0.086727  0  1.008312  0  0  0.086409  0  1.009754  0  0  0.106085  0.086851  0  1.007433  0
H  H34  1  0.90946190  0.26468549  0.21926937  1  0  0.057989  0  0.937786  0  0  0.078252  0  0.999389  0  0  0.07797  0  1.000433  0  0  0.100657  0.078382  0  0.998715  0
H  H35  1  0.90946269  0.23531552  0.71926868  1  0  0.057995  0  0.937761  0  0  0.078239  0  0.999404  0  0  0.077955  0  1.000448  0  0  0.100653  0.078371  0  0.998725  0
H  H36  1  0.09054038  0.73531478  0.78073294  1  0  0.057971  0  0.937775  0  0  0.078223  0  0.99939  0  0  0.07793  0  1.000442  0  0  0.100645  0.078355  0  0.998712  0
H  H37  1  0.09053825  0.76468559  0.28073188  1  0  0.057947  0  0.937831  0  0  0.078236  0  0.999413  0  0  0.077944  0  1.000466  0  0  0.100648  0.078369  0  0.998733  0
H  H38  1  0.90134306  0.44400371  0.31342938  1  0  0.073504  0  0.946746  0  0  0.096183  0  1.009432  0  0  0.09655  0  1.009814  0  0  0.09033  0.095844  0  1.009237  0
H  H39  1  0.90134516  0.05599560  0.81343046  1  0  0.073472  0  0.946765  0  0  0.096163  0  1.009444  0  0  0.096526  0  1.00983  0  0  0.090334  0.095828  0  1.009246  0
H  H40  1  0.09865383  0.55599571  0.68656905  1  0  0.073526  0  0.946765  0  0  0.096207  0  1.009442  0  0  0.096573  0  1.009825  0  0  0.090354  0.095871  0  1.009246  0
H  H41  1  0.09865441  0.94400382  0.18657069  1  0  0.073457  0  0.946749  0  0  0.096138  0  1.009449  0  0  0.0965  0  1.009837  0  0  0.090309  0.0958  0  1.00925  0
H  H42  1  0.91767920  0.57201652  0.24244530  1  0  0.091483  0  0.968716  0  0  0.111079  0  1.035246  0  0  0.11195  0  1.035096  0  0  0.099396  0.110356  0  1.035449  0
H  H43  1  0.91767865  0.92798309  0.74244597  1  0  0.091475  0  0.968712  0  0  0.111073  0  1.035243  0  0  0.111943  0  1.035093  0  0  0.099387  0.110348  0  1.035446  0
H  H44  1  0.08231904  0.42798290  0.75755409  1  0  0.091493  0  0.968716  0  0  0.11109  0  1.035246  0  0  0.111961  0  1.035096  0  0  0.0994  0.110372  0  1.035446  0
H  H45  1  0.08232093  0.07201802  0.25755518  1  0  0.091449  0  0.968748  0  0  0.111048  0  1.035273  0  0  0.111918  0  1.035123  0  0  0.099382  0.110325  0  1.035475  0
H  H46  1  0.10690162  0.47877926  0.27320264  1  0  0.084962  0  0.967007  0  0  0.105115  0  1.031607  0  0  0.104931  0  1.033639  0  0  0.094106  0.105146  0  1.030298  0
H  H47  1  0.10690102  0.02122083  0.77320179  1  0  0.084959  0  0.967004  0  0  0.105115  0  1.031608  0  0  0.104933  0  1.033638  0  0  0.094106  0.105143  0  1.030302  0
H  H48  1  0.89309932  0.52122102  0.72679791  1  0  0.084976  0  0.966992  0  0  0.105123  0  1.031603  0  0  0.104939  0  1.033636  0  0  0.094112  0.105152  0  1.030296  0
H  H49  1  0.89309722  0.97878029  0.22679760  1  0  0.084929  0  0.967022  0  0  0.105079  0  1.031638  0  0  0.104896  0  1.033669  0  0  0.094108  0.105109  0  1.030328  0
H  H50  1  0.14675105  0.15603042  0.96758721  1  0  0.07245  0  0.954012  0  0  0.092068  0  1.02097  0  0  0.092343  0  1.022026  0  0  0.087838  0.091814  0  1.020286  0
H  H51  1  0.14674892  0.34396795  0.46758692  1  0  0.072397  0  0.954008  0  0  0.09201  0  1.020981  0  0  0.092284  0  1.022038  0  0  0.08782  0.091754  0  1.020301  0
H  H52  1  0.85325127  0.84396816  0.03241197  1  0  0.072428  0  0.953984  0  0  0.092045  0  1.020951  0  0  0.092319  0  1.022007  0  0  0.087831  0.091787  0  1.020268  0
H  H53  1  0.85324932  0.65603148  0.53241248  1  0  0.072436  0  0.954023  0  0  0.092053  0  1.02098  0  0  0.092328  0  1.022036  0  0  0.087826  0.091798  0  1.020304  0
H  H54  1  0.13788134  0.26763095  0.87250258  1  0  0.103826  0  0.957794  0  0  0.127152  0  1.016995  0  0  0.127758  0  1.017647  0  0  0.103293  0.126598  0  1.016687  0
H  H55  1  0.13788057  0.23236828  0.37250170  1  0  0.103776  0  0.957806  0  0  0.1271  0  1.017011  0  0  0.127706  0  1.017665  0  0  0.103282  0.126549  0  1.016703  0
H  H56  1  0.86212096  0.73236679  0.12749817  1  0  0.103811  0  0.957767  0  0  0.127139  0  1.016972  0  0  0.127745  0  1.017625  0  0  0.103291  0.126586  0  1.016663  0
H  H57  1  0.86211767  0.76763114  0.62749769  1  0  0.103803  0  0.957774  0  0  0.127131  0  1.016977  0  0  0.127737  0  1.017629  0  0  0.103285  0.126583  0  1.016663  0
H  H58  1  0.94176630  0.23578233  0.92283390  1  0  0.087357  0  0.956607  0  0  0.106394  0  1.023485  0  0  0.107466  0  1.022746  0  0  0.09376  0.105506  0  1.02414  0
H  H59  1  0.94176553  0.26421697  0.42283225  1  0  0.087338  0  0.956639  0  0  0.106374  0  1.023518  0  0  0.107445  0  1.02278  0  0  0.09377  0.105487  0  1.024169  0
H  H60  1  0.05823599  0.76421625  0.07716762  1  0  0.087337  0  0.956613  0  0  0.106379  0  1.023491  0  0  0.107451  0  1.022752  0  0  0.093759  0.105491  0  1.024146  0
H  H61  1  0.05823406  0.73578161  0.57716734  1  0  0.087346  0  0.956605  0  0  0.106382  0  1.023485  0  0  0.107454  0  1.022746  0  0  0.093751  0.105499  0  1.024138  0
C  C62  1  0.52838011  0.34515446  0.53162251  1  0  -0.102636  0  3.706047  0  0  -0.120285  0  3.952686  0  0  -0.121648  0  3.970699  0  0  -0.085066  -0.119328  0  3.940631  0
C  C63  1  0.52838203  0.15484739  0.03162202  1  0  -0.102618  0  3.705978  0  0  -0.120255  0  3.952618  0  0  -0.121625  0  3.970634  0  0  -0.085084  -0.119298  0  3.940555  0
C  C64  1  0.47161812  0.65484412  0.46837767  1  0  -0.102703  0  3.705931  0  0  -0.120355  0  3.952578  0  0  -0.121741  0  3.970591  0  0  -0.085124  -0.119403  0  3.940522  0
C  C65  1  0.47161891  0.84515542  0.96837853  1  0  -0.102749  0  3.705967  0  0  -0.120363  0  3.95262  0  0  -0.121749  0  3.970633  0  0  -0.085121  -0.119409  0  3.940561  0
C  C66  1  0.50670570  0.44787778  0.47240027  1  0  0.05594  0  3.788744  0  0  0.074674  0  4.01047  0  0  0.07416  0  4.034349  0  0  -0.007373  0.074975  0  3.994356  0
C  C67  1  0.50670644  0.05212231  0.97240117  1  0  0.05593  0  3.788745  0  0  0.074669  0  4.010507  0  0  0.074153  0  4.034388  0  0  -0.007355  0.074971  0  3.994385  0
C  C68  1  0.49329526  0.55211995  0.52759950  1  0  0.056058  0  3.788574  0  0  0.074837  0  4.010252  0  0  0.07432  0  4.034138  0  0  -0.007263  0.075147  0  3.994128  0
C  C69  1  0.49329588  0.94788134  0.02759801  1  0  0.056144  0  3.788557  0  0  0.074827  0  4.010357  0  0  0.074311  0  4.034242  0  0  -0.007247  0.075139  0  3.994224  0
C  C70  1  0.49664689  0.44996072  0.35989495  1  0  -0.121003  0  3.731626  0  0  -0.154334  0  3.982625  0  0  -0.1537  0  3.999819  0  0  -0.08663  -0.154676  0  3.971118  0
C  C71  1  0.49664765  0.05004108  0.85989428  1  0  -0.12103  0  3.731591  0  0  -0.154374  0  3.982584  0  0  -0.153736  0  3.99977  0  0  -0.086631  -0.154713  0  3.971077  0
C  C72  1  0.50335135  0.55004040  0.64010444  1  0  -0.121002  0  3.73159  0  0  -0.154344  0  3.98258  0  0  -0.153705  0  3.999766  0  0  -0.086601  -0.154682  0  3.971067  0
C  C73  1  0.50334924  0.94996004  0.14010414  1  0  -0.121081  0  3.731521  0  0  -0.154405  0  3.982538  0  0  -0.153765  0  3.999718  0  0  -0.086621  -0.154741  0  3.971024  0
C  C74  1  0.47366628  0.55137491  0.30489038  1  0  -0.123226  0  3.777404  0  0  -0.097421  0  4.028936  0  0  -0.102678  0  4.049554  0  0  -0.023058  -0.094074  0  4.015232  0
C  C75  1  0.47366711  0.94862549  0.80488889  1  0  -0.123246  0  3.777316  0  0  -0.097432  0  4.028841  0  0  -0.102687  0  4.049457  0  0  -0.023087  -0.094093  0  4.015146  0
C  C76  1  0.52633194  0.44862620  0.69511058  1  0  -0.123278  0  3.777419  0  0  -0.097487  0  4.028977  0  0  -0.102745  0  4.049597  0  0  -0.023101  -0.094149  0  4.015283  0
C  C77  1  0.52633248  0.05137478  0.19511070  1  0  -0.123181  0  3.777268  0  0  -0.097357  0  4.028778  0  0  -0.102611  0  4.049394  0  0  -0.023079  -0.094024  0  4.015085  0
C  C78  1  0.46173168  0.65465976  0.35924755  1  0  -0.069315  0  3.751101  0  0  -0.096998  0  4.009134  0  0  -0.097513  0  4.028414  0  0  -0.086933  -0.096605  0  3.996219  0
C  C79  1  0.46173113  0.84534148  0.85924666  1  0  -0.06931  0  3.751086  0  0  -0.096995  0  4.009098  0  0  -0.097512  0  4.028381  0  0  -0.08692  -0.096593  0  3.996178  0
C  C80  1  0.53826929  0.34534135  0.64075066  1  0  -0.069275  0  3.751136  0  0  -0.096932  0  4.009145  0  0  -0.097445  0  4.028419  0  0  -0.086883  -0.096525  0  3.996219  0
C  C81  1  0.53826710  0.15465879  0.14075274  1  0  -0.069308  0  3.75102  0  0  -0.096998  0  4.009043  0  0  -0.097514  0  4.028319  0  0  -0.086917  -0.096591  0  3.996117  0
C  C82  1  0.87372622  0.71488634  0.86513073  1  0  -0.002562  0  3.656998  0  0  -0.061514  0  3.919615  0  0  -0.058008  0  3.933081  0  0  -0.077693  -0.063787  0  3.910316  0
C  C83  1  0.87372545  0.78511325  0.36512985  1  0  -0.002489  0  3.656954  0  0  -0.061392  0  3.919545  0  0  -0.057886  0  3.933012  0  0  -0.077643  -0.06365  0  3.910222  0
C  C84  1  0.12627472  0.28511393  0.13486982  1  0  -0.002445  0  3.656876  0  0  -0.061371  0  3.919459  0  0  -0.057865  0  3.93293  0  0  -0.077626  -0.063634  0  3.91014  0
C  C85  1  0.12627549  0.21488618  0.63487070  1  0  -0.002475  0  3.656896  0  0  -0.061401  0  3.919498  0  0  -0.057896  0  3.93297  0  0  -0.077659  -0.063674  0  3.910201  0
C  C86  1  0.06795170  0.69414409  0.85414705  1  0  -0.000718  0  3.650994  0  0  -0.059306  0  3.907086  0  0  -0.056121  0  3.921284  0  0  -0.077239  -0.061333  0  3.897244  0
C  C87  1  0.06794957  0.80585542  0.35414677  1  0  -0.000728  0  3.651009  0  0  -0.059375  0  3.90714  0  0  -0.056194  0  3.921344  0  0  -0.077225  -0.061403  0  3.89729  0
C  C88  1  0.93204924  0.30585534  0.14585350  1  0  -0.00083  0  3.650988  0  0  -0.059433  0  3.907102  0  0  -0.056263  0  3.921312  0  0  -0.077261  -0.061456  0  3.897256  0
C  C89  1  0.93205137  0.19414485  0.64585379  1  0  -0.000803  0  3.650961  0  0  -0.059421  0  3.907063  0  0  -0.056246  0  3.92127  0  0  -0.077242  -0.061445  0  3.897216  0
C  C90  1  0.95833384  0.48304326  0.24973236  1  0  -0.134275  0  3.676731  0  0  -0.229471  0  3.927162  0  0  -0.226323  0  3.938019  0  0  -0.154368  -0.231395  0  3.919685  0
C  C91  1  0.95833459  0.01695606  0.74973248  1  0  -0.1342  0  3.676658  0  0  -0.229405  0  3.927068  0  0  -0.226255  0  3.937929  0  0  -0.154344  -0.231326  0  3.91959  0
C  C92  1  0.04166441  0.51695616  0.75026625  1  0  -0.134246  0  3.67671  0  0  -0.229432  0  3.927112  0  0  -0.226284  0  3.937969  0  0  -0.154345  -0.23136  0  3.919641  0
C  C93  1  0.04166498  0.98304421  0.25026867  1  0  -0.134112  0  3.676695  0  0  -0.229324  0  3.927153  0  0  -0.226174  0  3.938016  0  0  -0.154319  -0.231248  0  3.919674  0
C  C94  1  0.09048700  0.24062132  0.94351578  1  0  -0.144567  0  3.690244  0  0  -0.242786  0  3.948521  0  0  -0.240014  0  3.959441  0  0  -0.155805  -0.244444  0  3.941014  0
C  C95  1  0.09048488  0.25937874  0.44351394  1  0  -0.144375  0  3.690075  0  0  -0.242592  0  3.948356  0  0  -0.23982  0  3.959279  0  0  -0.155777  -0.24425  0  3.940845  0
C  C96  1  0.90951394  0.75937726  0.05648477  1  0  -0.144498  0  3.690147  0  0  -0.242721  0  3.948411  0  0  -0.239949  0  3.95933  0  0  -0.155796  -0.244378  0  3.940897  0
C  C97  1  0.90951335  0.74061984  0.55648546  1  0  -0.14447  0  3.690121  0  0  -0.242704  0  3.948417  0  0  -0.239931  0  3.959337  0  0  -0.155759  -0.244364  0  3.940895  0
S  S98  1  0.45700907  0.55669346  0.16296690  1  0  1.294213  0  5.658118  0  0  1.191785  0  6.186248  0  0  1.2403  0  6.161005  0  0  0.505256  1.158334  0  6.202595  0
S  S99  1  0.45701262  0.94330104  0.66296578  1  0  1.294212  0  5.65806  0  0  1.19175  0  6.186215  0  0  1.240269  0  6.16097  0  0  0.505227  1.158296  0  6.202569  0
S  S100  1  0.54299187  0.44330512  0.83703366  1  0  1.294269  0  5.658046  0  0  1.191816  0  6.186201  0  0  1.240325  0  6.16096  0  0  0.505293  1.158354  0  6.202563  0
S  S101  1  0.54298697  0.05670007  0.33703381  1  0  1.294116  0  5.658248  0  0  1.191655  0  6.186406  0  0  1.240176  0  6.161163  0  0  0.505202  1.158203  0  6.202757  0
N  N102  1  0.84911118  0.67615547  0.97054196  1  0  -0.384381  0  3.259726  0  0  -0.299581  0  3.509681  0  0  -0.319181  0  3.524002  0  0  -0.495418  -0.285934  0  3.499455  0
N  N103  1  0.84911040  0.82384326  0.47054186  1  0  -0.384471  0  3.259617  0  0  -0.299707  0  3.509566  0  0  -0.319305  0  3.523882  0  0  -0.495459  -0.286065  0  3.499338  0
N  N104  1  0.15088977  0.32384396  0.02945860  1  0  -0.384408  0  3.259646  0  0  -0.299616  0  3.509607  0  0  -0.319217  0  3.523928  0  0  -0.495449  -0.285977  0  3.499386  0
N  N105  1  0.15088919  0.17615532  0.52945773  1  0  -0.38449  0  3.259553  0  0  -0.299734  0  3.509526  0  0  -0.31933  0  3.523846  0  0  -0.495467  -0.28609  0  3.499311  0
N  N106  1  0.10960431  0.57242406  0.85484733  1  0  -0.38672  0  3.245203  0  0  -0.301179  0  3.493367  0  0  -0.32102  0  3.506975  0  0  -0.497115  -0.287352  0  3.48359  0
N  N107  1  0.10960491  0.92757630  0.35484740  1  0  -0.386748  0  3.245247  0  0  -0.301246  0  3.493389  0  0  -0.321084  0  3.506993  0  0  -0.497146  -0.287414  0  3.483605  0
N  N108  1  0.89039529  0.42757621  0.14515226  1  0  -0.386662  0  3.245274  0  0  -0.301112  0  3.493437  0  0  -0.320951  0  3.507046  0  0  -0.497104  -0.287277  0  3.483652  0
N  N109  1  0.89039605  0.07242397  0.64515237  1  0  -0.386621  0  3.245151  0  0  -0.301083  0  3.49335  0  0  -0.32092  0  3.50695  0  0  -0.497092  -0.287253  0  3.483563  0
O  O110  1  0.49466095  0.44131779  0.13006083  1  0  -0.664794  0  1.96291  0  0  -0.609142  0  2.208187  0  0  -0.628768  0  2.193654  0  0  -0.337277  -0.595405  0  2.217878  0
O  O111  1  0.49466310  0.05868150  0.63005800  1  0  -0.664836  0  1.962667  0  0  -0.609176  0  2.20793  0  0  -0.628817  0  2.193407  0  0  -0.337299  -0.595447  0  2.217634  0
O  O112  1  0.50533727  0.55868248  0.86994014  1  0  -0.664816  0  1.962863  0  0  -0.609176  0  2.208163  0  0  -0.628793  0  2.193627  0  0  -0.337297  -0.595437  0  2.217862  0
O  O113  1  0.50533785  0.94131877  0.36994177  1  0  -0.664824  0  1.962773  0  0  -0.60918  0  2.208055  0  0  -0.628826  0  2.193538  0  0  -0.337295  -0.595447  0  2.217754  0
O  O114  1  0.59096020  0.64064249  0.14725854  1  0  -0.656397  0  1.935355  0  0  -0.605781  0  2.187107  0  0  -0.627108  0  2.174659  0  0  -0.339587  -0.590623  0  2.195103  0
O  O115  1  0.59095693  0.85935964  0.64725806  1  0  -0.656345  0  1.935791  0  0  -0.605678  0  2.187513  0  0  -0.627004  0  2.175059  0  0  -0.339542  -0.590519  0  2.195507  0
O  O116  1  0.40904075  0.35935947  0.85274123  1  0  -0.656415  0  1.935425  0  0  -0.605763  0  2.187169  0  0  -0.627086  0  2.174719  0  0  -0.339583  -0.590597  0  2.195163  0
O  O117  1  0.40904266  0.14064317  0.35274153  1  0  -0.656292  0  1.935799  0  0  -0.605653  0  2.187566  0  0  -0.626976  0  2.175112  0  0  -0.339499  -0.59049  0  2.195555  0
O  O118  1  0.26828881  0.59357565  0.11669933  1  0  -0.692101  0  1.968129  0  0  -0.630598  0  2.239371  0  0  -0.653353  0  2.223118  0  0  -0.355319  -0.61435  0  2.249803  0
O  O119  1  0.26828690  0.90642307  0.61669902  1  0  -0.692142  0  1.968017  0  0  -0.630632  0  2.239253  0  0  -0.653387  0  2.223  0  0  -0.355325  -0.614382  0  2.249686  0
O  O120  1  0.73171214  0.40642378  0.88330045  1  0  -0.692122  0  1.968067  0  0  -0.630595  0  2.239287  0  0  -0.653361  0  2.223062  0  0  -0.355326  -0.614339  0  2.249712  0
O  O121  1  0.73171269  0.09357805  0.38330056  1  0  -0.692102  0  1.968016  0  0  -0.630594  0  2.239258  0  0  -0.653351  0  2.22301  0  0  -0.355319  -0.61434  0  2.249683  0
