# generated using pymatgen
data_Zn8H29C62I5O38
_symmetry_space_group_name_H-M   'P 1'
_cell_length_a   18.63536843
_cell_length_b   18.39976137
_cell_length_c   18.19097719
_cell_angle_alpha   119.93280559
_cell_angle_beta   90.17516608
_cell_angle_gamma   119.98321553
_symmetry_Int_Tables_number   1
_chemical_formula_structural   Zn8H29C62I5O38
_chemical_formula_sum   'Zn8 H29 C62 I5 O38'
_cell_volume   4409.36330778
_cell_formula_units_Z   1
loop_
 _symmetry_equiv_pos_site_id
 _symmetry_equiv_pos_as_xyz
  1  'x, y, z'
loop_
 _atom_site_type_symbol
 _atom_site_label
 _atom_site_symmetry_multiplicity
 _atom_site_fract_x
 _atom_site_fract_y
 _atom_site_fract_z
 _atom_site_occupancy
 _atom_site_pbe_bader_charge
 _atom_site_pbe_bader_spin_density
 _atom_site_pbe_cm5_charge
 _atom_site_pbe_ddec_charge
 _atom_site_pbe_ddec_spin_density
 _atom_site_pbe_ddec_sum_bond_order
 _atom_site_pbe_magmom
Zn  Zn0  1  0.46643322  0.42309956  0.87042819  1  1.318519  0  0.676173  0.96579  0  2.356263  0
Zn  Zn1  1  0.46148157  0.58765185  0.04468663  1  1.305206  0  0.674822  0.958036  0  2.386759  0
Zn  Zn2  1  0.63057477  0.58106896  0.05060164  1  1.312834  0  0.677675  0.967121  0  2.387108  0
Zn  Zn3  1  0.45288920  0.40688739  0.04188095  1  1.313305  0  0.675203  0.973397  0  2.312214  0
Zn  Zn4  1  0.05387955  0.59948539  0.63326477  1  1.318398  0  0.67234  0.969163  0  2.344622  0
Zn  Zn5  1  0.87456584  0.40876446  0.46375828  1  1.314041  0  0.673711  0.959104  0  2.366322  0
Zn  Zn6  1  0.04668096  0.41435815  0.45547120  1  1.321845  0  0.671916  0.968933  0  2.38355  0
Zn  Zn7  1  0.03743947  0.57592321  0.44599126  1  1.315301  0  0.671486  0.963876  0  2.38572  0
H  H8  1  0.58465613  0.28109032  0.67929291  1  0.073338  0  0.105624  0.119904  0  0.970295  0
H  H9  1  0.20337502  0.24373494  0.10297035  1  0.102027  0  0.114111  0.13515  0  0.950984  0
H  H10  1  0.81677869  0.89724369  0.23706390  1  0.10537  0  0.107163  0.123666  0  1.002202  0
H  H11  1  0.63221274  0.09596062  0.32450831  1  0.147988  0  0.122887  0.141056  0  0.954145  0
H  H12  1  0.56188743  0.91207072  0.12658195  1  0.084634  0  0.118936  0.122038  0  0.950962  0
H  H13  1  0.28761893  0.10587739  0.67962401  1  0.116059  0  0.107867  0.116226  0  0.999492  0
H  H14  1  0.13824894  0.33824605  0.59903347  1  0.109858  0  0.104985  0.116109  0  1.019141  0
H  H15  1  0.31838581  0.74400312  0.84196433  1  0.057318  0  0.100838  0.110274  0  0.978329  0
H  H16  1  0.23426682  0.70419499  0.88811959  1  0.063066  0  0.104507  0.117972  0  0.97181  0
H  H17  1  0.41120026  0.73461742  0.93295887  1  0.044765  0  0.098701  0.108022  0  0.97973  0
H  H18  1  0.32872968  0.69699852  0.98118416  1  0.093613  0  0.10365  0.126655  0  0.979237  0
H  H19  1  0.78627849  0.53153803  0.14537595  1  0.094349  0  0.111843  0.12114  0  0.988246  0
H  H20  1  0.32782583  0.07513870  0.82263576  1  0.095453  0  0.11564  0.134876  0  0.979081  0
H  H21  1  0.92031552  0.68087167  0.82541089  1  0.120597  0  0.114969  0.127299  0  0.991008  0
H  H22  1  0.68032409  0.27868645  0.58354562  1  0.087559  0  0.118927  0.122001  0  0.942782  0
H  H23  1  0.54599896  0.32958436  0.63745506  1  0.087341  0  0.10758  0.127929  0  0.97149  0
H  H24  1  0.44307341  0.45156622  0.29254773  1  0.599325  0  0.272655  0.309006  0  1.038748  0
H  H25  1  0.59120589  0.14060359  0.16722322  1  0.616101  0  0.345432  0.379849  0  0.855217  0
H  H26  1  0.48222286  0.87003769  0.31409186  1  0.616  0  0.34778  0.383299  0  0.851808  0
H  H27  1  0.17135032  0.16787790  0.57834544  1  0.623922  0  0.342921  0.379127  0  0.858842  0
H  H28  1  0.93666099  0.84207969  0.03287882  1  0.632396  0  0.346634  0.383812  0  0.853439  0
H  H29  1  0.59149053  0.37186342  0.47250886  1  0.611187  0  0.335002  0.370927  0  0.88665  0
H  H30  1  0.88540977  0.52377570  0.22821587  1  0.102469  0  0.112729  0.118309  0  0.983865  0
H  H31  1  0.61264192  0.30138959  0.30189556  1  0.073869  0  0.101131  0.122861  0  0.994294  0
H  H32  1  0.66795662  0.42955560  0.40083051  1  0.058347  0  0.092875  0.10794  0  1.015618  0
H  H33  1  0.51473678  0.33763649  0.24274667  1  0.155616  0  0.108337  0.121681  0  0.974168  0
H  H34  1  0.30179479  0.61812879  0.20068841  1  0.11829  0  0.110345  0.115198  0  0.995504  0
H  H35  1  0.20978268  0.62096303  0.29997308  1  0.121398  0  0.108316  0.113975  0  0.996165  0
H  H36  1  0.19187091  0.92803845  0.74529695  1  0.130157  0  0.118716  0.148133  0  0.97725  0
C  C37  1  0.35070620  0.48732462  0.12276307  1  1.574684  0  0.231657  0.614814  0  4.156534  0
C  C38  1  0.60425745  0.33668413  0.66273768  1  -0.034204  0  -0.139445  -0.209932  0  3.815627  0
C  C39  1  0.65250004  0.43223937  0.24186832  1  -0.02312  0  -0.014601  0.01534  0  3.906039  0
C  C40  1  0.65200746  0.52296916  0.87592353  1  1.595324  0  0.231533  0.615833  0  4.175587  0
C  C41  1  0.67866517  0.47104172  0.19030034  1  0.03478  0  -0.0079  -0.055797  0  3.944601  0
C  C42  1  0.76349075  0.50094117  0.18502768  1  -0.010648  0  -0.076603  -0.094574  0  3.952619  0
C  C43  1  0.81887610  0.49547444  0.23065210  1  -0.032412  0  -0.071537  -0.078603  0  3.95083  0
C  C44  1  0.79166873  0.45632959  0.28256682  1  -0.007734  0  -0.007987  -0.071762  0  3.969078  0
C  C45  1  0.70658331  0.42235581  0.28407837  1  -0.017268  0  -0.001159  0.078086  0  3.891227  0
C  C46  1  0.64251331  0.38178650  0.32690681  1  -0.017925  0  -0.158392  -0.240359  0  3.878794  0
C  C47  1  0.58423286  0.39908936  0.28384782  1  -0.171282  0  -0.079904  -0.019113  0  3.65905  0
C  C48  1  0.32921704  0.11378838  0.79218493  1  -0.033851  0  -0.082796  -0.206111  0  3.858908  0
C  C49  1  0.24480039  0.40614924  0.18757641  1  0.004244  0  0.003721  0.080215  0  3.876915  0
C  C50  1  0.28644776  0.48157023  0.17173404  1  0.052563  0  -0.004354  -0.056261  0  3.931413  0
C  C51  1  0.27112036  0.55831082  0.21237540  1  -0.046875  0  -0.071423  -0.079573  0  3.939115  0
C  C52  1  0.35595000  0.49087302  0.86206908  1  1.578944  0  0.232521  0.616128  0  4.170624  0
C  C53  1  0.21995033  0.56016643  0.26829201  1  -0.065435  0  -0.074427  -0.087687  0  3.942571  0
C  C54  1  0.18237087  0.48698427  0.28831904  1  0.048344  0  -0.005517  -0.042661  0  3.934624  0
C  C55  1  0.19573242  0.40942794  0.24530085  1  -0.052508  0  -0.014596  0.009516  0  3.917936  0
C  C56  1  0.18056277  0.31630240  0.23596481  1  -0.257428  0  -0.034551  0.062161  0  3.511321  0
C  C57  1  0.23958095  0.31449413  0.17143385  1  0.062164  0  -0.077695  -0.200149  0  3.802619  0
C  C58  1  0.66874699  0.94656387  0.22028965  1  0.030055  0  -0.000712  0.045966  0  3.891208  0
C  C59  1  0.68227629  0.44578245  0.73367643  1  0.039114  0  0.000216  0.065377  0  3.897351  0
C  C60  1  0.70018337  0.88729923  0.20395959  1  0.002265  0  -0.005307  -0.047873  0  3.957067  0
C  C61  1  0.79033390  0.94145492  0.24779468  1  0.114447  0  -0.082494  -0.124817  0  3.940514  0
C  C62  1  0.84588526  0.04909542  0.30380816  1  -0.257504  0  -0.035102  0.049591  0  3.849877  0
C  C63  1  0.81359073  0.10903666  0.31932364  1  -0.020173  0  -0.006556  -0.083592  0  3.916674  0
C  C64  1  0.62471883  0.48321314  0.14256800  1  1.563776  0  0.227774  0.606396  0  4.174125  0
C  C65  1  0.72347458  0.05297245  0.27669886  1  0.026958  0  0.003787  0.060256  0  3.882492  0
C  C66  1  0.65015848  0.06458317  0.26426372  1  -0.018965  0  -0.059919  -0.164006  0  3.767172  0
C  C67  1  0.58704130  0.94093956  0.19676793  1  0.044009  0  -0.061878  -0.162675  0  3.781475  0
C  C68  1  0.29462158  0.57362941  0.83894036  1  -0.058992  0  0.000189  0.060728  0  3.884421  0
C  C69  1  0.29169160  0.48577063  0.80710083  1  0.059063  0  0.003498  -0.072678  0  3.916453  0
C  C70  1  0.71122401  0.53082914  0.82081247  1  -0.021369  0  0.007269  -0.066257  0  3.900661  0
C  C71  1  0.23120155  0.39877289  0.71913597  1  -0.042229  0  -0.007178  -0.052373  0  3.93854  0
C  C72  1  0.18302353  0.40575641  0.66671038  1  0.016504  0  -0.07206  -0.102855  0  3.910497  0
C  C73  1  0.18849141  0.49650371  0.69939464  1  0.001935  0  -0.013163  -0.079672  0  3.97923  0
C  C74  1  0.24389265  0.57899601  0.78749946  1  0.015192  0  0.006084  0.077208  0  3.875557  0
C  C75  1  0.28184562  0.69042983  0.86034284  1  -0.017055  0  -0.14708  -0.199422  0  3.87353  0
C  C76  1  0.64258961  0.77321768  0.14466061  1  1.526839  0  0.233512  0.6162  0  4.162903  0
C  C77  1  0.34006216  0.68492511  0.91813904  1  -0.032896  0  -0.148536  -0.199829  0  3.861186  0
C  C78  1  0.85319410  0.46276701  0.34150294  1  1.571537  0  0.232504  0.616457  0  4.166536  0
C  C79  1  0.13817791  0.50215887  0.64114839  1  1.556744  0  0.228838  0.615032  0  4.164286  0
C  C80  1  0.87823473  0.52156899  0.65242950  1  1.555873  0  0.229435  0.610318  0  4.17939  0
C  C81  1  0.79900401  0.61736479  0.85224435  1  -0.006275  0  -0.002301  -0.045797  0  3.921643  0
C  C82  1  0.13412499  0.49552131  0.35352447  1  1.557954  0  0.227369  0.608574  0  4.168922  0
C  C83  1  0.86755303  0.22322954  0.37335885  1  1.618192  0  0.227092  0.619237  0  4.170493  0
C  C84  1  0.12812851  0.77623805  0.62187161  1  1.578147  0  0.217691  0.657573  0  4.171578  0
C  C85  1  0.38314182  0.22747295  0.85281419  1  1.583076  0  0.225075  0.65133  0  4.169504  0
C  C86  1  0.22279677  0.94996022  0.64482342  1  -0.270215  0  -0.029223  0.108415  0  3.907654  0
C  C87  1  0.18183410  0.88918560  0.67327340  1  0.014125  0  -0.097528  -0.27211  0  3.867352  0
C  C88  1  0.28130632  0.06174522  0.70585337  1  -0.003542  0  -0.077168  -0.064344  0  3.987775  0
C  C89  1  0.32723546  0.33633626  0.20589157  1  1.55518  0  0.218919  0.610968  0  4.10592  0
C  C90  1  0.65843252  0.11852690  0.22051738  1  1.532422  0  0.235877  0.609147  0  4.076312  0
C  C91  1  0.50969183  0.88563236  0.22076597  1  1.526874  0  0.234363  0.609822  0  4.086396  0
C  C92  1  0.85305214  0.61347463  0.79877991  1  -0.002305  0  -0.066078  -0.100413  0  3.89895  0
C  C93  1  0.21078219  0.29580740  0.68519819  1  1.511871  0  0.228512  0.581475  0  4.118659  0
C  C94  1  0.83203690  0.71814515  0.93868050  1  1.519829  0  0.229609  0.578563  0  4.1277  0
C  C95  1  0.63094577  0.31779176  0.51456729  1  1.534201  0  0.235056  0.610552  0  4.082513  0
C  C96  1  0.82239742  0.52629226  0.71065795  1  0.047376  0  -0.008609  -0.068029  0  3.973053  0
C  C97  1  0.73532642  0.44383148  0.68003771  1  -0.033877  0  0.005869  0.057785  0  3.870293  0
C  C98  1  0.66472793  0.33412624  0.60075735  1  0.012842  0  -0.069002  -0.155653  0  3.813288  0
I  I99  1  0.21395282  0.89595615  0.50975750  1  0.14294  0  0.07592  -0.016678  0  1.331262  0
I  I100  1  0.58358698  0.52752391  0.39083693  1  0.008113  0  0.064855  -0.058682  0  1.324839  0
I  I101  1  0.23033039  0.33789543  0.35821176  1  0.103309  0  0.044377  -0.026372  0  1.385143  0
I  I102  1  0.04358638  0.18358935  0.16376682  1  0.0753  0  0.028652  -0.055667  0  1.291284  0
I  I103  1  0.97758063  0.11313238  0.36625008  1  0.134803  0  0.062135  -0.036373  0  1.483108  0
O  O104  1  0.50224054  0.49852041  0.00225091  1  -1.211426  0  -0.573348  -1.034663  0  2.539202  0
O  O105  1  0.10884392  0.43028946  0.37235495  1  -1.158453  0  -0.306922  -0.538741  0  2.415443  0
O  O106  1  0.82779594  0.26460433  0.40996277  1  -1.159102  0  -0.307475  -0.532068  0  2.321541  0
O  O107  1  0.35733325  0.41180330  0.08517537  1  -1.165857  0  -0.307388  -0.533784  0  2.313053  0
O  O108  1  0.09170198  0.72243047  0.53682048  1  -1.192361  0  -0.318142  -0.551254  0  2.381579  0
O  O109  1  0.94702761  0.26924062  0.37686118  1  -1.181813  0  -0.309134  -0.537788  0  2.437682  0
O  O110  1  0.12310624  0.74233942  0.66978059  1  -1.159045  0  -0.320285  -0.550628  0  2.276064  0
O  O111  1  0.96129762  0.58803078  0.68947566  1  -1.158602  0  -0.310503  -0.539311  0  2.308607  0
O  O112  1  0.12263941  0.56686652  0.38542928  1  -1.162239  0  -0.314826  -0.545625  0  2.339285  0
O  O113  1  0.81930816  0.41996224  0.38158526  1  -1.162017  0  -0.30604  -0.529747  0  2.335782  0
O  O114  1  0.11017366  0.43402030  0.55650226  1  -1.17867  0  -0.313677  -0.550422  0  2.372459  0
O  O115  1  0.39024091  0.44404447  0.82098274  1  -1.158734  0  -0.308491  -0.53441  0  2.337202  0
O  O116  1  0.57062827  0.47184524  0.83312701  1  -1.159862  0  -0.306971  -0.536702  0  2.312141  0
O  O117  1  0.37470068  0.54841140  0.94710584  1  -1.156755  0  -0.306403  -0.532577  0  2.331875  0
O  O118  1  0.66606335  0.53846646  0.11457706  1  -1.16881  0  -0.312002  -0.542382  0  2.357834  0
O  O119  1  0.56144088  0.73230574  0.10967017  1  -1.169235  0  -0.30725  -0.538493  0  2.330388  0
O  O120  1  0.40295472  0.26580451  0.93695825  1  -1.161269  0  -0.318216  -0.548903  0  2.281536  0
O  O121  1  0.67830528  0.72676353  0.13451962  1  -1.160164  0  -0.307803  -0.531579  0  2.337604  0
O  O122  1  0.40431935  0.27614868  0.81657754  1  -1.182774  0  -0.316178  -0.546681  0  2.318491  0
O  O123  1  0.34124727  0.27109426  0.18170029  1  -1.138891  0  -0.302787  -0.489575  0  2.045212  0
O  O124  1  0.38729046  0.43813643  0.26681341  1  -1.153987  0  -0.34235  -0.482948  0  2.369846  0
O  O125  1  0.72358120  0.16578526  0.20569423  1  -1.133643  0  -0.291543  -0.483644  0  2.059239  0
O  O126  1  0.54269731  0.43716503  0.13252849  1  -1.168152  0  -0.31042  -0.540205  0  2.292585  0
O  O127  1  0.58155336  0.10627151  0.19723507  1  -1.114376  0  -0.338851  -0.48406  0  2.193258  0
O  O128  1  0.43280503  0.82742031  0.17289161  1  -1.136941  0  -0.292616  -0.491584  0  2.051916  0
O  O129  1  0.53586227  0.90866432  0.30398547  1  -1.1205  0  -0.337427  -0.486554  0  2.199833  0
O  O130  1  0.20983610  0.26550733  0.73180821  1  -1.124811  0  -0.298107  -0.486937  0  2.064728  0
O  O131  1  0.18832870  0.23476880  0.59365271  1  -1.129751  0  -0.342864  -0.48923  0  2.209388  0
O  O132  1  0.78676470  0.74870320  0.96809139  1  -1.122341  0  -0.295106  -0.483595  0  2.070184  0
O  O133  1  0.92057238  0.77590494  0.98008624  1  -1.134815  0  -0.337698  -0.484703  0  2.203337  0
O  O134  1  0.61523222  0.24806964  0.43878040  1  -1.150557  0  -0.291508  -0.492648  0  2.073874  0
O  O135  1  0.61661366  0.38940811  0.53103167  1  -1.114652  0  -0.337373  -0.486742  0  2.223391  0
O  O136  1  0.39543710  0.56847797  0.12493751  1  -1.172301  0  -0.311792  -0.542307  0  2.335166  0
O  O137  1  0.68651911  0.56150292  0.95777201  1  -1.159946  0  -0.308098  -0.534042  0  2.340653  0
O  O138  1  0.00325541  0.50120246  0.50168816  1  -1.233815  0  -0.573165  -1.030828  0  2.530324  0
O  O139  1  0.93427573  0.51386622  0.34979205  1  -1.171459  0  -0.313802  -0.544207  0  2.325291  0
O  O140  1  0.12844605  0.57515952  0.68090405  1  -1.169976  0  -0.310982  -0.541885  0  2.310101  0
O  O141  1  0.83579959  0.44870727  0.56894085  1  -1.179586  0  -0.308015  -0.538717  0  2.350774  0
