# generated using pymatgen
data_VH3C8I4O5
_symmetry_space_group_name_H-M   'P 1'
_cell_length_a   12.10043870
_cell_length_b   12.31462055
_cell_length_c   12.31442274
_cell_angle_alpha   76.03161588
_cell_angle_beta   60.57196621
_cell_angle_gamma   60.57115872
_symmetry_Int_Tables_number   1
_chemical_formula_structural   VH3C8I4O5
_chemical_formula_sum   'V4 H12 C32 I16 O20'
_cell_volume   1392.01096125
_cell_formula_units_Z   4
loop_
 _symmetry_equiv_pos_site_id
 _symmetry_equiv_pos_as_xyz
  1  'x, y, z'
loop_
 _atom_site_type_symbol
 _atom_site_label
 _atom_site_symmetry_multiplicity
 _atom_site_fract_x
 _atom_site_fract_y
 _atom_site_fract_z
 _atom_site_occupancy
 _atom_site_pbe_bader_charge
 _atom_site_pbe_bader_spin_density
 _atom_site_pbe_cm5_charge
 _atom_site_pbe_ddec_charge
 _atom_site_pbe_ddec_spin_density
 _atom_site_pbe_ddec_sum_bond_order
 _atom_site_pbe_magmom
V  V0  1  0.04830512  0.89681452  0.50028661  1  2.092052  1.010073  1.365564  1.87576  1.038237  2.819716  1.027
V  V1  1  0.44539448  0.10327367  0.49971018  1  2.091776  1.009584  1.365939  1.876262  1.037963  2.819612  1.027
V  V2  1  0.29856673  0.99976397  0.39675765  1  2.094475  1.009499  1.366028  1.875003  1.037892  2.819267  1.027
V  V3  1  0.69508174  0.00041749  0.60320859  1  2.089871  1.009182  1.3663  1.875113  1.037406  2.820158  1.027
H  H4  1  0.00710078  0.94889725  0.19464752  1  0.107812  -2.5e-05  0.10322  0.114692  -0.000242  1.017869  0.0
H  H5  1  0.15060519  0.05093428  0.80543565  1  0.094249  -2e-05  0.102933  0.114059  -0.000241  1.018083  0.0
H  H6  1  0.95155918  0.30539714  0.44910779  1  0.105076  -2.5e-05  0.102537  0.113202  -0.000241  1.01888  0.0
H  H7  1  0.70597487  0.69467597  0.55080283  1  0.104092  -2.5e-05  0.103435  0.115189  -0.000241  1.018241  0.0
H  H8  1  0.59781541  0.69529722  0.45155928  1  0.096852  -1.2e-05  0.103007  0.114388  -0.000238  1.018427  0.0
H  H9  1  0.74482151  0.30473129  0.54827529  1  0.114641  -2.2e-05  0.103165  0.114575  -0.000239  1.017961  0.0
H  H10  1  0.04319761  0.95129979  0.80483545  1  0.101296  -1.4e-05  0.103413  0.115039  -0.000238  1.01871  0.0
H  H11  1  0.79935666  0.04842941  0.19531741  1  0.102904  -1.6e-05  0.102474  0.113748  -0.000239  1.018153  0.0
H  H12  1  0.38674317  0.99980362  0.99994143  1  0.132274  -6.4e-05  0.099392  0.11669  -0.000245  1.014421  0.0
H  H13  1  0.13642236  0.50009898  0.50011705  1  0.087983  -5.3e-05  0.099127  0.115846  -0.000246  1.014893  0.0
H  H14  1  0.36360548  0.49994990  0.49995622  1  0.085919  -4e-05  0.099126  0.116254  -0.000207  1.01549  0.0
H  H15  1  0.61344916  0.00014802  0.99999524  1  0.083645  -3.8e-05  0.099087  0.115833  -0.000207  1.015731  0.0
C  C16  1  0.08137868  0.97220067  0.10851826  1  0.011089  0.006261  -0.070633  -0.105908  0.005457  3.880053  0.004
C  C17  1  0.16215482  0.02757005  0.89152797  1  -0.019835  0.006266  -0.07128  -0.104752  0.005453  3.877721  0.004
C  C18  1  0.93975129  0.39154160  0.47233586  1  -0.043567  0.006251  -0.070842  -0.104997  0.005432  3.879262  0.004
C  C19  1  0.80357917  0.60856580  0.52753278  1  -0.065863  0.006272  -0.072658  -0.10904  0.005447  3.882989  0.004
C  C20  1  0.58704770  0.60889245  0.47379964  1  -0.024652  0.008483  -0.072874  -0.107815  0.007478  3.883428  0.005
C  C21  1  0.66990449  0.39112694  0.52599356  1  -0.031781  0.008466  -0.073144  -0.10773  0.007459  3.882527  0.005
C  C22  1  0.94600340  0.97361990  0.89122803  1  -0.059255  0.0085  -0.073619  -0.109923  0.007479  3.884614  0.005
C  C23  1  0.81087998  0.02614034  0.10890184  1  -0.024955  0.008482  -0.072205  -0.107963  0.007474  3.882376  0.005
C  C24  1  0.19565369  0.97481684  0.10960885  1  -0.021259  -0.004244  -0.026548  -0.048231  -0.004678  3.986377  -0.004
C  C25  1  0.28018005  0.02491004  0.89037166  1  -0.012684  -0.004255  -0.026326  -0.04951  -0.004672  3.985685  -0.004
C  C26  1  0.05507509  0.39045072  0.47498983  1  0.021254  -0.004246  -0.026416  -0.050363  -0.004668  3.987331  -0.004
C  C27  1  0.92036758  0.60973398  0.52503892  1  0.033975  -0.004268  -0.02587  -0.046965  -0.004677  3.986177  -0.004
C  C28  1  0.46903329  0.61008684  0.47641684  1  -0.028078  -0.004424  -0.025637  -0.048108  -0.004791  3.984127  -0.004
C  C29  1  0.55569549  0.38992418  0.52334020  1  -0.041559  -0.00441  -0.027042  -0.049533  -0.004791  3.986651  -0.004
C  C30  1  0.82906625  0.97645049  0.89000318  1  0.009376  -0.004443  -0.026976  -0.047601  -0.004791  3.98537  -0.004
C  C31  1  0.69547462  0.02353073  0.11008168  1  -0.003643  -0.00444  -0.0258  -0.04636  -0.004798  3.985002  -0.004
C  C32  1  0.29670878  0.99984122  0.99997520  1  -0.0256  0.006893  -0.079746  -0.094516  0.005904  3.923944  0.004
C  C33  1  0.04644128  0.50010022  0.50006263  1  0.009634  0.006878  -0.079229  -0.092924  0.005899  3.925215  0.004
C  C34  1  0.45362551  0.49998689  0.49991091  1  0.032581  0.008937  -0.080218  -0.096402  0.007742  3.92532  0.006
C  C35  1  0.70349361  0.00005665  0.00002764  1  0.016255  0.008952  -0.079752  -0.095688  0.007749  3.926095  0.006
C  C36  1  0.20420478  0.95441486  0.23005430  1  1.493502  0.016289  0.226093  0.617027  0.016364  4.090774  0.015
C  C37  1  0.38874532  0.04540615  0.76995693  1  1.512099  0.016291  0.227631  0.620057  0.016373  4.087428  0.015
C  C38  1  0.18412995  0.27002426  0.45453439  1  1.489529  0.016304  0.228039  0.620657  0.016351  4.083797  0.015
C  C39  1  0.90850529  0.73018650  0.54545451  1  1.509945  0.016236  0.225934  0.619071  0.01635  4.087464  0.015
C  C40  1  0.35959613  0.73109537  0.45762210  1  1.513055  0.017435  0.226557  0.618765  0.017488  4.094207  0.015
C  C41  1  0.54838230  0.26894086  0.54226695  1  1.521032  0.017457  0.225582  0.61695  0.017607  4.092969  0.015
C  C42  1  0.84070918  0.95769389  0.76894604  1  1.520327  0.017439  0.225626  0.617413  0.017507  4.092951  0.015
C  C43  1  0.56721158  0.04235075  0.23112448  1  1.520881  0.017472  0.224517  0.614119  0.017602  4.09684  0.015
C  C44  1  0.06162667  0.99986307  0.00004093  1  0.034381  -0.001711  -0.003411  0.068861  -0.001768  3.958969  -0.001
C  C45  1  0.81156551  0.50005189  0.49992606  1  0.053725  -0.001711  -0.002485  0.070838  -0.001764  3.960364  -0.001
C  C46  1  0.68855002  0.50001757  0.49992049  1  0.039235  -0.002345  -0.002707  0.070609  -0.002392  3.961542  -0.002
C  C47  1  0.93856266  0.99985399  0.00007797  1  0.006957  -0.002336  -0.003157  0.070496  -0.002396  3.96209  -0.002
I  I48  1  0.29306811  0.27153897  0.12564532  1  0.118828  0.004037  0.125905  0.132506  0.004531  2.218654  0.002
I  I49  1  0.68997441  0.72848984  0.87445129  1  0.115064  0.004037  0.125563  0.132034  0.004528  2.21768  0.002
I  I50  1  0.16827580  0.37452126  0.77176281  1  0.117784  0.004064  0.12548  0.132467  0.00456  2.217399  0.002
I  I51  1  0.31444193  0.62560263  0.22853769  1  0.120536  0.004007  0.125426  0.132449  0.004492  2.218019  0.002
I  I52  1  0.05644525  0.62571195  0.77776098  1  0.104785  0.004364  0.120077  0.124057  0.004868  2.200795  0.003
I  I53  1  0.45986900  0.37442884  0.22228651  1  0.10178  0.004385  0.119608  0.122861  0.004893  2.201104  0.003
I  I54  1  0.43193341  0.27784146  0.87442654  1  0.103658  0.004367  0.119797  0.123104  0.004874  2.200454  0.003
I  I55  1  0.58416606  0.72239446  0.12560786  1  0.107159  0.004385  0.119995  0.12331  0.004897  2.202744  0.003
I  I56  1  0.00239750  0.30638288  0.16307454  1  -0.081992  -0.000514  -0.0466  -0.096043  -0.000904  1.969039  0.0
I  I57  1  0.47175594  0.69331700  0.83698203  1  -0.082452  -0.000576  -0.046623  -0.096497  -0.000988  1.969028  0.0
I  I58  1  0.91519209  0.33698058  0.80664301  1  -0.080472  -0.000518  -0.04668  -0.096316  -0.00091  1.970513  0.0
I  I59  1  0.05877874  0.66295802  0.19346637  1  -0.082085  -0.000543  -0.046191  -0.095921  -0.000945  1.969922  0.0
I  I60  1  0.27643590  0.66377216  0.80783968  1  -0.074324  -0.001102  -0.043634  -0.090713  -0.001671  1.982653  -0.001
I  I61  1  0.74831671  0.33607757  0.19218179  1  -0.075115  -0.001044  -0.043887  -0.091296  -0.001593  1.980715  -0.001
I  I62  1  0.69034818  0.30779378  0.83615364  1  -0.077248  -0.001092  -0.044017  -0.091405  -0.001658  1.981992  -0.001
I  I63  1  0.83438982  0.69211658  0.16376970  1  -0.075657  -0.001044  -0.044201  -0.091642  -0.001592  1.982448  -0.001
O  O64  1  0.13966157  0.89237359  0.31417699  1  -1.141856  0.014709  -0.351353  -0.585083  0.009338  2.38004  -0.003
O  O65  1  0.34623543  0.10742763  0.68585322  1  -1.144286  0.014705  -0.353345  -0.587784  0.009356  2.379319  -0.003
O  O66  1  0.20370630  0.18592313  0.39245261  1  -1.140631  0.014675  -0.352336  -0.586247  0.009326  2.378197  -0.003
O  O67  1  0.78192596  0.81429302  0.60748978  1  -1.151441  0.014682  -0.351651  -0.585355  0.009347  2.379175  -0.003
O  O68  1  0.40182779  0.81609232  0.39830737  1  -1.137588  0.009406  -0.357039  -0.586679  0.003517  2.379842  -0.009
O  O69  1  0.61635675  0.18398692  0.60156028  1  -1.144658  0.009443  -0.356  -0.584835  0.003506  2.37714  -0.009
O  O70  1  0.96795985  0.89840323  0.68393392  1  -1.136727  0.009296  -0.35531  -0.585749  0.003488  2.378046  -0.009
O  O71  1  0.55022990  0.10159679  0.31611418  1  -1.141067  0.009528  -0.355879  -0.584908  0.003511  2.379143  -0.009
O  O72  1  0.27320827  0.99726619  0.24347375  1  -1.125074  0.003687  -0.327061  -0.574022  -0.000307  2.423505  -0.011
O  O73  1  0.51400644  0.00274405  0.75653454  1  -1.132289  0.003761  -0.327116  -0.574371  -0.000326  2.421438  -0.011
O  O74  1  0.26661541  0.25658004  0.49733603  1  -1.124838  0.003633  -0.327511  -0.575278  -0.000346  2.418456  -0.011
O  O75  1  0.02037021  0.74357282  0.50271127  1  -1.125845  0.003625  -0.326557  -0.576119  -0.000321  2.422393  -0.011
O  O76  1  0.23452102  0.74507614  0.49887642  1  -1.13724  0.001956  -0.32605  -0.575706  -0.001737  2.404421  -0.008
O  O77  1  0.47842263  0.25495081  0.50116491  1  -1.137682  0.001928  -0.32668  -0.5759  -0.001741  2.405  -0.008
O  O78  1  0.72965415  0.99893372  0.75490660  1  -1.135195  0.001854  -0.325883  -0.57493  -0.001781  2.402556  -0.008
O  O79  1  0.48336318  0.00113895  0.24510284  1  -1.14057  0.001953  -0.325743  -0.573544  -0.001756  2.405428  -0.008
O  O80  1  0.87796312  0.98685159  0.50970141  1  -0.899452  -0.09165  -0.637604  -0.866526  -0.096915  1.859644  -0.114
O  O81  1  0.37448229  0.01330497  0.49018008  1  -0.89824  -0.091863  -0.637185  -0.866791  -0.097019  1.859571  -0.114
O  O82  1  0.13767225  0.99031716  0.48675295  1  -0.899838  -0.091536  -0.638478  -0.867893  -0.096823  1.861625  -0.113
O  O83  1  0.61472676  0.00986920  0.51323391  1  -0.896745  -0.091719  -0.637389  -0.867418  -0.096806  1.861992  -0.113
