# generated using pymatgen
data_Mn2H14C12N4O13
_symmetry_space_group_name_H-M   'P 1'
_cell_length_a   7.15386401
_cell_length_b   10.36995554
_cell_length_c   13.40600917
_cell_angle_alpha   102.55488340
_cell_angle_beta   100.91193679
_cell_angle_gamma   102.29539812
_symmetry_Int_Tables_number   1
_chemical_formula_structural   Mn2H14C12N4O13
_chemical_formula_sum   'Mn4 H28 C24 N8 O26'
_cell_volume   919.08592424
_cell_formula_units_Z   2
loop_
 _symmetry_equiv_pos_site_id
 _symmetry_equiv_pos_as_xyz
  1  'x, y, z'
loop_
 _atom_site_type_symbol
 _atom_site_label
 _atom_site_symmetry_multiplicity
 _atom_site_fract_x
 _atom_site_fract_y
 _atom_site_fract_z
 _atom_site_occupancy
 _atom_site_hle17_ddec_charge
 _atom_site_hle17_ddec_spin_density
 _atom_site_hle17_ddec_sum_bond_order
 _atom_site_hle17_magmom
 _atom_site_hse06_10hf_ddec_charge
 _atom_site_hse06_10hf_ddec_spin_density
 _atom_site_hse06_10hf_ddec_sum_bond_order
 _atom_site_hse06_10hf_magmom
 _atom_site_hse06_ddec_charge
 _atom_site_hse06_ddec_spin_density
 _atom_site_hse06_ddec_sum_bond_order
 _atom_site_hse06_magmom
 _atom_site_pbe_cm5_charge
 _atom_site_pbe_ddec_charge
 _atom_site_pbe_ddec_spin_density
 _atom_site_pbe_ddec_sum_bond_order
 _atom_site_pbe_magmom
Mn  Mn0  1  0.21316993  0.99413156  0.80426784  1  1.164632  4.78791  1.801411  4.676  0.996879  4.70803  2.305856  4.528  1.049515  4.754199  2.238121  4.594  0.61518  0.962646  4.647219  2.355394  4.448
Mn  Mn1  1  0.78682956  0.00586593  0.19573948  1  1.16467  4.788013  1.801432  4.676  0.996954  4.708066  2.305843  4.528  1.049576  4.754239  2.238114  4.594  0.615215  0.962732  4.647235  2.355373  4.448
Mn  Mn2  1  0.83223798  0.48734784  0.69193678  1  1.20411  4.828598  1.615171  4.705  1.033564  4.761758  2.080091  4.569  1.091427  4.798259  2.014702  4.625  0.590635  0.989109  4.723919  2.128063  4.512
Mn  Mn3  1  0.16776558  0.51265154  0.30806309  1  1.203993  4.828607  1.615226  4.705  1.03348  4.761763  2.08012  4.569  1.091343  4.798265  2.014735  4.625  0.590619  0.989021  4.723922  2.128089  4.512
H  H4  1  0.39442418  0.80810640  0.72351645  1  0.420096  -0.000121  0.893629  0.001  0.386761  0.000557  0.961843  0.002  0.397718  0.000321  0.945921  0.001  0.29639  0.379315  0.000776  0.972654  0.002
H  H5  1  0.60557093  0.19189297  0.27648094  1  0.42012  -0.000121  0.893599  0.001  0.386783  0.000557  0.961822  0.002  0.397748  0.000321  0.945885  0.001  0.296381  0.379338  0.000776  0.972633  0.002
H  H6  1  0.41864447  0.79367817  0.84229948  1  0.428757  4.1e-05  0.87539  0.001  0.396018  0.000653  0.939982  0.002  0.408326  0.000399  0.922297  0.002  0.296569  0.387492  0.000879  0.9522  0.002
H  H7  1  0.58135463  0.20632428  0.15769958  1  0.428816  4.1e-05  0.875297  0.001  0.396097  0.000653  0.939862  0.002  0.408402  0.000398  0.922181  0.002  0.296601  0.387569  0.000879  0.952086  0.002
H  H8  1  0.87868678  0.92730499  0.89154701  1  0.435089  0.000951  0.811468  0.002  0.418656  0.002105  0.863347  0.003  0.426682  0.001528  0.854337  0.003  0.32986  0.413291  0.002641  0.869334  0.003
H  H9  1  0.12116972  0.07262438  0.10833616  1  0.43517  0.000951  0.811565  0.002  0.418702  0.002105  0.863516  0.003  0.426731  0.001528  0.854494  0.003  0.329855  0.41334  0.002641  0.869502  0.003
H  H10  1  0.97517101  0.79887957  0.87073963  1  0.438363  -0.000292  0.863642  0.001  0.400636  0.000426  0.93742  0.002  0.413431  0.000103  0.918873  0.002  0.293553  0.391593  0.000742  0.950498  0.002
H  H11  1  0.02485307  0.20113319  0.12926990  1  0.438229  -0.000291  0.863835  0.001  0.400572  0.000427  0.937494  0.002  0.413364  0.000103  0.918953  0.002  0.29356  0.391531  0.000743  0.950569  0.002
H  H12  1  0.89415142  0.74490807  0.63513044  1  0.430626  -0.000172  0.869131  0.002  0.397712  0.000434  0.935175  0.002  0.409528  0.000121  0.917963  0.002  0.295438  0.389194  0.000729  0.947511  0.003
H  H13  1  0.10585210  0.25509132  0.36487017  1  0.430633  -0.000171  0.869118  0.002  0.397741  0.000434  0.935124  0.002  0.409553  0.000121  0.917919  0.002  0.295459  0.389224  0.000729  0.947459  0.003
H  H14  1  0.67767487  0.69948391  0.64688987  1  0.418574  0.000115  0.882075  0.001  0.390008  0.000657  0.9423  0.002  0.399635  0.000378  0.92814  0.002  0.297572  0.38319  0.00092  0.952313  0.002
H  H15  1  0.32232023  0.30051430  0.35309987  1  0.418644  0.000115  0.881954  0.001  0.390042  0.000657  0.942245  0.002  0.39967  0.000378  0.928084  0.002  0.297543  0.383224  0.000919  0.952258  0.002
H  H16  1  0.56717841  0.58882897  0.81149849  1  0.424492  -0.00017  0.881955  0.0  0.390606  0.000248  0.951409  0.001  0.401933  4.9e-05  0.934926  0.001  0.28998  0.382619  0.000457  0.962977  0.001
H  H17  1  0.43281975  0.41117448  0.18849913  1  0.424519  -0.000171  0.881921  0.0  0.390586  0.000248  0.951445  0.001  0.401909  4.9e-05  0.934969  0.001  0.289936  0.3826  0.000457  0.963012  0.001
H  H18  1  0.41246084  0.50419959  0.70628995  1  0.421226  6e-06  0.850551  0.001  0.395777  0.000708  0.915731  0.002  0.406306  0.000366  0.900342  0.001  0.29875  0.388108  0.001061  0.926902  0.002
H  H19  1  0.58754023  0.49580383  0.29370651  1  0.421253  7e-06  0.850546  0.001  0.395797  0.000709  0.915714  0.002  0.406325  0.000367  0.900328  0.001  0.298733  0.388125  0.001061  0.926889  0.002
H  H20  1  0.16239012  0.56056548  0.59191251  1  0.428646  -0.000491  0.859209  0.001  0.399451  -8.7e-05  0.92185  0.001  0.411289  -0.000287  0.90461  0.001  0.299931  0.390847  0.000121  0.934358  0.002
H  H21  1  0.83761119  0.43943486  0.40808351  1  0.42848  -0.00049  0.859414  0.001  0.399311  -8.6e-05  0.922012  0.001  0.411137  -0.000287  0.904793  0.001  0.299917  0.390708  0.000122  0.934525  0.002
H  H22  1  0.19476764  0.64471014  0.70922148  1  0.405581  -0.000632  0.894522  0.0  0.375029  -3e-05  0.968593  0.001  0.385724  -0.000294  0.953075  0.001  0.295746  0.367341  0.000219  0.979672  0.001
H  H23  1  0.80522536  0.35528715  0.29077310  1  0.405623  -0.000632  0.894507  0.0  0.375071  -3e-05  0.968541  0.001  0.385759  -0.000294  0.953028  0.001  0.295763  0.367383  0.000219  0.979618  0.001
H  H24  1  0.95275584  0.19328772  0.69373796  1  0.086289  -0.000204  0.944182  0.0  0.088797  0.000487  1.015724  0.0  0.092124  0.000278  1.011566  0.0  0.135409  0.086122  0.000675  1.01908  0.0
H  H25  1  0.04725089  0.80671271  0.30626393  1  0.086306  -0.000202  0.944053  0.0  0.08885  0.000487  1.015578  0.0  0.09218  0.000278  1.011415  0.0  0.135405  0.086164  0.000676  1.018936  0.0
H  H26  1  0.33481038  0.49076679  0.03815175  1  0.134744  0.000233  0.939922  0.0  0.139431  0.00028  1.007478  0.001  0.14377  0.000176  1.00534  0.0  0.120357  0.136192  0.000399  1.009228  0.001
H  H27  1  0.66519739  0.50922844  0.96184575  1  0.134767  0.000232  0.93991  0.0  0.139421  0.00028  1.007487  0.001  0.14376  0.000176  1.00535  0.0  0.120334  0.136183  0.000399  1.009242  0.001
H  H28  1  0.62380587  0.24828142  0.80902392  1  0.090492  -0.000338  0.921904  0.0  0.093882  0.000214  0.991818  0.0  0.096995  4.4e-05  0.98798  0.0  0.137042  0.091557  0.000397  0.994818  0.0
H  H29  1  0.37620043  0.75172215  0.19098213  1  0.090433  -0.000347  0.921868  0.0  0.093831  0.000214  0.991777  0.0  0.096943  4.3e-05  0.987943  0.0  0.137015  0.091505  0.000397  0.994774  0.0
H  H30  1  0.28642665  0.05724693  0.43655794  1  0.142807  0.000101  0.933375  0.0  0.1457  0.000153  0.999942  0.001  0.150757  5.4e-05  0.996841  0.0  0.121209  0.141961  0.000243  1.00239  0.001
H  H31  1  0.71357857  0.94275353  0.56344527  1  0.142815  0.000104  0.93338  0.0  0.145689  0.000153  0.999949  0.001  0.150745  5.4e-05  0.996848  0.0  0.121193  0.141956  0.000243  1.002398  0.001
C  C32  1  0.03336298  0.25823209  0.77235847  1  0.327883  0.004471  3.637449  0.005  0.276297  0.007848  3.91215  0.007  0.291009  0.006513  3.921866  0.006  0.200925  0.266145  0.00934  3.906919  0.008
C  C33  1  0.96663829  0.74176528  0.22764232  1  0.327837  0.004465  3.637319  0.005  0.276159  0.007849  3.912083  0.007  0.290871  0.006514  3.9218  0.006  0.200933  0.266015  0.009341  3.906837  0.008
C  C34  1  0.12406854  0.46928755  0.89294924  1  0.169606  0.003692  3.676574  0.004  0.164343  0.007506  3.92584  0.006  0.172402  0.005591  3.939346  0.005  0.141931  0.15737  0.011989  3.918421  0.01
C  C35  1  0.87593466  0.53071079  0.10704968  1  0.169542  0.003684  3.676548  0.004  0.16434  0.007508  3.92567  0.006  0.1724  0.005591  3.939174  0.005  0.141923  0.157365  0.011992  3.918247  0.01
C  C36  1  0.24919755  0.42322588  0.96177385  1  -0.148126  -0.004538  3.64995  -0.003  -0.178462  -0.003247  3.904251  -0.002  -0.186032  -0.004304  3.921456  -0.002  -0.060233  -0.173378  -0.002859  3.894255  -0.002
C  C37  1  0.75080908  0.57677341  0.03822189  1  -0.148064  -0.004525  3.649846  -0.003  -0.178408  -0.003248  3.904141  -0.002  -0.185978  -0.004304  3.921346  -0.002  -0.060211  -0.173329  -0.00286  3.894154  -0.002
C  C38  1  0.25312680  0.28731396  0.93000472  1  0.155029  0.003435  3.694831  0.004  0.15089  0.007419  3.945313  0.006  0.157951  0.005325  3.958726  0.005  0.137377  0.144218  0.01245  3.938879  0.01
C  C39  1  0.74687802  0.71268847  0.06999427  1  0.155004  0.003438  3.694752  0.004  0.150861  0.00742  3.945183  0.006  0.157919  0.005327  3.958596  0.005  0.137405  0.144184  0.012455  3.938755  0.01
C  C40  1  0.09462249  0.61212432  0.92376279  1  0.604624  -5e-05  3.927748  0.0  0.553706  0.002246  4.228778  0.002  0.585542  0.001095  4.222802  0.001  0.210087  0.532073  0.003497  4.232449  0.003
C  C41  1  0.90539249  0.38787618  0.07624531  1  0.60469  -4.5e-05  3.927479  0.0  0.553831  0.002245  4.228341  0.002  0.585667  0.001095  4.222363  0.001  0.210222  0.532202  0.003498  4.232008  0.003
C  C42  1  0.37848589  0.22103333  0.99579849  1  0.627067  0.005709  3.902423  0.005  0.56996  0.011448  4.20541  0.01  0.603526  0.00811  4.197711  0.007  0.227318  0.546569  0.016152  4.210757  0.013
C  C43  1  0.62152993  0.77897520  0.00420122  1  0.62699  0.005704  3.902558  0.005  0.5699  0.011451  4.205525  0.01  0.60347  0.008111  4.197823  0.007  0.227237  0.546508  0.016157  4.210877  0.013
C  C44  1  0.54797133  0.20560496  0.72544508  1  0.317633  0.003926  3.63691  0.005  0.267715  0.007166  3.911301  0.007  0.281609  0.005695  3.92208  0.006  0.19714  0.258293  0.009151  3.904336  0.008
C  C45  1  0.45202746  0.79439761  0.27455994  1  0.317617  0.003967  3.636872  0.005  0.267708  0.007168  3.91127  0.007  0.281603  0.005701  3.922047  0.006  0.197137  0.258287  0.009155  3.904301  0.008
C  C46  1  0.29876883  0.04280092  0.59642170  1  0.160745  0.002738  3.701002  0.003  0.157824  0.005956  3.949635  0.005  0.164078  0.004488  3.964666  0.004  0.13814  0.152395  0.009292  3.941029  0.008
C  C47  1  0.70123146  0.95720162  0.40358200  1  0.160761  0.002755  3.701005  0.003  0.157758  0.005959  3.949724  0.005  0.164033  0.004493  3.964733  0.004  0.138173  0.152337  0.009297  3.941122  0.008
C  C48  1  0.36203234  0.09880017  0.51950941  1  -0.138426  -0.003835  3.650887  -0.002  -0.169689  -0.002787  3.90438  -0.002  -0.1764  -0.00378  3.921508  -0.002  -0.0601  -0.16563  -0.00227  3.894439  -0.002
C  C49  1  0.63796969  0.90120342  0.48049615  1  -0.138518  -0.003869  3.650958  -0.002  -0.169682  -0.002788  3.904417  -0.002  -0.176398  -0.003784  3.921538  -0.002  -0.060134  -0.165639  -0.002272  3.894489  -0.002
C  C50  1  0.52408041  0.21279000  0.55368692  1  0.154075  0.002942  3.699446  0.003  0.150153  0.006184  3.947384  0.005  0.156269  0.004638  3.962337  0.004  0.137043  0.144811  0.009408  3.93846  0.008
C  C51  1  0.47591804  0.78721569  0.44632077  1  0.154091  0.002951  3.699462  0.003  0.150184  0.006186  3.947404  0.005  0.156296  0.004641  3.962361  0.004  0.137125  0.144854  0.009413  3.938484  0.008
C  C52  1  0.11998652  0.92101284  0.56790169  1  0.610875  0.001895  3.929143  0.002  0.556422  0.005331  4.232404  0.005  0.588917  0.003395  4.226233  0.004  0.213098  0.534142  0.007543  4.235387  0.006
C  C53  1  0.88001776  0.07899278  0.43210369  1  0.611023  0.001897  3.92907  0.002  0.556587  0.00533  4.232366  0.005  0.589065  0.003395  4.226203  0.004  0.213195  0.534294  0.007543  4.235373  0.006
C  C54  1  0.60630460  0.28017972  0.47646722  1  0.627956  0.001049  3.908527  0.001  0.571656  0.003726  4.209285  0.003  0.604338  0.002411  4.201909  0.002  0.227572  0.549466  0.005319  4.213901  0.004
C  C55  1  0.39369869  0.71982391  0.52354148  1  0.627914  0.001047  3.908484  0.001  0.571554  0.003726  4.209372  0.003  0.604239  0.002411  4.201995  0.002  0.227486  0.549357  0.00532  4.214  0.004
N  N56  1  0.14295841  0.20437835  0.83555475  1  -0.377905  0.025028  3.177283  0.013  -0.318931  0.031956  3.451627  0.017  -0.337314  0.027798  3.462564  0.013  -0.29853  -0.307585  0.036929  3.446971  0.021
N  N57  1  0.85704277  0.79561904  0.16444753  1  -0.377942  0.025027  3.177233  0.013  -0.318907  0.031955  3.45155  0.017  -0.337287  0.027798  3.462487  0.013  -0.298544  -0.307564  0.03693  3.446889  0.021
N  N58  1  0.01839255  0.38713049  0.79794303  1  -0.362046  0.023403  3.177195  0.013  -0.303235  0.028937  3.44999  0.015  -0.322332  0.024483  3.461769  0.011  -0.292947  -0.290568  0.034722  3.443383  0.02
N  N59  1  0.98161010  0.61286689  0.20205867  1  -0.361945  0.023412  3.17706  0.013  -0.303118  0.028936  3.449824  0.015  -0.322215  0.024483  3.461602  0.011  -0.292919  -0.290451  0.034724  3.443205  0.02
N  N60  1  0.61590676  0.26697489  0.65632675  1  -0.365666  0.02145  3.19034  0.011  -0.305558  0.026551  3.458784  0.013  -0.324803  0.022684  3.472671  0.01  -0.291467  -0.291912  0.030942  3.449603  0.017
N  N61  1  0.38409440  0.73302667  0.34367988  1  -0.365642  0.021427  3.190366  0.011  -0.305538  0.026549  3.458812  0.013  -0.324783  0.022679  3.472701  0.01  -0.291504  -0.291898  0.03094  3.44963  0.017
N  N62  1  0.39359259  0.09506358  0.69921978  1  -0.371076  0.024893  3.158289  0.015  -0.315758  0.032332  3.432702  0.019  -0.333021  0.027987  3.443746  0.016  -0.295715  -0.304675  0.037355  3.426737  0.024
N  N63  1  0.60640667  0.90493998  0.30078395  1  -0.371015  0.024875  3.158302  0.015  -0.315703  0.03233  3.432767  0.019  -0.33297  0.027983  3.443803  0.016  -0.295672  -0.304621  0.037354  3.426796  0.024
O  O64  1  0.33072634  0.81802263  0.78453922  1  -0.84661  0.032984  1.933208  0.02  -0.772567  0.041774  2.141975  0.026  -0.799218  0.037571  2.105951  0.022  -0.56624  -0.752533  0.04559  2.166381  0.029
O  O65  1  0.66927166  0.18198087  0.21546137  1  -0.846656  0.032982  1.933082  0.02  -0.772628  0.041772  2.14179  0.026  -0.799278  0.037569  2.105762  0.022  -0.566248  -0.752616  0.045589  2.166228  0.029
O  O66  1  0.99437803  0.90044761  0.87613049  1  -0.840935  0.031767  1.864393  0.019  -0.780828  0.042245  2.078619  0.025  -0.803052  0.037608  2.043974  0.021  -0.566469  -0.763978  0.046473  2.102656  0.028
O  O67  1  0.00562708  0.09956771  0.12390184  1  -0.840956  0.031774  1.864791  0.019  -0.780901  0.042254  2.079055  0.025  -0.80312  0.037616  2.04441  0.021  -0.56653  -0.764056  0.046483  2.103088  0.028
O  O68  1  0.79217131  0.66417748  0.63766491  1  -0.847311  0.029063  1.912536  0.019  -0.78618  0.035611  2.115193  0.023  -0.810057  0.03146  2.079301  0.019  -0.581659  -0.767867  0.039666  2.140166  0.027
O  O69  1  0.20782925  0.33582196  0.36233760  1  -0.847342  0.029062  1.912404  0.019  -0.786198  0.035612  2.115066  0.023  -0.810076  0.03146  2.079177  0.019  -0.581643  -0.76789  0.039667  2.14004  0.027
O  O70  1  0.54503494  0.51144861  0.74808661  1  -0.839763  0.020612  1.84243  0.012  -0.783761  0.02979  2.042359  0.019  -0.80632  0.026197  2.008574  0.016  -0.575913  -0.766688  0.033222  2.066217  0.021
O  O71  1  0.45496012  0.48854779  0.25191554  1  -0.839807  0.020614  1.842391  0.012  -0.783741  0.029792  2.042343  0.019  -0.8063  0.026198  2.008563  0.016  -0.575856  -0.76667  0.033224  2.066203  0.021
O  O72  1  0.14446495  0.55003836  0.66196154  1  -0.823647  0.024046  1.881605  0.017  -0.76043  0.032413  2.074513  0.023  -0.784584  0.028345  2.039391  0.02  -0.55966  -0.741978  0.036291  2.0993  0.026
O  O73  1  0.85553126  0.44995996  0.33803433  1  -0.823484  0.024041  1.8817  0.017  -0.760316  0.03241  2.074649  0.023  -0.78445  0.028343  2.039564  0.02  -0.559655  -0.741874  0.036289  2.099427  0.026
O  O74  1  0.18102511  0.68694503  0.01375049  1  -0.56232  0.00302  1.904489  0.004  -0.527888  0.005556  2.126921  0.007  -0.549924  0.003884  2.121407  0.005  -0.311274  -0.512474  0.008058  2.130626  0.009
O  O75  1  0.81898144  0.31304531  0.98625880  1  -0.562414  0.003018  1.904281  0.004  -0.528028  0.005557  2.126703  0.007  -0.550061  0.003883  2.121182  0.005  -0.311354  -0.51262  0.008059  2.130416  0.009
O  O76  1  0.97386564  0.64000991  0.85169356  1  -0.65725  0.0264  2.06842  0.019  -0.579378  0.031659  2.308675  0.023  -0.611434  0.028108  2.298692  0.02  -0.299897  -0.556104  0.035359  2.3151  0.026
O  O77  1  0.02615838  0.35999455  0.14830948  1  -0.657158  0.026402  2.068308  0.019  -0.579387  0.031663  2.308674  0.023  -0.611449  0.028112  2.298701  0.02  -0.299963  -0.556109  0.035362  2.315091  0.026
O  O78  1  0.40489276  0.10906229  0.94906568  1  -0.58369  0.032217  2.038022  0.021  -0.524584  0.035965  2.300109  0.021  -0.552522  0.032189  2.285546  0.017  -0.293449  -0.504622  0.03971  2.309956  0.024
O  O79  1  0.59510757  0.89094023  0.05093728  1  -0.583716  0.032212  2.037963  0.021  -0.524619  0.035962  2.300017  0.021  -0.552555  0.032186  2.285451  0.017  -0.293456  -0.504657  0.039705  2.309864  0.024
O  O80  1  0.44822995  0.28075469  0.09329462  1  -0.616795  0.005384  2.052659  0.007  -0.554608  0.010445  2.273775  0.012  -0.580728  0.007485  2.263361  0.009  -0.29686  -0.536876  0.014861  2.280987  0.016
O  O81  1  0.55179286  0.71925685  0.90670413  1  -0.616698  0.005386  2.052662  0.007  -0.554559  0.010445  2.273795  0.012  -0.580681  0.007486  2.263373  0.009  -0.296807  -0.536829  0.014861  2.281008  0.016
O  O82  1  0.04722296  0.90007833  0.64618268  1  -0.658232  0.033389  2.080146  0.022  -0.579716  0.038166  2.334018  0.023  -0.611333  0.034695  2.320278  0.02  -0.309034  -0.556068  0.040917  2.342333  0.026
O  O83  1  0.95278274  0.09992013  0.35382328  1  -0.658251  0.033385  2.079989  0.022  -0.579786  0.038164  2.333903  0.023  -0.61138  0.034694  2.320154  0.02  -0.309119  -0.556134  0.040915  2.342222  0.026
O  O84  1  0.05644792  0.85214068  0.47441018  1  -0.561729  0.00475  1.928306  0.006  -0.524821  0.008335  2.155909  0.01  -0.54767  0.006118  2.149842  0.007  -0.300062  -0.508063  0.011689  2.159297  0.013
O  O85  1  0.94354920  0.14786081  0.52559149  1  -0.561763  0.004748  1.928436  0.006  -0.524844  0.008335  2.156049  0.01  -0.547691  0.006116  2.149989  0.007  -0.30007  -0.508093  0.011689  2.159458  0.013
O  O86  1  0.74695319  0.38828526  0.51382356  1  -0.594739  0.022839  2.034704  0.015  -0.527452  0.028868  2.272166  0.018  -0.556238  0.025812  2.260336  0.016  -0.274016  -0.507019  0.032016  2.279982  0.021
O  O87  1  0.25304624  0.61171942  0.48618484  1  -0.594631  0.022824  2.03453  0.015  -0.527442  0.028862  2.272168  0.018  -0.556235  0.025806  2.260335  0.016  -0.273974  -0.507007  0.03201  2.279988  0.021
O  O88  1  0.52437289  0.22113169  0.37970641  1  -0.633867  0.001736  2.025883  0.003  -0.574052  0.00398  2.246201  0.005  -0.597851  0.002676  2.234721  0.004  -0.310714  -0.558017  0.005765  2.254118  0.007
O  O89  1  0.47563944  0.77886576  0.62030166  1  -0.633822  0.001743  2.025844  0.003  -0.573984  0.003978  2.246203  0.005  -0.597771  0.002676  2.234714  0.004  -0.31072  -0.557971  0.005763  2.254167  0.007
