# generated using pymatgen
data_ZnSiH24C28(N2F3)2
_symmetry_space_group_name_H-M   'P 1'
_cell_length_a   7.74453003
_cell_length_b   13.98033793
_cell_length_c   13.98035167
_cell_angle_alpha   90.04089068
_cell_angle_beta   89.75485216
_cell_angle_gamma   89.75451538
_symmetry_Int_Tables_number   1
_chemical_formula_structural   ZnSiH24C28(N2F3)2
_chemical_formula_sum   'Zn1 Si1 H24 C28 N4 F6'
_cell_volume   1513.64055526
_cell_formula_units_Z   1
loop_
 _symmetry_equiv_pos_site_id
 _symmetry_equiv_pos_as_xyz
  1  'x, y, z'
loop_
 _atom_site_type_symbol
 _atom_site_label
 _atom_site_symmetry_multiplicity
 _atom_site_fract_x
 _atom_site_fract_y
 _atom_site_fract_z
 _atom_site_occupancy
 _atom_site_pbe_bader_charge
 _atom_site_pbe_bader_spin_density
 _atom_site_pbe_cm5_charge
 _atom_site_pbe_ddec_charge
 _atom_site_pbe_ddec_spin_density
 _atom_site_pbe_ddec_sum_bond_order
 _atom_site_pbe_magmom
Zn  Zn0  1  0.50001460  0.49999533  0.50000278  1  1.370536  0  0.704504  0.741485  0  2.332845  0
Si  Si1  1  0.00000916  0.49999277  0.50000443  1  3.16855  0  0.26046  1.717831  0  3.954938  0
H  H2  1  0.23114322  0.66510656  0.50007774  1  0.17059  0  0.116089  0.102036  0  1.042794  0
H  H3  1  0.22775689  0.84348146  0.50008568  1  0.09081  0  0.109243  0.116132  0  1.010576  0
H  H4  1  0.76771877  0.65941633  0.49995706  1  0.171277  0  0.116029  0.105423  0  1.048828  0
H  H5  1  0.23230585  0.34056999  0.49990330  1  0.171302  0  0.11597  0.105168  0  1.049064  0
H  H6  1  0.76886999  0.33487987  0.50005587  1  0.172713  0  0.116122  0.102257  0  1.04249  0
H  H7  1  0.77226527  0.15650712  0.50006652  1  0.090798  0  0.109275  0.115994  0  1.010513  0
H  H8  1  0.23115455  0.50004496  0.66511125  1  0.170895  0  0.116153  0.102131  0  1.042872  0
H  H9  1  0.22775129  0.50001429  0.84348168  1  0.091025  0  0.109299  0.116156  0  1.010569  0
H  H10  1  0.76771767  0.50011227  0.65943269  1  0.17107  0  0.115926  0.105148  0  1.049167  0
H  H11  1  0.23231343  0.50004005  0.34058294  1  0.171318  0  0.115996  0.10535  0  1.048659  0
H  H12  1  0.76887136  0.49981051  0.33487924  1  0.171026  0  0.116127  0.10221  0  1.042593  0
H  H13  1  0.77225528  0.49983119  0.15651026  1  0.090708  0  0.109403  0.116212  0  1.010901  0
H  H14  1  0.91221733  0.82480191  0.56312638  1  0.081857  0  0.102454  0.144232  0  0.978502  0
H  H15  1  0.83020976  0.92597923  0.49984411  1  0.006067  0  0.089388  0.123918  0  1.021898  0
H  H16  1  0.91325808  0.82448427  0.43691476  1  0.070877  0  0.102336  0.144281  0  0.978275  0
H  H17  1  0.08707920  0.17511055  0.56328986  1  0.069783  0  0.102556  0.144298  0  0.978111  0
H  H18  1  0.16981894  0.07401053  0.49963142  1  0.005741  0  0.089552  0.1242  0  1.021583  0
H  H19  1  0.08749448  0.17557902  0.43707782  1  0.082622  0  0.102549  0.144415  0  0.978223  0
H  H20  1  0.91291476  0.43669183  0.82487649  1  0.078303  0  0.102563  0.144269  0  0.978228  0
H  H21  1  0.83019074  0.50033042  0.92599199  1  0.005626  0  0.089478  0.124114  0  1.021862  0
H  H22  1  0.91254386  0.56290109  0.82444444  1  0.071438  0  0.102494  0.144393  0  0.978109  0
H  H23  1  0.08778061  0.43691241  0.17518876  1  0.082134  0  0.102476  0.144095  0  0.978354  0
H  H24  1  0.16979491  0.50021178  0.07402598  1  0.006253  0  0.089373  0.123913  0  1.021964  0
H  H25  1  0.08678166  0.56312054  0.17554212  1  0.073018  0  0.102328  0.144317  0  0.978063  0
C  C26  1  0.35091964  0.70554607  0.50007076  1  0.388142  0  0.044103  0.084611  0  3.9429  0
C  C27  1  0.34981485  0.80455235  0.50004825  1  0.015638  0  -0.078872  -0.168481  0  3.947744  0
C  C28  1  0.50696872  0.85519410  0.50003071  1  0.090475  0  0.012318  0.100033  0  4.091463  0
C  C29  1  0.66316612  0.80236783  0.50001504  1  0.077513  0  0.008149  0.100473  0  3.89664  0
C  C30  1  0.65031177  0.70263462  0.49999276  1  0.473546  0  0.051011  0.033496  0  3.872283  0
C  C31  1  0.50410305  0.95638480  0.50002605  1  -0.112599  0  -0.031784  -0.088656  0  4.103871  0
C  C32  1  0.49592204  0.04359659  0.50004675  1  -0.344311  0  -0.031521  -0.087886  0  4.103665  0
C  C33  1  0.49305772  0.14478728  0.50002778  1  0.090838  0  0.012227  0.099515  0  4.091773  0
C  C34  1  0.33685934  0.19761782  0.49995833  1  0.077562  0  0.008364  0.100754  0  3.896718  0
C  C35  1  0.34970866  0.29735173  0.49994486  1  0.47408  0  0.051076  0.03388  0  3.872425  0
C  C36  1  0.64910149  0.29444034  0.50001921  1  0.385633  0  0.043854  0.084005  0  3.94273  0
C  C37  1  0.65021266  0.19543548  0.50005889  1  0.015087  0  -0.078764  -0.167824  0  3.947595  0
C  C38  1  0.35092589  0.50006569  0.70555808  1  0.387898  0  0.043931  0.084402  0  3.943256  0
C  C39  1  0.34980498  0.50002101  0.80455426  1  0.015071  0  -0.078888  -0.168393  0  3.948022  0
C  C40  1  0.50696423  0.50001539  0.85520050  1  0.090932  0  0.012252  0.099689  0  4.091169  0
C  C41  1  0.66317142  0.50006312  0.80237382  1  0.077393  0  0.008121  0.100643  0  3.896965  0
C  C42  1  0.65031631  0.50008664  0.70265073  1  0.474545  0  0.051162  0.033843  0  3.872753  0
C  C43  1  0.50409143  0.49997498  0.95640897  1  -0.345013  0  -0.031702  -0.088305  0  4.104684  0
C  C44  1  0.49590305  0.49997781  0.04359590  1  -0.111938  0  -0.031574  -0.08823  0  4.104662  0
C  C45  1  0.49304058  0.49994096  0.14480222  1  0.090341  0  0.012397  0.100132  0  4.090827  0
C  C46  1  0.33684590  0.49998550  0.19763607  1  0.077362  0  0.0081  0.100365  0  3.896972  0
C  C47  1  0.34971640  0.49998771  0.29736058  1  0.473463  0  0.051078  0.033604  0  3.872182  0
C  C48  1  0.64909586  0.49985202  0.29444031  1  0.387754  0  0.04414  0.084276  0  3.943198  0
C  C49  1  0.65020912  0.49988025  0.19543841  1  0.015698  0  -0.079325  -0.16877  0  3.948193  0
C  C50  1  0.83863921  0.84768287  0.49996996  1  -0.06153  0  -0.231278  -0.407988  0  3.966134  0
C  C51  1  0.16138248  0.15230348  0.49997767  1  -0.060841  0  -0.231785  -0.408563  0  3.96566  0
C  C52  1  0.83863185  0.50000491  0.84770055  1  -0.058182  0  -0.231628  -0.408402  0  3.965866  0
C  C53  1  0.16138147  0.50006661  0.15231936  1  -0.063747  0  -0.231249  -0.407917  0  3.96604  0
N  N54  1  0.49993685  0.65495844  0.50001490  1  -1.243136  0  -0.31591  -0.218741  0  3.529827  0
N  N55  1  0.50008072  0.34503081  0.49999282  1  -1.242843  0  -0.315933  -0.218869  0  3.529729  0
N  N56  1  0.49994391  0.50006681  0.65496646  1  -1.243871  0  -0.31582  -0.21867  0  3.529631  0
N  N57  1  0.50008787  0.49992742  0.34503480  1  -1.243341  0  -0.315722  -0.21832  0  3.529563  0
F  F58  1  0.22644139  0.50141223  0.50142711  1  -0.824624  0  -0.190638  -0.493376  0  1.357682  0
F  F59  1  0.77357878  0.49857129  0.49858061  1  -0.824892  0  -0.190652  -0.493278  0  1.357653  0
F  F60  1  0.00001260  0.58605297  0.41393429  1  -0.825449  0  -0.239539  -0.539328  0  1.093112  0
F  F61  1  0.00000442  0.41393543  0.58607243  1  -0.825395  0  -0.239626  -0.539421  0  1.093013  0
F  F62  1  0.99576342  0.58613350  0.58613092  1  -0.82676  0  -0.239113  -0.539148  0  1.093209  0
F  F63  1  0.00426320  0.41385573  0.41387321  1  -0.826826  0  -0.239106  -0.539136  0  1.093234  0
