# generated using pymatgen
data_ZnH20C32Br4(NO)8
_symmetry_space_group_name_H-M   'P 1'
_cell_length_a   8.07295021
_cell_length_b   10.78370727
_cell_length_c   11.47661636
_cell_angle_alpha   64.27197137
_cell_angle_beta   76.60593779
_cell_angle_gamma   85.77168663
_symmetry_Int_Tables_number   1
_chemical_formula_structural   ZnH20C32Br4(NO)8
_chemical_formula_sum   'Zn1 H20 C32 Br4 N8 O8'
_cell_volume   875.17270689
_cell_formula_units_Z   1
loop_
 _symmetry_equiv_pos_site_id
 _symmetry_equiv_pos_as_xyz
  1  'x, y, z'
loop_
 _atom_site_type_symbol
 _atom_site_label
 _atom_site_symmetry_multiplicity
 _atom_site_fract_x
 _atom_site_fract_y
 _atom_site_fract_z
 _atom_site_occupancy
 _atom_site_pbe_bader_spin_density
 _atom_site_pbe_cm5_charge
 _atom_site_pbe_ddec_charge
 _atom_site_pbe_ddec_spin_density
 _atom_site_pbe_ddec_sum_bond_order
 _atom_site_pbe_magmom
Zn  Zn0  1  0.99999966  0.99999914  0.50000277  1  0  0.671259  0.838618  0  2.282887  0
H  H1  1  0.79953692  0.22418954  0.47535629  1  0  0.313771  0.391126  0  0.889379  0
H  H2  1  0.20046193  0.77581135  0.52464830  1  0  0.313796  0.391185  0  0.889334  0
H  H3  1  0.82404575  0.17665383  0.35764466  1  0  0.280613  0.367639  0  0.99146  0
H  H4  1  0.17595679  0.82334400  0.64236321  1  0  0.280574  0.367579  0  0.991529  0
H  H5  1  0.27128595  0.44269799  0.45582861  1  0  0.111213  0.124129  0  1.013057  0
H  H6  1  0.72871679  0.55730488  0.54416843  1  0  0.111222  0.124102  0  1.013088  0
H  H7  1  0.04674680  0.26073175  0.52835835  1  0  0.115575  0.084678  0  1.00405  0
H  H8  1  0.95325341  0.73927117  0.47164256  1  0  0.115553  0.084635  0  1.00409  0
H  H9  1  0.34191922  0.07594453  0.30520252  1  0  0.105102  0.079961  0  1.039306  0
H  H10  1  0.65807826  0.92405429  0.69480142  1  0  0.10511  0.079971  0  1.039318  0
H  H11  1  0.58415677  0.24471083  0.22793855  1  0  0.110699  0.130498  0  1.021651  0
H  H12  1  0.41584198  0.75528793  0.77206085  1  0  0.110693  0.130489  0  1.021659  0
H  H13  1  0.03365711  0.73661859  0.23032095  1  0  0.106895  0.119207  0  1.015236  0
H  H14  1  0.96634937  0.26338221  0.76967720  1  0  0.106878  0.119209  0  1.015218  0
H  H15  1  0.34488794  0.77642421  0.12798867  1  0  0.098517  0.067517  0  1.030116  0
H  H16  1  0.65511844  0.22357448  0.87200602  1  0  0.098515  0.067515  0  1.030075  0
H  H17  1  0.35709709  0.45543549  0.01940862  1  0  0.100327  0.062192  0  1.064522  0
H  H18  1  0.64290670  0.54456221  0.98058866  1  0  0.100275  0.062123  0  1.064546  0
H  H19  1  0.04690510  0.39841863  0.12070485  1  0  0.104858  0.12359  0  1.032025  0
H  H20  1  0.95309632  0.60158317  0.87929023  1  0  0.10487  0.123586  0  1.032009  0
C  C21  1  0.44550840  0.35825427  0.33599536  1  0  0.013956  0.056121  0  4.002585  0
C  C22  1  0.55449052  0.64174860  0.66400143  1  0  0.014001  0.056186  0  4.002659  0
C  C23  1  0.29020266  0.36446736  0.41868558  1  0  -0.072543  -0.136972  0  3.925639  0
C  C24  1  0.70979753  0.63553552  0.58131187  1  0  -0.072583  -0.137014  0  3.925737  0
C  C25  1  0.16532443  0.26424611  0.45810754  1  0  0.04329  0.081142  0  3.978443  0
C  C26  1  0.83467577  0.73575677  0.54188991  1  0  0.043331  0.081217  0  3.978384  0
C  C27  1  0.33220499  0.15918608  0.33572332  1  0  0.049451  0.107742  0  3.923732  0
C  C28  1  0.66779385  0.84081477  0.66427780  1  0  0.049464  0.10776  0  3.923639  0
C  C29  1  0.46611957  0.25399450  0.29232251  1  0  -0.073621  -0.142556  0  3.889963  0
C  C30  1  0.53387799  0.74600632  0.70767622  1  0  -0.073625  -0.142575  0  3.889947  0
C  C31  1  0.58147759  0.45534675  0.30584888  1  0  0.221524  0.293511  0  3.966453  0
C  C32  1  0.41852379  0.54465405  0.69414837  1  0  0.221601  0.293651  0  3.966456  0
C  C33  1  0.83510100  0.54229701  0.24217449  1  0  0.216386  0.286779  0  3.999174  0
C  C34  1  0.16490288  0.45770276  0.75782364  1  0  0.216419  0.286805  0  3.999116  0
C  C35  1  0.01553027  0.56531673  0.18177132  1  0  0.001867  0.038232  0  4.039265  0
C  C36  1  0.98447489  0.43468305  0.81822747  1  0  0.001799  0.038186  0  4.039199  0
C  C37  1  0.10163898  0.67226793  0.18447318  1  0  -0.082126  -0.149918  0  3.919087  0
C  C38  1  0.89836622  0.32773284  0.81552257  1  0  -0.082079  -0.149894  0  3.918956  0
C  C39  1  0.27444952  0.69473495  0.12631494  1  0  0.035439  0.090997  0  3.994755  0
C  C40  1  0.72555436  0.30526479  0.87368059  1  0  0.035447  0.091004  0  3.994651  0
C  C41  1  0.28076911  0.51686401  0.06583685  1  0  0.039202  0.097672  0  3.964397  0
C  C42  1  0.71923345  0.48313472  0.93416019  1  0  0.039255  0.09779  0  3.964304  0
C  C43  1  0.10771504  0.48475040  0.12200801  1  0  -0.083551  -0.152107  0  3.899409  0
C  C44  1  0.89228757  0.51524936  0.87798946  1  0  -0.083532  -0.152068  0  3.899217  0
C  C45  1  0.98196705  0.03948382  0.10404188  1  0  -0.024762  -0.101227  0  3.979736  0
C  C46  1  0.01802279  0.96051501  0.89596243  1  0  -0.024722  -0.101199  0  3.979738  0
C  C47  1  0.13436834  0.06874404  0.00760882  1  0  -0.024774  0.024911  0  3.956395  0
C  C48  1  0.86562159  0.93125686  0.99239462  1  0  -0.024768  0.0249  0  3.956538  0
C  C49  1  0.15315125  0.02837148  0.90456533  1  0  -0.02172  0.030424  0  3.962928  0
C  C50  1  0.84684004  0.97163141  0.09543270  1  0  -0.021655  0.030582  0  3.962935  0
C  C51  1  0.96407841  0.07631516  0.21978742  1  0  0.200706  0.586663  0  4.25288  0
C  C52  1  0.03591890  0.92367952  0.78021740  1  0  0.200729  0.586709  0  4.25289  0
Br  Br53  1  0.31067536  0.16891971  0.01725596  1  0  0.080123  -0.013476  0  1.748244  0
Br  Br54  1  0.68931580  0.83108015  0.98274771  1  0  0.080121  -0.013473  0  1.748208  0
Br  Br55  1  0.35984329  0.06342199  0.77473418  1  0  0.071103  0.006041  0  1.628565  0
Br  Br56  1  0.64013534  0.93658294  0.22525897  1  0  0.071083  0.00597  0  1.628498  0
N  N57  1  0.18532904  0.16272248  0.41812703  1  0  -0.324079  -0.2294  0  3.531948  0
N  N58  1  0.81466985  0.83727940  0.58187366  1  0  -0.324084  -0.229391  0  3.531761  0
N  N59  1  0.57733708  0.55301820  0.34557683  1  0  -0.214913  -0.231928  0  3.208968  0
N  N60  1  0.42266557  0.44698260  0.65442107  1  0  -0.214925  -0.231977  0  3.209162  0
N  N61  1  0.74073696  0.60786312  0.30577516  1  0  -0.218516  -0.250447  0  3.269287  0
N  N62  1  0.25926693  0.39213667  0.69422471  1  0  -0.218532  -0.250453  0  3.269429  0
N  N63  1  0.36417720  0.61988471  0.06666509  1  0  -0.321674  -0.267519  0  3.333614  0
N  N64  1  0.63582787  0.38011298  0.93333284  1  0  -0.321689  -0.267601  0  3.333621  0
O  O65  1  0.74185709  0.44342345  0.23817575  1  0  -0.090557  -0.157952  0  2.52162  0
O  O66  1  0.25814552  0.55657633  0.76182259  1  0  -0.090648  -0.158083  0  2.521634  0
O  O67  1  0.02696845  0.99013122  0.31501374  1  0  -0.320414  -0.557722  0  2.301236  0
O  O68  1  0.97303012  0.00986346  0.68499000  1  0  -0.320427  -0.55777  0  2.301302  0
O  O69  1  0.88799378  0.18502866  0.21264151  1  0  -0.311121  -0.540767  0  2.222346  0
O  O70  1  0.11200740  0.81496708  0.78736572  1  0  -0.311117  -0.540749  0  2.222361  0
O  O71  1  0.79163336  0.14456038  0.45810877  1  0  -0.571934  -0.738148  0  2.096338  0
O  O72  1  0.20836927  0.85543948  0.54189651  1  0  -0.571923  -0.738156  0  2.09634  0
