# generated using pymatgen
data_ZnH13C20NO5
_symmetry_space_group_name_H-M   'P 1'
_cell_length_a   16.16723395
_cell_length_b   16.16724856
_cell_length_c   23.21167591
_cell_angle_alpha   72.67764730
_cell_angle_beta   72.67753558
_cell_angle_gamma   66.41576000
_symmetry_Int_Tables_number   1
_chemical_formula_structural   ZnH13C20NO5
_chemical_formula_sum   'Zn4 H52 C80 N4 O20'
_cell_volume   5196.30474223
_cell_formula_units_Z   4
loop_
 _symmetry_equiv_pos_site_id
 _symmetry_equiv_pos_as_xyz
  1  'x, y, z'
loop_
 _atom_site_type_symbol
 _atom_site_label
 _atom_site_symmetry_multiplicity
 _atom_site_fract_x
 _atom_site_fract_y
 _atom_site_fract_z
 _atom_site_occupancy
 _atom_site_pbe_bader_charge
 _atom_site_pbe_bader_spin_density
 _atom_site_pbe_cm5_charge
 _atom_site_pbe_ddec_charge
 _atom_site_pbe_ddec_spin_density
 _atom_site_pbe_ddec_sum_bond_order
 _atom_site_pbe_magmom
Zn  Zn0  1  0.99198069  0.59231000  0.48826191  1  1.285216  0  0.663002  0.817495  0  2.420639  0
Zn  Zn1  1  0.40768991  0.00801942  0.01173893  1  1.285655  0  0.663011  0.817493  0  2.4207  0
Zn  Zn2  1  0.00802047  0.40768845  0.51173816  1  1.285654  0  0.663021  0.817529  0  2.420658  0
Zn  Zn3  1  0.59230987  0.99198079  0.98826192  1  1.285295  0  0.662991  0.817479  0  2.420733  0
H  H4  1  0.21715293  0.55708808  0.56482654  1  0.092257  0  0.1046  0.108848  0  0.998554  0
H  H5  1  0.44291215  0.78284749  0.93517285  1  0.092253  0  0.104586  0.108863  0  0.998539  0
H  H6  1  0.78284615  0.44291043  0.43517481  1  0.092584  0  0.104581  0.108827  0  0.998529  0
H  H7  1  0.55708970  0.21715267  0.06482587  1  0.092581  0  0.104607  0.108864  0  0.998555  0
H  H8  1  0.35213620  0.51411457  0.61411043  1  0.065026  0  0.109822  0.124592  0  0.984577  0
H  H9  1  0.48588491  0.64786363  0.88588956  1  0.065023  0  0.109821  0.124596  0  0.98457  0
H  H10  1  0.64786219  0.48588547  0.38589074  1  0.06502  0  0.109817  0.124592  0  0.984543  0
H  H11  1  0.51411556  0.35213700  0.11410934  1  0.065007  0  0.109823  0.124592  0  0.984555  0
H  H12  1  0.38651408  0.22763430  0.64419263  1  0.08227  0  0.107466  0.121669  0  0.990744  0
H  H13  1  0.77236599  0.61348662  0.85580856  1  0.082271  0  0.107448  0.121632  0  0.990795  0
H  H14  1  0.61348639  0.77236439  0.35580796  1  0.082293  0  0.107446  0.121641  0  0.990787  0
H  H15  1  0.22763448  0.38651401  0.14419335  1  0.082263  0  0.107471  0.121657  0  0.990791  0
H  H16  1  0.25167824  0.27135187  0.59532452  1  0.086201  0  0.105485  0.111141  0  0.995209  0
H  H17  1  0.72864853  0.74832214  0.90467682  1  0.086196  0  0.105469  0.111122  0  0.995199  0
H  H18  1  0.74832153  0.72864770  0.40467646  1  0.086229  0  0.105491  0.111145  0  0.995186  0
H  H19  1  0.27135125  0.25167872  0.09532520  1  0.0862  0  0.105477  0.111114  0  0.995224  0
H  H20  1  0.60365005  0.25742077  0.69336906  1  0.058512  0  0.105584  0.119889  0  0.992659  0
H  H21  1  0.74257910  0.39635220  0.80663222  1  0.05854  0  0.105541  0.119819  0  0.992653  0
H  H22  1  0.39635110  0.74257897  0.30663203  1  0.058519  0  0.105548  0.119826  0  0.992645  0
H  H23  1  0.25741999  0.60364955  0.19336802  1  0.058523  0  0.105583  0.119883  0  0.9926  0
H  H24  1  0.62303438  0.15256315  0.79664864  1  0.08673  0  0.101114  0.101206  0  1.005666  0
H  H25  1  0.84743681  0.37696629  0.70335289  1  0.086772  0  0.1011  0.101177  0  1.005658  0
H  H26  1  0.37696540  0.84743707  0.20335264  1  0.086756  0  0.101114  0.101197  0  1.005624  0
H  H27  1  0.15256228  0.62303481  0.29664749  1  0.086839  0  0.101116  0.101203  0  1.005668  0
H  H28  1  0.33120437  0.20909986  0.84918640  1  0.083447  0  0.101219  0.100853  0  1.008953  0
H  H29  1  0.79090029  0.66879576  0.65081324  1  0.083434  0  0.101229  0.100846  0  1.00897  0
H  H30  1  0.66879541  0.79090036  0.15081359  1  0.083451  0  0.101206  0.100824  0  1.008962  0
H  H31  1  0.20909949  0.33120575  0.34918692  1  0.083461  0  0.101217  0.100848  0  1.008978  0
H  H32  1  0.31064338  0.31365203  0.74722761  1  0.079378  0  0.104882  0.119996  0  1.005764  0
H  H33  1  0.68634881  0.68935705  0.75277276  1  0.079354  0  0.104869  0.119974  0  1.005765  0
H  H34  1  0.68935640  0.68634883  0.25277268  1  0.079369  0  0.104877  0.119989  0  1.005787  0
H  H35  1  0.31365028  0.31064405  0.24722805  1  0.079401  0  0.104872  0.12  0  1.0058  0
H  H36  1  0.09218933  0.71338094  0.40186232  1  0.142316  0  0.128362  0.105217  0  0.986997  0
H  H37  1  0.28661741  0.90781207  0.09813657  1  0.142365  0  0.128325  0.105187  0  0.986989  0
H  H38  1  0.90781321  0.28661768  0.59813571  1  0.142396  0  0.128295  0.10514  0  0.986943  0
H  H39  1  0.71338168  0.09218839  0.90186265  1  0.142346  0  0.128312  0.105144  0  0.986996  0
H  H40  1  0.10886109  0.86417633  0.39579582  1  0.103392  0  0.11246  0.117547  0  0.987945  0
H  H41  1  0.13582339  0.89113863  0.10420493  1  0.103378  0  0.112465  0.11754  0  0.987954  0
H  H42  1  0.89113869  0.13582260  0.60420400  1  0.103395  0  0.112464  0.117592  0  0.987918  0
H  H43  1  0.86417569  0.10886118  0.89579658  1  0.103421  0  0.112481  0.117593  0  0.987903  0
H  H44  1  0.89934434  0.88980882  0.56337997  1  0.07672  0  0.113087  0.118146  0  0.994458  0
H  H45  1  0.11019164  0.10065458  0.93662078  1  0.076735  0  0.113079  0.118153  0  0.994495  0
H  H46  1  0.10065544  0.11019140  0.43661916  1  0.076724  0  0.11311  0.118202  0  0.99449  0
H  H47  1  0.88980744  0.89934328  0.06338113  1  0.077039  0  0.11307  0.118102  0  0.994501  0
H  H48  1  0.89350614  0.73835518  0.56177846  1  0.112786  0  0.126739  0.10306  0  0.998303  0
H  H49  1  0.26164450  0.10649464  0.93822155  1  0.112784  0  0.126718  0.103018  0  0.998314  0
H  H50  1  0.10649570  0.26164368  0.43821966  1  0.112758  0  0.126719  0.103024  0  0.998308  0
H  H51  1  0.73835597  0.89350340  0.06177745  1  0.112767  0  0.126717  0.103017  0  0.998326  0
H  H52  1  0.05992433  0.00138636  0.43440592  1  0.078187  0  0.107945  0.104115  0  0.996752  0
H  H53  1  0.99861289  0.94007691  0.06559287  1  0.078198  0  0.107964  0.10415  0  0.996759  0
H  H54  1  0.94007613  0.99861298  0.56559282  1  0.07821  0  0.107955  0.104134  0  0.996695  0
H  H55  1  0.00138620  0.05992484  0.93440738  1  0.078211  0  0.107942  0.10412  0  0.996723  0
C  C56  1  0.14443200  0.44282972  0.54965278  1  1.571688  0  0.209641  0.590284  0  4.185099  0
C  C57  1  0.55716934  0.85556804  0.95034777  1  1.571694  0  0.209638  0.590309  0  4.185015  0
C  C58  1  0.85556846  0.55716897  0.45034782  1  1.571699  0  0.209647  0.590323  0  4.185008  0
C  C59  1  0.44282975  0.14443242  0.04965274  1  1.571342  0  0.209628  0.590275  0  4.185112  0
C  C60  1  0.22593251  0.41682144  0.57773750  1  -0.050453  0  -0.025268  -0.051019  0  3.979994  0
C  C61  1  0.58317870  0.77406797  0.92226267  1  -0.050355  0  -0.025298  -0.050997  0  3.98003  0
C  C62  1  0.77406795  0.58317789  0.42226296  1  -0.05045  0  -0.025321  -0.051089  0  3.980047  0
C  C63  1  0.41682107  0.22593289  0.07773762  1  -0.050119  0  -0.0253  -0.051061  0  3.98004  0
C  C64  1  0.25471509  0.48520452  0.58241880  1  -0.047833  0  -0.082505  -0.069133  0  3.993927  0
C  C65  1  0.51479476  0.74528583  0.91758019  1  -0.047969  0  -0.082457  -0.069187  0  3.993934  0
C  C66  1  0.74528537  0.51479416  0.41758136  1  -0.048199  0  -0.082445  -0.069095  0  3.993846  0
C  C67  1  0.48520571  0.25471415  0.08241885  1  -0.048188  0  -0.082469  -0.06914  0  3.99392  0
C  C68  1  0.32922039  0.46183039  0.60964809  1  0.033202  0  -0.101715  -0.203338  0  4.009078  0
C  C69  1  0.53816957  0.67077985  0.89035213  1  0.033239  0  -0.101745  -0.203346  0  4.009132  0
C  C70  1  0.67078076  0.53816870  0.39035184  1  0.033194  0  -0.101705  -0.203314  0  4.009072  0
C  C71  1  0.46183158  0.32922054  0.10964711  1  0.033213  0  -0.101696  -0.203291  0  4.009037  0
C  C72  1  0.37537469  0.36913318  0.63214760  1  0.38274  0  0.083025  0.260281  0  4.055369  0
C  C73  1  0.63086674  0.62462622  0.86785241  1  0.382757  0  0.083008  0.260242  0  4.055354  0
C  C74  1  0.62462577  0.63086615  0.36785329  1  0.382666  0  0.082996  0.260236  0  4.055398  0
C  C75  1  0.36913304  0.37537529  0.13214645  1  0.383008  0  0.082972  0.260201  0  4.055387  0
C  C76  1  0.34888974  0.29965525  0.62685067  1  -0.030234  0  -0.105254  -0.21288  0  4.021646  0
C  C77  1  0.70034532  0.65111007  0.87315071  1  -0.030231  0  -0.105256  -0.212847  0  4.021711  0
C  C78  1  0.65111142  0.70034449  0.37314913  1  -0.030172  0  -0.105239  -0.212862  0  4.021649  0
C  C79  1  0.29965445  0.34889014  0.12685014  1  -0.030236  0  -0.105252  -0.212846  0  4.021665  0
C  C80  1  0.27402632  0.32396562  0.59985840  1  -0.000636  0  -0.084807  -0.072814  0  3.992732  0
C  C81  1  0.67603433  0.72597365  0.90014270  1  -0.000665  0  -0.084779  -0.072793  0  3.992774  0
C  C82  1  0.72597414  0.67603306  0.40014220  1  -0.000641  0  -0.084806  -0.072788  0  3.992705  0
C  C83  1  0.32396614  0.27402568  0.09985819  1  -0.000649  0  -0.084773  -0.072733  0  3.992728  0
C  C84  1  0.45674197  0.28992147  0.71410594  1  0.414458  0  0.086841  0.271196  0  4.051405  0
C  C85  1  0.71007860  0.54325960  0.78589426  1  0.414439  0  0.086873  0.271236  0  4.051615  0
C  C86  1  0.54325849  0.71007851  0.28589482  1  0.414477  0  0.086853  0.27122  0  4.051372  0
C  C87  1  0.28992049  0.45674150  0.21410569  1  0.414537  0  0.086859  0.271253  0  4.051343  0
C  C88  1  0.54471568  0.24554876  0.72796433  1  -0.077675  0  -0.108122  -0.212552  0  4.017475  0
C  C89  1  0.75445189  0.45528601  0.77203607  1  -0.07766  0  -0.108127  -0.212594  0  4.017525  0
C  C90  1  0.45528478  0.75445187  0.27203586  1  -0.077669  0  -0.108114  -0.212545  0  4.017452  0
C  C91  1  0.24554720  0.54471509  0.22796387  1  -0.077682  0  -0.108116  -0.212598  0  4.017457  0
C  C92  1  0.55495901  0.18789371  0.78526325  1  0.015332  0  -0.086898  -0.072243  0  4.01285  0
C  C93  1  0.81210674  0.44504175  0.71473735  1  0.015314  0  -0.08687  -0.07212  0  4.012805  0
C  C94  1  0.44504146  0.81210627  0.21473708  1  0.015332  0  -0.086867  -0.072156  0  4.012762  0
C  C95  1  0.18789235  0.55495935  0.28526260  1  0.015247  0  -0.086907  -0.072183  0  4.012865  0
C  C96  1  0.47835013  0.17325873  0.82916633  1  -0.045455  0  -0.031185  -0.063564  0  3.995327  0
C  C97  1  0.82674116  0.52165117  0.67083388  1  -0.045329  0  -0.031179  -0.063604  0  3.995338  0
C  C98  1  0.52165102  0.82674101  0.17083390  1  -0.045457  0  -0.031211  -0.063652  0  3.995339  0
C  C99  1  0.17325724  0.47835017  0.32916659  1  -0.045345  0  -0.031204  -0.063634  0  3.995405  0
C  C100  1  0.39078880  0.21921744  0.81463114  1  0.02746  0  -0.083817  -0.062148  0  4.003909  0
C  C101  1  0.78078369  0.60921201  0.68536900  1  0.027342  0  -0.083832  -0.062135  0  4.003838  0
C  C102  1  0.60921098  0.78078343  0.18536958  1  0.027392  0  -0.083808  -0.062083  0  4.00388  0
C  C103  1  0.21921540  0.39078973  0.31463082  1  0.027336  0  -0.083774  -0.062037  0  4.003837  0
C  C104  1  0.37914841  0.27768131  0.75777282  1  -0.025105  0  -0.110912  -0.225579  0  4.023881  0
C  C105  1  0.72231921  0.62085288  0.74222738  1  -0.02512  0  -0.110894  -0.225544  0  4.023795  0
C  C106  1  0.62085275  0.72231908  0.24222728  1  -0.025074  0  -0.110904  -0.22559  0  4.023855  0
C  C107  1  0.27767988  0.37914822  0.25777300  1  -0.025194  0  -0.110945  -0.225698  0  4.023913  0
C  C108  1  0.48916554  0.11021537  0.89043582  1  1.541295  0  0.212127  0.595142  0  4.178915  0
C  C109  1  0.88978550  0.51083334  0.60956421  1  1.54132  0  0.212188  0.59524  0  4.178884  0
C  C110  1  0.51083355  0.88978508  0.10956469  1  1.541304  0  0.212171  0.5952  0  4.17885  0
C  C111  1  0.11021427  0.48916688  0.39043578  1  1.541283  0  0.212169  0.595226  0  4.178888  0
C  C112  1  0.05132939  0.75585558  0.43617736  1  0.498152  0  0.062038  0.106691  0  3.921709  0
C  C113  1  0.24414404  0.94867069  0.06382158  1  0.498146  0  0.06207  0.106696  0  3.921765  0
C  C114  1  0.94867176  0.24414288  0.56382098  1  0.47323  0  0.062072  0.106774  0  3.9216  0
C  C115  1  0.75585574  0.05132888  0.93617811  1  0.49815  0  0.062109  0.106835  0  3.921727  0
C  C116  1  0.05989901  0.83912600  0.43347155  1  -0.01837  0  -0.079157  -0.181767  0  3.943143  0
C  C117  1  0.16087382  0.94010046  0.06652794  1  -0.0185  0  -0.079141  -0.181723  0  3.943063  0
C  C118  1  0.94009870  0.16087493  0.56652699  1  -0.018532  0  -0.079149  -0.18184  0  3.943086  0
C  C119  1  0.83912595  0.05989782  0.93347245  1  -0.018493  0  -0.07916  -0.181822  0  3.943084  0
C  C120  1  0.00651797  0.88996667  0.47972060  1  -0.058798  0  0.009714  0.146995  0  4.042684  0
C  C121  1  0.11003266  0.99348161  0.02027860  1  -0.058627  0  0.009721  0.147029  0  4.042644  0
C  C122  1  0.99348250  0.11003331  0.52027800  1  -0.058668  0  0.009718  0.147025  0  4.042637  0
C  C123  1  0.88996642  0.00651690  0.97972188  1  -0.058687  0  0.009687  0.14698  0  4.042645  0
C  C124  1  0.94439639  0.85351985  0.52666025  1  0.024079  0  -0.079699  -0.178117  0  3.936693  0
C  C125  1  0.14648020  0.05560272  0.97333964  1  0.024042  0  -0.079686  -0.178161  0  3.936736  0
C  C126  1  0.05560200  0.14648019  0.47333834  1  0.02417  0  -0.07975  -0.178216  0  3.936795  0
C  C127  1  0.85351957  0.94439556  0.02666076  1  0.023764  0  -0.079629  -0.177984  0  3.936664  0
C  C128  1  0.93956804  0.77011408  0.52608849  1  0.479865  0  0.059056  0.102511  0  3.926074  0
C  C129  1  0.22988583  0.06043215  0.97391159  1  0.479865  0  0.059101  0.10263  0  3.926081  0
C  C130  1  0.06043243  0.22988590  0.47390968  1  0.479855  0  0.059133  0.102619  0  3.926053  0
C  C131  1  0.77011463  0.93956588  0.02608827  1  0.479824  0  0.059061  0.102545  0  3.926157  0
C  C132  1  0.01794544  0.97592207  0.47722533  1  -0.113908  0  -0.075933  -0.114452  0  3.960935  0
C  C133  1  0.02407592  0.98205467  0.02277451  1  -0.113913  0  -0.075977  -0.114535  0  3.961028  0
C  C134  1  0.98205709  0.02407526  0.52277425  1  -0.028851  0  -0.075959  -0.114513  0  3.960889  0
C  C135  1  0.97592316  0.01794385  0.97722554  1  -0.028858  0  -0.075953  -0.114517  0  3.96099  0
N  N136  1  0.99223218  0.72189831  0.48176835  1  -1.23464  0  -0.315356  -0.188639  0  3.502585  0
N  N137  1  0.27810111  0.00776869  0.01823165  1  -1.234646  0  -0.31536  -0.18866  0  3.502722  0
N  N138  1  0.00776967  0.27810119  0.51823007  1  -1.20981  0  -0.315353  -0.18866  0  3.502551  0
N  N139  1  0.72189867  0.99223088  0.98176847  1  -1.234726  0  -0.315383  -0.188738  0  3.502769  0
O  O140  1  0.10596238  0.52834247  0.52893145  1  -1.16952  0  -0.32242  -0.558433  0  2.333347  0
O  O141  1  0.47165701  0.89403885  0.97106883  1  -1.16958  0  -0.322419  -0.558442  0  2.333267  0
O  O142  1  0.89403877  0.47165662  0.47106935  1  -1.169596  0  -0.322433  -0.558471  0  2.333268  0
O  O143  1  0.52834208  0.10596225  0.02893155  1  -1.169519  0  -0.322409  -0.558401  0  2.33334  0
O  O144  1  0.11946630  0.37780901  0.54876442  1  -1.161595  0  -0.323499  -0.544869  0  2.307597  0
O  O145  1  0.62219054  0.88053273  0.95123621  1  -1.161567  0  -0.323453  -0.544842  0  2.307586  0
O  O146  1  0.88053278  0.62219014  0.45123679  1  -1.161564  0  -0.323473  -0.544848  0  2.307599  0
O  O147  1  0.37780923  0.11946684  0.04876435  1  -1.161583  0  -0.323471  -0.544851  0  2.3076  0
O  O148  1  0.45112901  0.34838325  0.65724746  1  -1.087959  0  -0.15823  -0.222293  0  2.541138  0
O  O149  1  0.65161776  0.54887138  0.84275239  1  -1.087937  0  -0.158224  -0.222273  0  2.541229  0
O  O150  1  0.54887146  0.65161673  0.34275287  1  -1.087951  0  -0.158203  -0.22225  0  2.541126  0
O  O151  1  0.34838340  0.45112836  0.15724698  1  -1.088181  0  -0.158271  -0.222332  0  2.541127  0
O  O152  1  0.56859712  0.07832306  0.90398967  1  -1.168249  0  -0.32012  -0.553924  0  2.315785  0
O  O153  1  0.92167716  0.43140249  0.59601072  1  -1.168269  0  -0.320123  -0.553957  0  2.315765  0
O  O154  1  0.43140197  0.92167740  0.09601128  1  -1.16826  0  -0.320145  -0.553955  0  2.315751  0
O  O155  1  0.07832192  0.56859796  0.40398936  1  -1.168276  0  -0.320128  -0.553953  0  2.315723  0
O  O156  1  0.41779640  0.09273344  0.92485494  1  -1.173038  0  -0.319338  -0.559116  0  2.344945  0
O  O157  1  0.90726725  0.58220284  0.57514552  1  -1.173043  0  -0.319376  -0.559169  0  2.34496  0
O  O158  1  0.58220269  0.90726766  0.07514501  1  -1.173033  0  -0.319348  -0.559134  0  2.344974  0
O  O159  1  0.09273253  0.41779737  0.42485490  1  -1.17302  0  -0.319329  -0.559122  0  2.344942  0
