# generated using pymatgen
data_GeH26C30(N2O3)2
_symmetry_space_group_name_H-M   'P 1'
_cell_length_a   8.69865032
_cell_length_b   11.90741428
_cell_length_c   15.35900000
_cell_angle_alpha   92.94141534
_cell_angle_beta   91.73140463
_cell_angle_gamma   102.49637012
_symmetry_Int_Tables_number   1
_chemical_formula_structural   GeH26C30(N2O3)2
_chemical_formula_sum   'Ge2 H52 C60 N8 O12'
_cell_volume   1549.73361847
_cell_formula_units_Z   2
loop_
 _symmetry_equiv_pos_site_id
 _symmetry_equiv_pos_as_xyz
  1  'x, y, z'
loop_
 _atom_site_type_symbol
 _atom_site_label
 _atom_site_symmetry_multiplicity
 _atom_site_fract_x
 _atom_site_fract_y
 _atom_site_fract_z
 _atom_site_occupancy
 _atom_site_hle17_bader_spin_density
 _atom_site_hle17_ddec_charge
 _atom_site_hle17_ddec_spin_density
 _atom_site_hle17_ddec_sum_bond_order
 _atom_site_hle17_magmom
 _atom_site_hse06_10hf_bader_spin_density
 _atom_site_hse06_10hf_ddec_charge
 _atom_site_hse06_10hf_ddec_spin_density
 _atom_site_hse06_10hf_ddec_sum_bond_order
 _atom_site_hse06_10hf_magmom
 _atom_site_hse06_bader_spin_density
 _atom_site_hse06_ddec_charge
 _atom_site_hse06_ddec_spin_density
 _atom_site_hse06_ddec_sum_bond_order
 _atom_site_hse06_magmom
 _atom_site_pbe_bader_charge
 _atom_site_pbe_bader_spin_density
 _atom_site_pbe_cm5_charge
 _atom_site_pbe_ddec_charge
 _atom_site_pbe_ddec_spin_density
 _atom_site_pbe_ddec_sum_bond_order
 _atom_site_pbe_magmom
Ge  Ge0  1  0.27138178  0.79258139  0.22921504  1  0  1.465221  0  3.164656  0  0  1.278911  0  3.578906  0  0  1.336107  0  3.550054  0  2.23949  0  0.656728  1.239802  0  3.598223  0
Ge  Ge1  1  0.72861711  0.20741968  0.77078492  1  0  1.465311  0  3.164391  0  0  1.278955  0  3.578798  0  0  1.33624  0  3.549792  0  2.239455  0  0.65674  1.239845  0  3.598116  0
H  H2  1  0.40205060  0.72161985  0.92781737  1  0  0.367237  0  0.920483  0  0  0.341333  0  0.995984  0  0  0.352087  0  0.984742  0  0.638825  0  0.296271  0.333734  0  1.003814  0
H  H3  1  0.59793269  0.27837519  0.07218143  1  0  0.367168  0  0.920454  0  0  0.341243  0  0.996016  0  0  0.352001  0  0.98477  0  0.638918  0  0.296248  0.333645  0  1.003845  0
H  H4  1  0.18152786  0.15972767  0.35940344  1  0  0.376245  0  0.911043  0  0  0.351909  0  0.982408  0  0  0.363865  0  0.96923  0  0.638883  0  0.296177  0.343486  0  0.991581  0
H  H5  1  0.81848930  0.84026910  0.64060252  1  0  0.37625  0  0.911088  0  0  0.351849  0  0.98254  0  0  0.363796  0  0.969384  0  0.638842  0  0.296192  0.343425  0  0.991712  0
H  H6  1  0.90390386  0.54688125  0.05079400  1  0  0.101025  0  0.96629  0  0  0.112592  0  1.027537  0  0  0.11442  0  1.028355  0  0.071738  0  0.104706  0.11121  0  1.027148  0
H  H7  1  0.09610130  0.45312154  0.94920418  1  0  0.101008  0  0.966274  0  0  0.112588  0  1.027514  0  0  0.11441  0  1.028341  0  0.07178  0  0.104694  0.111208  0  1.027121  0
H  H8  1  0.87649844  0.34000876  0.07190752  1  0  0.092745  0  0.970705  0  0  0.101185  0  1.035723  0  0  0.104195  0  1.034257  0  0.086356  0  0.098458  0.098992  0  1.03691  0
H  H9  1  0.12350442  0.65999404  0.92808997  1  0  0.092746  0  0.970674  0  0  0.101169  0  1.035724  0  0  0.104169  0  1.034275  0  0.08635  0  0.09844  0.098972  0  1.036918  0
H  H10  1  0.00935625  0.27574698  0.20118549  1  0  0.087646  0  0.96296  0  0  0.099893  0  1.021878  0  0  0.102358  0  1.021209  0  0.064373  0  0.099049  0.098129  0  1.022411  0
H  H11  1  0.99064405  0.72425495  0.79881258  1  0  0.087658  0  0.962933  0  0  0.099904  0  1.021856  0  0  0.102371  0  1.021184  0  0.064255  0  0.099048  0.098141  0  1.022389  0
H  H12  1  0.16948950  0.41886956  0.30743448  1  0  0.107618  0  0.949586  0  0  0.121374  0  1.002732  0  0  0.123937  0  1.001708  0  0.075752  0  0.108266  0.119496  0  1.003575  0
H  H13  1  0.83050480  0.58113151  0.69256540  1  0  0.107668  0  0.949489  0  0  0.121406  0  1.002673  0  0  0.12397  0  1.001647  0  0.075677  0  0.108281  0.119527  0  1.003515  0
H  H14  1  0.05218421  0.52952131  0.41213406  1  0  0.125686  0  0.943288  0  0  0.146154  0  1.000951  0  0  0.148273  0  1.000642  0  0.090373  0  0.101405  0.144659  0  1.001174  0
H  H15  1  0.94781392  0.47047717  0.58786513  1  0  0.125693  0  0.943235  0  0  0.146164  0  1.000894  0  0  0.148283  0  1.000583  0  0.090401  0  0.10142  0.144668  0  1.001116  0
H  H16  1  0.16657755  0.60608222  0.50396919  1  0  0.126638  0  0.928873  0  0  0.151305  0  0.980051  0  0  0.153505  0  0.979288  0  0.072349  0  0.103459  0.149732  0  0.980625  0
H  H17  1  0.83342058  0.39391626  0.49603130  1  0  0.126663  0  0.92884  0  0  0.151333  0  0.980013  0  0  0.153532  0  0.97925  0  0.072362  0  0.103467  0.14976  0  0.980586  0
H  H18  1  0.23357951  0.49600006  0.44437849  1  0  0.13038  0  0.92166  0  0  0.153812  0  0.975031  0  0  0.156613  0  0.97361  0  0.058714  0  0.105126  0.151836  0  0.976029  0
H  H19  1  0.76642143  0.50400015  0.55562082  1  0  0.130416  0  0.921644  0  0  0.153836  0  0.975027  0  0  0.156636  0  0.973607  0  0.058715  0  0.105128  0.151858  0  0.976029  0
H  H20  1  0.39314501  0.74218448  0.49128732  1  0  0.118165  0  0.961233  0  0  0.131126  0  1.016084  0  0  0.134017  0  1.01793  0  0.026725  0  0.101428  0.129104  0  1.014994  0
H  H21  1  0.60685311  0.25781401  0.50871383  1  0  0.118173  0  0.961198  0  0  0.131141  0  1.016048  0  0  0.134032  0  1.017894  0  0.02675  0  0.101444  0.129119  0  1.014958  0
H  H22  1  0.63271311  0.00049203  0.42479143  1  0  0.12529  0  0.939323  0  0  0.145578  0  0.998234  0  0  0.147603  0  0.998284  0  0.043311  0  0.099016  0.144135  0  0.998241  0
H  H23  1  0.36728259  0.99950990  0.57520916  1  0  0.12526  0  0.939294  0  0  0.14555  0  0.998209  0  0  0.147574  0  0.998259  0  0.043338  0  0.098985  0.144109  0  0.998213  0
H  H24  1  0.71542251  0.87887528  0.43748130  1  0  0.123525  0  0.964536  0  0  0.145465  0  1.023183  0  0  0.147229  0  1.023524  0  0.07589  0  0.098653  0.144202  0  1.022996  0
H  H25  1  0.28457345  0.12112752  0.56251998  1  0  0.123558  0  0.964451  0  0  0.145502  0  1.023109  0  0  0.147266  0  1.023449  0  0.075645  0  0.098696  0.144239  0  1.022924  0
H  H26  1  0.57306872  0.90532967  0.51018660  1  0  0.126758  0  0.93709  0  0  0.149468  0  0.991666  0  0  0.151619  0  0.99086  0  0.053902  0  0.09995  0.147926  0  0.992225  0
H  H27  1  0.42692839  0.09467312  0.48981470  1  0  0.126698  0  0.93717  0  0  0.14941  0  0.991743  0  0  0.151561  0  0.990936  0  0.05393  0  0.099946  0.147871  0  0.992304  0
H  H28  1  0.78670335  0.93779878  0.31719144  1  0  0.101384  0  0.97443  0  0  0.113433  0  1.032773  0  0  0.115198  0  1.033156  0  0.096497  0  0.102928  0.112118  0  1.032626  0
H  H29  1  0.21329721  0.06220402  0.68281122  1  0  0.101458  0  0.974394  0  0  0.113491  0  1.03276  0  0  0.115257  0  1.033144  0  0.096556  0  0.102946  0.112177  0  1.032613  0
H  H30  1  0.94571380  0.06724500  0.21906458  1  0  0.089098  0  0.96342  0  0  0.099046  0  1.026219  0  0  0.101248  0  1.025903  0  0.062044  0  0.098475  0.097413  0  1.026585  0
H  H31  1  0.05428164  0.93275607  0.78093597  1  0  0.08905  0  0.963442  0  0  0.099007  0  1.026228  0  0  0.101212  0  1.025915  0  0.062024  0  0.098451  0.097372  0  1.026598  0
H  H32  1  0.81656053  0.13187300  0.08729527  1  0  0.092308  0  0.956924  0  0  0.103612  0  1.018603  0  0  0.105988  0  1.018223  0  0.08649  0  0.099758  0.101897  0  1.018976  0
H  H33  1  0.18343363  0.86812376  0.91270509  1  0  0.092296  0  0.956824  0  0  0.103583  0  1.018554  0  0  0.105958  0  1.018175  0  0.087005  0  0.099757  0.101868  0  1.018926  0
H  H34  1  0.53284609  0.06782579  0.05829722  1  0  0.10664  0  0.978087  0  0  0.11668  0  1.041313  0  0  0.119282  0  1.040395  0  0.082501  0  0.10586  0.11477  0  1.042169  0
H  H35  1  0.46714692  0.93217097  0.94170376  1  0  0.106646  0  0.978104  0  0  0.116715  0  1.041303  0  0  0.119318  0  1.040382  0  0.082487  0  0.105881  0.114803  0  1.042161  0
H  H36  1  0.33886381  0.14758105  0.13540249  1  0  0.145213  0  0.937831  0  0  0.163739  0  0.995182  0  0  0.167162  0  0.992932  0  0.088955  0  0.103809  0.16132  0  0.99677  0
H  H37  1  0.66113713  0.85241916  0.86459682  1  0  0.145231  0  0.937812  0  0  0.163762  0  0.995158  0  0  0.167184  0  0.992908  0  0.088977  0  0.103809  0.161342  0  0.996748  0
H  H38  1  0.14509893  0.12038559  0.08547393  1  0  0.119654  0  0.942585  0  0  0.145174  0  0.995714  0  0  0.147078  0  0.995285  0  0.038116  0  0.09779  0.143838  0  0.99599  0
H  H39  1  0.85490290  0.87961376  0.91452471  1  0  0.119613  0  0.942609  0  0  0.145123  0  0.995754  0  0  0.147027  0  0.995325  0  0.03808  0  0.097772  0.143789  0  0.99603  0
H  H40  1  0.30414114  0.09241373  0.02524658  1  0  0.121387  0  0.952711  0  0  0.141329  0  1.016997  0  0  0.143655  0  1.016532  0  0.064713  0  0.097648  0.139689  0  1.017336  0
H  H41  1  0.69586057  0.90758907  0.97475219  1  0  0.121397  0  0.952728  0  0  0.141345  0  1.017004  0  0  0.143672  0  1.016537  0  0.064744  0  0.097658  0.139704  0  1.017345  0
H  H42  1  0.98267436  0.94882087  0.07408123  1  0  0.108808  0  0.995728  0  0  0.119549  0  1.060845  0  0  0.121614  0  1.064142  0  0.039131  0  0.096558  0.118104  0  1.05874  0
H  H43  1  0.01732888  0.05117934  0.92591291  1  0  0.10876  0  0.99576  0  0  0.119523  0  1.060875  0  0  0.121577  0  1.064156  0  0.039222  0  0.096544  0.118078  0  1.05877  0
H  H44  1  0.77234613  0.67242415  0.13393378  1  0  0.132879  0  0.936179  0  0  0.152856  0  0.993331  0  0  0.155187  0  0.992702  0  0.065628  0  0.100836  0.151194  0  0.993797  0
H  H45  1  0.22765966  0.32757692  0.86606370  1  0  0.132891  0  0.936135  0  0  0.152868  0  0.993297  0  0  0.155188  0  0.992682  0  0.065549  0  0.100836  0.151206  0  0.993764  0
H  H46  1  0.81198835  0.70596092  0.02467866  1  0  0.125455  0  0.934111  0  0  0.149333  0  0.990527  0  0  0.151113  0  0.99086  0  0.062366  0  0.100763  0.148094  0  0.990278  0
H  H47  1  0.18801489  0.29403929  0.97531808  1  0  0.125437  0  0.934182  0  0  0.149346  0  0.990559  0  0  0.151126  0  0.990892  0  0.062369  0  0.100766  0.148103  0  0.990315  0
H  H48  1  0.76390283  0.81123303  0.09854976  1  0  0.128221  0  0.946918  0  0  0.149861  0  1.005009  0  0  0.151593  0  1.005579  0  0.067685  0  0.099469  0.14861  0  1.004675  0
H  H49  1  0.23610067  0.18876804  0.90144702  1  0  0.128266  0  0.946933  0  0  0.149903  0  1.005022  0  0  0.151633  0  1.005593  0  0.067924  0  0.099495  0.148653  0  1.004688  0
H  H50  1  0.44814766  0.51548325  0.15812861  1  0  0.13031  0  0.928418  0  0  0.138739  0  0.987048  0  0  0.143597  0  0.98321  0  0.118603  0  0.11101  0.135263  0  0.989857  0
H  H51  1  0.55185379  0.48451868  0.84187273  1  0  0.130292  0  0.928504  0  0  0.138742  0  0.987109  0  0  0.143599  0  0.983271  0  0.118626  0  0.111015  0.135266  0  0.989917  0
H  H52  1  0.02717076  0.80455049  0.44701759  1  0  0.126281  0  0.935813  0  0  0.135817  0  0.994862  0  0  0.140069  0  0.991788  0  0.085721  0  0.108559  0.132767  0  0.997157  0
H  H53  1  0.97283860  0.19543937  0.55298471  1  0  0.126219  0  0.935979  0  0  0.135771  0  0.994998  0  0  0.140017  0  0.991929  0  0.08583  0  0.108537  0.132722  0  0.997292  0
C  C54  1  0.04333212  0.60271209  0.17031460  1  0  0.148084  0  3.784909  0  0  0.13831  0  4.03281  0  0  0.143089  0  4.056971  0  0.357428  0  0.09678  0.135055  0  4.016546  0
C  C55  1  0.95666907  0.39728898  0.82968344  1  0  0.148177  0  3.785064  0  0  0.138479  0  4.032856  0  0  0.143254  0  4.057028  0  0.357512  0  0.096823  0.135229  0  4.016585  0
C  C56  1  0.95743096  0.52013043  0.10888063  1  0  -0.139688  0  3.733356  0  0  -0.158971  0  3.985207  0  0  -0.162825  0  4.007468  0  0.034323  0  -0.093464  -0.156343  0  3.970201  0
C  C57  1  0.04257049  0.47987150  0.89111745  1  0  -0.139688  0  3.733354  0  0  -0.159007  0  3.985189  0  0  -0.162853  0  4.007451  0  0.03423  0  -0.09345  -0.156379  0  3.97018  0
C  C58  1  0.94408564  0.40294781  0.12040553  1  0  -0.065151  0  3.782661  0  0  -0.083314  0  4.040971  0  0  -0.084964  0  4.062656  0  -0.06649  0  -0.096484  -0.082158  0  4.026274  0
C  C59  1  0.05591529  0.59705240  0.87959313  1  0  -0.065117  0  3.782513  0  0  -0.08326  0  4.040824  0  0  -0.084908  0  4.06252  0  -0.066601  0  -0.096465  -0.082104  0  4.026127  0
C  C60  1  0.01839904  0.36713787  0.19248824  1  0  -0.067506  0  3.794932  0  0  -0.083405  0  4.046451  0  0  -0.085776  0  4.069562  0  -0.050677  0  -0.096027  -0.081791  0  4.030804  0
C  C61  1  0.98159922  0.63286493  0.80750983  1  0  -0.067519  0  3.794734  0  0  -0.083417  0  4.046257  0  0  -0.085787  0  4.069363  0  -0.050276  0  -0.09602  -0.081803  0  4.030609  0
C  C62  1  0.10692520  0.44799869  0.25363315  1  0  -0.144211  0  3.75268  0  0  -0.164276  0  4.003325  0  0  -0.167959  0  4.025293  0  0.001557  0  -0.093228  -0.161801  0  3.988554  0
C  C63  1  0.89307088  0.55200065  0.74636669  1  0  -0.144253  0  3.752721  0  0  -0.164348  0  4.003365  0  0  -0.168031  0  4.025333  0  0.00151  0  -0.09326  -0.161871  0  3.988593  0
C  C64  1  0.11884004  0.56590257  0.24418227  1  0  0.143385  0  3.793176  0  0  0.134508  0  4.044773  0  0  0.138891  0  4.069206  0  0.338461  0  0.09629  0.131502  0  4.028343  0
C  C65  1  0.88115681  0.43409937  0.75581769  1  0  0.143201  0  3.793506  0  0  0.134426  0  4.044949  0  0  0.138809  0  4.069389  0  0.338351  0  0.096255  0.131417  0  4.02852  0
C  C66  1  0.25681719  0.65765278  0.38111666  1  0  0.389755  0  3.710245  0  0  0.380426  0  3.975595  0  0  0.403551  0  3.986169  0  0.520011  0  0.143133  0.365341  0  3.967763  0
C  C67  1  0.74318196  0.34234915  0.61888399  1  0  0.389698  0  3.710316  0  0  0.380367  0  3.975702  0  0  0.403506  0  3.98625  0  0.519995  0  0.143104  0.365283  0  3.967869  0
C  C68  1  0.17209000  0.56700469  0.43818180  1  0  -0.376984  0  3.69074  0  0  -0.457291  0  3.924929  0  0  -0.462275  0  3.928932  0  -0.114833  0  -0.227257  -0.453701  0  3.921842  0
C  C69  1  0.82790838  0.43299466  0.56181743  1  0  -0.377051  0  3.690717  0  0  -0.457337  0  3.924885  0  0  -0.462324  0  3.928883  0  -0.114862  0  -0.227271  -0.453744  0  3.921799  0
C  C70  1  0.37485281  0.74640425  0.42121315  1  0  -0.384524  0  3.718312  0  0  -0.414867  0  3.987517  0  0  -0.437314  0  4.009453  0  0.077709  0  -0.133163  -0.400282  0  3.97254  0
C  C71  1  0.62514519  0.25359768  0.57878813  1  0  -0.384494  0  3.718261  0  0  -0.414872  0  3.987461  0  0  -0.437295  0  4.009422  0  0.077735  0  -0.133191  -0.400287  0  3.972483  0
C  C72  1  0.47779235  0.83708337  0.38357412  1  0  0.395181  0  3.702869  0  0  0.38705  0  3.962394  0  0  0.410301  0  3.972964  0  0.466184  0  0.142807  0.371825  0  3.954658  0
C  C73  1  0.52220539  0.16291770  0.61642843  1  0  0.395181  0  3.702845  0  0  0.387135  0  3.962262  0  0  0.410297  0  3.972959  0  0.466104  0  0.142808  0.371912  0  3.954526  0
C  C74  1  0.60590672  0.91023537  0.44197305  1  0  -0.381083  0  3.689384  0  0  -0.461891  0  3.926446  0  0  -0.467359  0  3.931929  0  -0.051077  0  -0.234865  -0.457939  0  3.922386  0
C  C75  1  0.39409013  0.08976657  0.55802887  1  0  -0.381016  0  3.689307  0  0  -0.461859  0  3.926415  0  0  -0.4673  0  3.931924  0  -0.050857  0  -0.234862  -0.457914  0  3.922361  0
C  C76  1  0.56402465  0.93716715  0.25015317  1  0  0.152451  0  3.770108  0  0  0.141716  0  4.020748  0  0  0.146635  0  4.044083  0  0.377831  0  0.099386  0.138345  0  4.005101  0
C  C77  1  0.43597577  0.06283134  0.74984867  1  0  0.152604  0  3.770065  0  0  0.141855  0  4.020715  0  0  0.146774  0  4.04405  0  0.377271  0  0.099428  0.138484  0  4.005068  0
C  C78  1  0.72805081  0.97035664  0.26364684  1  0  -0.140537  0  3.735415  0  0  -0.157991  0  3.98196  0  0  -0.161727  0  4.004192  0  -0.099043  0  -0.09543  -0.155499  0  3.96704  0
C  C79  1  0.27194668  0.02964357  0.73635306  1  0  -0.14065  0  3.735251  0  0  -0.158097  0  3.981809  0  0  -0.161832  0  4.004042  0  -0.098653  0  -0.095459  -0.155604  0  3.966889  0
C  C80  1  0.81847127  0.04258037  0.20691256  1  0  -0.074348  0  3.809319  0  0  -0.090396  0  4.065094  0  0  -0.09242  0  4.087955  0  -0.03113  0  -0.097097  -0.088972  0  4.049623  0
C  C81  1  0.18152826  0.95741897  0.79308864  1  0  -0.074268  0  3.809396  0  0  -0.09031  0  4.065156  0  0  -0.092341  0  4.088025  0  -0.031189  0  -0.097061  -0.088886  0  4.049684  0
C  C82  1  0.74711814  0.07830156  0.13379084  1  0  -0.074168  0  3.785584  0  0  -0.090758  0  4.040647  0  0  -0.092696  0  4.062584  0  -0.035649  0  -0.098227  -0.089419  0  4.025797  0
C  C83  1  0.25287794  0.92169779  0.86620705  1  0  -0.074053  0  3.785444  0  0  -0.090646  0  4.040524  0  0  -0.092583  0  4.062463  0  -0.036174  0  -0.098185  -0.089305  0  4.025671  0
C  C84  1  0.58476362  0.04286043  0.11742546  1  0  -0.134798  0  3.719374  0  0  -0.154938  0  3.970544  0  0  -0.158445  0  3.991524  0  -0.025063  0  -0.091911  -0.152621  0  3.956527  0
C  C85  1  0.41523514  0.95713633  0.88257628  1  0  -0.134929  0  3.719238  0  0  -0.155102  0  3.970417  0  0  -0.158609  0  3.991394  0  -0.025049  0  -0.091981  -0.152784  0  3.956402  0
C  C86  1  0.49062468  0.97443423  0.17551094  1  0  0.159035  0  3.771573  0  0  0.149283  0  4.021429  0  0  0.154844  0  4.04443  0  0.404938  0  0.103843  0.145461  0  4.006021  0
C  C87  1  0.50937574  0.02556425  0.82448829  1  0  0.158857  0  3.771691  0  0  0.149124  0  4.021535  0  0  0.154683  0  4.044541  0  0.405058  0  0.1038  0.145302  0  4.006128  0
C  C88  1  0.21889459  0.96830750  0.11966159  1  0  0.408361  0  3.689457  0  0  0.397093  0  3.951692  0  0  0.421721  0  3.959986  0  0.521486  0  0.149497  0.381018  0  3.945381  0
C  C89  1  0.78110750  0.03169271  0.88033709  1  0  0.408259  0  3.689394  0  0  0.397091  0  3.951523  0  0  0.421718  0  3.95982  0  0.521609  0  0.149487  0.381018  0  3.945213  0
C  C90  1  0.25449768  0.08909960  0.09032683  1  0  -0.38075  0  3.665525  0  0  -0.461618  0  3.898634  0  0  -0.466606  0  3.901201  0  -0.076365  0  -0.234988  -0.457996  0  3.896494  0
C  C91  1  0.74550441  0.91090060  0.90967184  1  0  -0.380709  0  3.665548  0  0  -0.461609  0  3.89863  0  0  -0.466599  0  3.901202  0  -0.07636  0  -0.234976  -0.457981  0  3.89647  0
C  C92  1  0.06429370  0.90270060  0.10329593  1  0  -0.387986  0  3.703709  0  0  -0.419049  0  3.977846  0  0  -0.441417  0  3.998806  0  0.083371  0  -0.132694  -0.404516  0  3.963504  0
C  C93  1  0.93570916  0.09730219  0.89670091  1  0  -0.387857  0  3.70362  0  0  -0.418998  0  3.977695  0  0  -0.441343  0  3.998672  0  0.083257  0  -0.132593  -0.404466  0  3.963354  0
C  C94  1  0.99790108  0.78762485  0.11944205  1  0  0.399839  0  3.693125  0  0  0.391601  0  3.951435  0  0  0.415611  0  3.960414  0  0.477533  0  0.147404  0.37598  0  3.944613  0
C  C95  1  0.00210356  0.21237622  0.88055475  1  0  0.399837  0  3.693059  0  0  0.391674  0  3.951343  0  0  0.415684  0  3.960322  0  0.477642  0  0.147383  0.376053  0  3.944521  0
C  C96  1  0.82741620  0.74119782  0.09280650  1  0  -0.379494  0  3.669714  0  0  -0.459181  0  3.901825  0  0  -0.464423  0  3.90616  0  -0.08519  0  -0.235002  -0.455443  0  3.898504  0
C  C97  1  0.17258845  0.25880325  0.90719030  1  0  -0.379528  0  3.669746  0  0  -0.459242  0  3.901834  0  0  -0.464473  0  3.906177  0  -0.085419  0  -0.235013  -0.455499  0  3.898515  0
C  C98  1  0.39143764  0.69490091  0.07236094  1  0  0.660713  0  3.850399  0  0  0.606405  0  4.153672  0  0  0.642019  0  4.142539  0  1.465501  0  0.222106  0.582267  0  4.160568  0
C  C99  1  0.60856163  0.30509757  0.92763958  1  0  0.660745  0  3.850514  0  0  0.606452  0  4.153737  0  0  0.642064  0  4.14261  0  1.465838  0  0.222144  0.582314  0  4.160634  0
C  C100  1  0.44599280  0.59408210  0.03505026  1  0  -0.181119  0  3.789455  0  0  -0.166774  0  4.035801  0  0  -0.175689  0  4.056905  0  -0.068492  0  -0.035484  -0.160752  0  4.021464  0
C  C101  1  0.55399753  0.40591725  0.96494883  1  0  -0.181015  0  3.789221  0  0  -0.166661  0  4.035517  0  0  -0.175572  0  4.056621  0  -0.068544  0  -0.035438  -0.160642  0  4.021182  0
C  C102  1  0.47094740  0.50794762  0.08901394  1  0  -0.164561  0  3.716409  0  0  -0.198631  0  3.977191  0  0  -0.199647  0  3.992886  0  0.022338  0  -0.101509  -0.197857  0  3.966639  0
C  C103  1  0.52904574  0.49205345  0.91098397  1  0  -0.16464  0  3.716327  0  0  -0.19874  0  3.977163  0  0  -0.199759  0  3.992855  0  0.022364  0  -0.101565  -0.197965  0  3.966613  0
C  C104  1  0.47446186  0.58639740  0.94450509  1  0  0.298504  0  3.837394  0  0  0.285039  0  4.104558  0  0  0.295171  0  4.121653  0  0.537111  0  0.076551  0.277929  0  4.092885  0
C  C105  1  0.52552936  0.41360109  0.05549464  1  0  0.298313  0  3.83759  0  0  0.284902  0  4.10466  0  0  0.295029  0  4.12176  0  0.53712  0  0.076493  0.277792  0  4.092985  0
C  C106  1  0.15763337  0.96978791  0.34075500  1  0  0.65948  0  3.855659  0  0  0.606907  0  4.159074  0  0  0.641959  0  4.149114  0  1.542322  0  0.222943  0.583126  0  4.165238  0
C  C107  1  0.84236832  0.03020713  0.65924672  1  0  0.659756  0  3.855444  0  0  0.607124  0  4.158978  0  0  0.642172  0  4.149024  0  1.542342  0  0.223021  0.583345  0  4.16514  0
C  C108  1  0.07456002  0.98473077  0.42219501  1  0  -0.182612  0  3.782355  0  0  -0.169116  0  4.03044  0  0  -0.177707  0  4.051209  0  -6e-06  0  -0.034626  -0.163285  0  4.016338  0
C  C109  1  0.92544935  0.01526686  0.57780890  1  0  -0.182691  0  3.782212  0  0  -0.169249  0  4.030386  0  0  -0.177837  0  4.051149  0  4e-06  0  -0.034665  -0.163418  0  4.016286  0
C  C110  1  0.01513483  0.88981206  0.47089114  1  0  -0.170014  0  3.718528  0  0  -0.203865  0  3.979915  0  0  -0.204811  0  3.995375  0  0.028562  0  -0.100831  -0.203131  0  3.969541  0
C  C111  1  0.98487261  0.11018298  0.52911133  1  0  -0.170019  0  3.718585  0  0  -0.203834  0  3.979977  0  0  -0.204775  0  3.995432  0  0.028222  0  -0.10079  -0.203101  0  3.969604  0
C  C112  1  0.06049900  0.09715915  0.45158652  1  0  0.297442  0  3.84761  0  0  0.283171  0  4.116855  0  0  0.293333  0  4.133884  0  0.455127  0  0.075736  0.276049  0  4.105244  0
C  C113  1  0.93950870  0.90283675  0.54841729  1  0  0.297382  0  3.847548  0  0  0.283159  0  4.116767  0  0  0.29332  0  4.133795  0  0.454898  0  0.075792  0.276037  0  4.105156  0
N  N114  1  0.08029706  0.72198435  0.16119056  1  0  -0.463573  0  3.330805  0  0  -0.382427  0  3.568864  0  0  -0.408533  0  3.586312  0  -1.302533  0  -0.300934  -0.36501  0  3.556637  0
N  N115  1  0.91970528  0.27801672  0.83880621  1  0  -0.463594  0  3.330774  0  0  -0.382599  0  3.568972  0  0  -0.408725  0  3.586428  0  -1.302735  0  -0.300991  -0.365184  0  3.556749  0
N  N116  1  0.46247598  0.85920424  0.29922624  1  0  -0.457421  0  3.314721  0  0  -0.37611  0  3.552354  0  0  -0.402003  0  3.570209  0  -1.289889  0  -0.295016  -0.358792  0  3.539841  0
N  N117  1  0.53752151  0.14079597  0.70077496  1  0  -0.457562  0  3.314881  0  0  -0.376261  0  3.552484  0  0  -0.402137  0  3.570361  0  -1.289802  0  -0.295043  -0.358943  0  3.539973  0
N  N118  1  0.21605917  0.65520381  0.29610016  1  0  -0.447063  0  3.310951  0  0  -0.36855  0  3.551305  0  0  -0.393807  0  3.568447  0  -1.311103  0  -0.294764  -0.351719  0  3.539378  0
N  N119  1  0.78393857  0.34479726  0.70389978  1  0  -0.446955  0  3.310939  0  0  -0.368503  0  3.551332  0  0  -0.393774  0  3.568458  0  -1.310965  0  -0.294741  -0.351671  0  3.539405  0
N  N120  1  0.32932253  0.92735662  0.16243331  1  0  -0.4541  0  3.36446  0  0  -0.378622  0  3.609926  0  0  -0.403864  0  3.624984  0  -1.315169  0  -0.29715  -0.361791  0  3.599353  0
N  N121  1  0.67067559  0.07264187  0.83756589  1  0  -0.453996  0  3.364516  0  0  -0.378521  0  3.609879  0  0  -0.403775  0  3.624933  0  -1.315143  0  -0.297144  -0.361691  0  3.599306  0
O  O122  1  0.39549202  0.70553265  0.15739068  1  0  -0.624437  0  2.131584  0  0  -0.56379  0  2.380405  0  0  -0.590419  0  2.373872  0  -1.138905  0  -0.257966  -0.54533  0  2.384304  0
O  O123  1  0.60450790  0.29447187  0.84260943  1  0  -0.624469  0  2.131599  0  0  -0.56381  0  2.380413  0  0  -0.590452  0  2.373869  0  -1.139209  0  -0.25797  -0.545347  0  2.384308  0
O  O124  1  0.34665044  0.76353326  0.02249865  1  0  -0.59194  0  1.985593  0  0  -0.543145  0  2.211713  0  0  -0.565265  0  2.204633  0  -1.169246  0  -0.294998  -0.527908  0  2.216282  0
O  O125  1  0.65334731  0.23646781  0.97749998  1  0  -0.591914  0  1.985723  0  0  -0.543134  0  2.211847  0  0  -0.565255  0  2.204768  0  -1.169151  0  -0.295003  -0.527898  0  2.216417  0
O  O126  1  0.45089429  0.66789416  0.89023480  1  0  -0.515566  0  2.091321  0  0  -0.472436  0  2.294085  0  0  -0.491031  0  2.286591  0  -1.164644  0  -0.365469  -0.459082  0  2.298902  0
O  O127  1  0.54909360  0.33210087  0.10976668  1  0  -0.515464  0  2.091321  0  0  -0.47235  0  2.294068  0  0  -0.490946  0  2.286574  0  -1.164849  0  -0.365416  -0.458994  0  2.298885  0
O  O128  1  0.12196737  0.19133248  0.40758155  1  0  -0.526963  0  2.054948  0  0  -0.484086  0  2.251102  0  0  -0.502426  0  2.241473  0  -1.164143  0  -0.372895  -0.470872  0  2.257336  0
O  O129  1  0.87804186  0.80866084  0.59242283  1  0  -0.526942  0  2.05493  0  0  -0.484018  0  2.251134  0  0  -0.502355  0  2.241507  0  -1.164225  0  -0.372896  -0.470804  0  2.257367  0
O  O130  1  0.14234202  0.86365237  0.31047695  1  0  -0.630107  0  2.142589  0  0  -0.567423  0  2.391172  0  0  -0.595204  0  2.386272  0  -1.189157  0  -0.258733  -0.548148  0  2.393975  0
O  O131  1  0.85765841  0.13634612  0.68952032  1  0  -0.630262  0  2.142289  0  0  -0.56754  0  2.390906  0  0  -0.595334  0  2.385992  0  -1.188927  0  -0.258786  -0.548267  0  2.39371  0
O  O132  1  0.23461181  0.05746377  0.30651169  1  0  -0.573232  0  1.935811  0  0  -0.527774  0  2.145666  0  0  -0.549033  0  2.13667  0  -1.157867  0  -0.298442  -0.51318  0  2.151575  0
O  O133  1  0.76540344  0.94253816  0.69349314  1  0  -0.573296  0  1.935981  0  0  -0.52778  0  2.145862  0  0  -0.549034  0  2.136876  0  -1.158134  0  -0.298472  -0.513188  0  2.15177  0
