# generated using pymatgen
data_Zn6H51C77(O8F5)3
_symmetry_space_group_name_H-M   'P 1'
_cell_length_a   18.55244576
_cell_length_b   18.70747431
_cell_length_c   18.82775124
_cell_angle_alpha   109.54106960
_cell_angle_beta   109.26907176
_cell_angle_gamma   108.97988965
_symmetry_Int_Tables_number   1
_chemical_formula_structural   Zn6H51C77(O8F5)3
_chemical_formula_sum   'Zn6 H51 C77 O24 F15'
_cell_volume   5068.54264721
_cell_formula_units_Z   1
loop_
 _symmetry_equiv_pos_site_id
 _symmetry_equiv_pos_as_xyz
  1  'x, y, z'
loop_
 _atom_site_type_symbol
 _atom_site_label
 _atom_site_symmetry_multiplicity
 _atom_site_fract_x
 _atom_site_fract_y
 _atom_site_fract_z
 _atom_site_occupancy
 _atom_site_pbe_bader_charge
 _atom_site_pbe_bader_spin_density
 _atom_site_pbe_cm5_charge
 _atom_site_pbe_ddec_charge
 _atom_site_pbe_ddec_spin_density
 _atom_site_pbe_ddec_sum_bond_order
 _atom_site_pbe_magmom
Zn  Zn0  1  0.56216143  0.56140728  0.50335919  1  1.314101  0  0.73194  0.966777  0  2.10544  0
Zn  Zn1  1  0.43693088  0.43714737  0.50471406  1  1.309209  0  0.731375  0.948894  0  2.146506  0
Zn  Zn2  1  0.99779433  0.56533696  0.06431112  1  1.315172  0  0.731819  0.9595  0  2.117968  0
Zn  Zn3  1  0.00545454  0.44016421  0.94482202  1  1.319203  0  0.736452  0.97304  0  2.12728  0
Zn  Zn4  1  0.55335984  0.00464791  0.05171602  1  1.309878  0  0.725726  0.943834  0  2.180724  0
Zn  Zn5  1  0.42477603  0.99393550  0.91810713  1  1.317085  0  0.734768  0.968938  0  2.095246  0
H  H6  1  0.66656714  0.32347072  0.45419420  1  0.084833  0  0.096204  0.058759  0  1.000138  0
H  H7  1  0.36309330  0.44049026  0.17657855  1  0.072835  0  0.106704  0.144509  0  0.965303  0
H  H8  1  0.42326182  0.55509902  0.21503672  1  0.093374  0  0.107964  0.14602  0  0.964365  0
H  H9  1  0.44217809  0.74998510  0.58358759  1  0.081457  0  0.102447  0.138217  0  0.984411  0
H  H10  1  0.55921594  0.79573452  0.63495524  1  0.096505  0  0.107264  0.148748  0  0.960659  0
H  H11  1  0.72910720  0.21007177  0.82227448  1  0.06425  0  0.106093  0.1082  0  1.000274  0
H  H12  1  0.59925153  0.10975400  0.81765577  1  0.095163  0  0.109918  0.115949  0  0.990337  0
H  H13  1  0.72336039  0.31339765  0.15697129  1  0.076768  0  0.100852  0.127617  0  0.979644  0
H  H14  1  0.78517192  0.25765336  0.16282505  1  0.077241  0  0.10756  0.138731  0  0.963999  0
H  H15  1  0.84141628  0.42670868  0.15372566  1  0.097005  0  0.107126  0.064211  0  0.947967  0
H  H16  1  0.58457897  0.22399874  0.54625321  1  0.104783  0  0.115016  0.136143  0  0.975757  0
H  H17  1  0.39817025  0.91513853  0.15994721  1  0.07217  0  0.104757  0.074914  0  0.958265  0
H  H18  1  0.67275286  0.22436652  0.68119794  1  0.079141  0  0.107175  0.105059  0  0.986046  0
H  H19  1  0.78412973  0.36375764  0.81437582  1  0.092633  0  0.101165  0.110666  0  1.042436  0
H  H20  1  0.87243657  0.66511958  0.90170350  1  0.113535  0  0.125079  0.154009  0  0.962479  0
H  H21  1  0.66527536  0.20647949  0.33462245  1  0.077236  0  0.105415  0.070709  0  0.954678  0
H  H22  1  0.29106952  0.54445617  0.58531559  1  0.024576  0  0.078959  0.105806  0  1.041886  0
H  H23  1  0.20528800  0.56979842  0.55443710  1  0.012989  0  0.08674  0.114695  0  0.99634  0
H  H24  1  0.18065058  0.46297238  0.53541046  1  0.027126  0  0.087801  0.115117  0  0.997818  0
H  H25  1  0.14931127  0.46820076  0.39703834  1  0.015542  0  0.090067  0.082963  0  0.978823  0
H  H26  1  0.23388170  0.44197706  0.42726733  1  0.051199  0  0.084262  0.078484  0  0.992548  0
H  H27  1  0.34652909  0.59608647  0.49324576  1  0.032625  0  0.091882  0.092998  0  1.007924  0
H  H28  1  0.26345989  0.62486923  0.46669708  1  0.052963  0  0.097687  0.09954  0  0.976095  0
H  H29  1  0.42172954  0.39782371  0.70080057  1  -0.002481  0  0.083559  0.109874  0  1.005136  0
H  H30  1  0.44878628  0.43620275  0.81089075  1  0.013919  0  0.083868  0.107707  0  1.002907  0
H  H31  1  0.33718007  0.37440483  0.72832443  1  0.010399  0  0.087293  0.112862  0  1.002169  0
H  H32  1  0.37906672  0.53236698  0.79900737  1  0.009115  0  0.085709  0.071896  0  0.990061  0
H  H33  1  0.35726673  0.49500399  0.69091651  1  0.055333  0  0.08814  0.082975  0  1.002805  0
H  H34  1  0.52084547  0.54902387  0.74641889  1  0.05493  0  0.093978  0.100194  0  0.994754  0
H  H35  1  0.53854730  0.59837508  0.85251722  1  0.035591  0  0.093926  0.09129  0  1.004265  0
H  H36  1  0.58979100  0.80866589  0.10960945  1  0.023006  0  0.082839  0.10794  0  1.004929  0
H  H37  1  0.57234612  0.70073230  0.07237468  1  0.027588  0  0.08287  0.106687  0  1.004494  0
H  H38  1  0.68070881  0.78998725  0.13409715  1  0.013545  0  0.086653  0.112064  0  1.003081  0
H  H39  1  0.63842866  0.72000923  0.97650243  1  0.014152  0  0.085326  0.071054  0  0.989102  0
H  H40  1  0.65316771  0.82650862  0.01363318  1  0.037669  0  0.087896  0.085144  0  0.989722  0
H  H41  1  0.49002787  0.76384505  0.95820129  1  0.04571  0  0.092596  0.096614  0  0.995604  0
H  H42  1  0.47693700  0.65869421  0.91257511  1  0.012331  0  0.093564  0.09025  0  1.009189  0
H  H43  1  0.37607649  0.74646702  0.32397070  1  0.012942  0  0.080198  0.105415  0  1.008071  0
H  H44  1  0.35297820  0.82882301  0.37355607  1  0.013546  0  0.083221  0.107778  0  1.003069  0
H  H45  1  0.28337034  0.71906522  0.33921713  1  0.03644  0  0.080734  0.108812  0  1.032492  0
H  H46  1  0.21151939  0.75829501  0.23312289  1  0.046196  0  0.088876  0.08845  0  0.972678  0
H  H47  1  0.23815353  0.68072474  0.18322886  1  0.038869  0  0.080445  0.074776  0  1.010291  0
H  H48  1  0.36733653  0.79313139  0.19984025  1  0.051695  0  0.096715  0.103656  0  0.970721  0
H  H49  1  0.35814440  0.87672361  0.26876126  1  0.030372  0  0.095625  0.101137  0  0.972602  0
H  H50  1  0.19132355  0.26648956  0.24293563  1  0.034249  0  0.083045  0.109724  0  1.00606  0
H  H51  1  0.14352378  0.19140037  0.13150270  1  0.021006  0  0.086493  0.112099  0  0.99953  0
H  H52  1  0.11768721  0.15509147  0.20025051  1  0.033318  0  0.088458  0.114555  0  1.000544  0
H  H53  1  0.22650044  0.11402955  0.17275331  1  0.043432  0  0.091236  0.085183  0  0.973813  0
H  H54  1  0.27459519  0.19042923  0.28336674  1  0.037722  0  0.086548  0.082564  0  0.986389  0
H  H55  1  0.33886283  0.31116159  0.25416972  1  0.008467  0  0.092431  0.094161  0  0.992722  0
H  H56  1  0.29470336  0.23315504  0.14524338  1  0.044192  0  0.096453  0.096999  0  0.979764  0
C  C57  1  0.47775621  0.36135262  0.38775683  1  1.578158  0  0.228805  0.618401  0  4.141897  0
C  C58  1  0.70012616  0.44425240  0.68713771  1  0.083835  0  -0.002673  -0.025074  0  3.960599  0
C  C59  1  0.70654576  0.52450508  0.69244481  1  0.074405  0  -0.016416  -0.16449  0  3.923655  0
C  C60  1  0.76785062  0.60056617  0.76985758  1  0.425881  0  0.110133  0.282482  0  4.054115  0
C  C61  1  0.82436665  0.60290217  0.84289615  1  0.066008  0  -0.083757  -0.213943  0  3.97198  0
C  C62  1  0.81893770  0.52611456  0.83852907  1  -0.023618  0  0.001395  -0.026129  0  3.921205  0
C  C63  1  0.55402812  0.28733756  0.33017488  1  -0.015959  0  -0.01583  -0.032535  0  3.929877  0
C  C64  1  0.47786892  0.29290263  0.31808097  1  0.023125  0  0.003533  -0.05544  0  3.899474  0
C  C65  1  0.40290505  0.23590218  0.23545866  1  0.056036  0  0.000145  0.001964  0  3.9083  0
C  C66  1  0.40754903  0.17405416  0.17149893  1  0.434433  0  0.121947  0.2371  0  3.963786  0
C  C67  1  0.48232679  0.16516434  0.18316961  1  0.057154  0  -0.015179  -0.156382  0  3.970265  0
C  C68  1  0.64000825  0.52614652  0.62239984  1  1.599397  0  0.221777  0.626071  0  4.151836  0
C  C69  1  0.55499327  0.22489150  0.26534734  1  -0.005242  0  -0.010658  0.001501  0  3.962178  0
C  C70  1  0.65022370  0.25356691  0.31961419  1  0.560837  0  0.028445  0.115383  0  3.860527  0
C  C71  1  0.65009000  0.32588357  0.39376076  1  0.533001  0  0.025976  0.116869  0  3.859915  0
C  C72  1  0.32188644  0.52078869  0.25490452  1  -0.01456  0  -0.006666  0.07879  0  3.949127  0
C  C73  1  0.33385601  0.53668469  0.33678178  1  -0.012594  0  -0.00289  -0.091114  0  3.924365  0
C  C74  1  0.27195923  0.55162850  0.35838177  1  0.078791  0  0.002997  0.00892  0  3.920379  0
C  C75  1  0.20179824  0.54892224  0.29595157  1  0.434608  0  0.116796  0.216655  0  3.98582  0
C  C76  1  0.18615270  0.52903853  0.21171475  1  0.035236  0  -0.008059  -0.122317  0  3.965063  0
C  C77  1  0.24926101  0.51472847  0.19437256  1  0.031722  0  -0.017966  -0.098696  0  3.92779  0
C  C78  1  0.27845704  0.49460715  0.12711320  1  1.127072  0  0.205068  0.512332  0  3.899047  0
C  C79  1  0.47942363  0.58998015  0.62535253  1  1.534844  0  0.223861  0.611903  0  4.134411  0
C  C80  1  0.36063328  0.50155540  0.19562328  1  -0.027336  0  -0.153422  -0.350006  0  3.837706  0
C  C81  1  0.50015035  0.73664986  0.70034684  1  -0.02803  0  -0.002987  0.100597  0  3.953638  0
C  C82  1  0.49148861  0.66064638  0.70232814  1  -0.008347  0  -0.009255  -0.123317  0  3.937086  0
C  C83  1  0.49855703  0.65794612  0.77864140  1  0.002356  0  0.015211  0.075435  0  3.844037  0
C  C84  1  0.51182706  0.73029660  0.84962713  1  0.030519  0  0.009779  0.057267  0  3.84651  0
C  C85  1  0.51747228  0.80556021  0.84436750  1  0.027424  0  -0.000525  -0.058783  0  3.920348  0
C  C86  1  0.51023887  0.80545748  0.76824957  1  -0.012638  0  -0.025051  -0.121114  0  3.944809  0
C  C87  1  0.51242796  0.85768322  0.72140287  1  1.094659  0  0.203025  0.511606  0  3.895012  0
C  C88  1  0.50236519  0.78009550  0.64507469  1  -0.04763  0  -0.156653  -0.35187  0  3.840274  0
C  C89  1  0.87517768  0.36079481  0.96684020  1  1.540527  0  0.22258  0.607456  0  4.140891  0
C  C90  1  0.40474161  0.52955760  0.39586512  1  1.574464  0  0.226401  0.620111  0  4.139214  0
C  C91  1  0.88742540  0.53083038  0.91230413  1  1.546532  0  0.223908  0.609709  0  4.130131  0
C  C92  1  0.11858211  0.59773182  0.98333385  1  1.588855  0  0.223906  0.624373  0  4.139748  0
C  C93  1  0.11153356  0.52385549  0.14416196  1  1.574057  0  0.229143  0.626833  0  4.139214  0
C  C94  1  0.34787288  0.87278559  0.94985014  1  1.626976  0  0.22726  0.634442  0  4.131723  0
C  C95  1  0.48960573  0.10310155  0.11558989  1  1.579325  0  0.225483  0.634443  0  4.127184  0
C  C96  1  0.57924662  0.11142459  0.95767900  1  1.541774  0  0.227406  0.620105  0  4.129547  0
C  C97  1  0.52403171  0.88221970  0.91066185  1  1.54362  0  0.22334  0.609136  0  4.129983  0
C  C98  1  0.79344414  0.30474783  0.03532383  1  -0.016061  0  -0.0137  -0.03639  0  3.899769  0
C  C99  1  0.79895384  0.29451843  0.96082660  1  -0.031851  0  -0.004874  -0.038368  0  3.965141  0
C  C100  1  0.72747781  0.22166493  0.88231005  1  0.016179  0  -0.080041  -0.102497  0  3.960214  0
C  C101  1  0.64252876  0.36189076  0.61072354  1  0.399636  0  0.098179  0.238915  0  4.031578  0
C  C102  1  0.65410796  0.16478328  0.87966463  1  0.008623  0  -0.073015  -0.085548  0  3.94869  0
C  C103  1  0.65098452  0.17481772  0.95598137  1  -0.008977  0  -0.00669  -0.06404  0  3.9533  0
C  C104  1  0.72371532  0.24508880  0.03365685  1  0.010012  0  0.002649  0.086937  0  3.90003  0
C  C105  1  0.76216365  0.29171610  0.13125328  1  -0.048455  0  -0.152405  -0.284401  0  3.850924  0
C  C106  1  0.83786416  0.36271480  0.13253430  1  0.502874  0  0.034962  0.198455  0  3.84755  0
C  C107  1  0.23202269  0.75388956  0.04133456  1  0.01116  0  -0.003944  -0.022275  0  3.8572  0
C  C108  1  0.17771488  0.66655314  0.97471190  1  0.035564  0  -0.0094  -0.124316  0  3.925091  0
C  C109  1  0.17807747  0.65031896  0.89627404  1  0.519886  0  0.112176  0.173412  0  4.01353  0
C  C110  1  0.22885447  0.71588584  0.88491260  1  0.559776  0  0.106748  0.161574  0  4.044088  0
C  C111  1  0.28395770  0.80151066  0.95202574  1  0.05618  0  -0.004981  -0.112051  0  3.967695  0
C  C112  1  0.63136862  0.28436852  0.60737760  1  0.02269  0  -0.101278  -0.217013  0  4.04534  0
C  C113  1  0.28294123  0.81682251  0.02935980  1  0.016229  0  -0.015897  -0.014241  0  3.98863  0
C  C114  1  0.32720021  0.88857559  0.12102307  1  0.525054  0  0.025467  0.086239  0  3.855379  0
C  C115  1  0.26780497  0.81897731  0.13683174  1  0.551452  0  0.103629  0.255092  0  3.800745  0
C  C116  1  0.68156885  0.28552952  0.68289931  1  -0.08637  0  -0.089111  -0.055885  0  4.054751  0
C  C117  1  0.74315455  0.36356640  0.75768553  1  0.015235  0  -0.095597  -0.140198  0  3.98011  0
C  C118  1  0.75496560  0.44399420  0.76161902  1  -0.016661  0  0.002805  0.069488  0  3.947698  0
C  C119  1  0.27869817  0.57189333  0.44558304  1  0.007433  0  -0.161278  -0.190971  0  3.965791  0
C  C120  1  0.21708923  0.49398926  0.44634100  1  -0.011767  0  -0.164326  -0.087649  0  3.944528  0
C  C121  1  0.22392540  0.51928157  0.53527142  1  -0.051637  0  -0.245152  -0.351947  0  3.968129  0
C  C122  1  0.49495177  0.57864867  0.78532186  1  -0.024848  0  -0.163239  -0.203797  0  3.959846  0
C  C123  1  0.40264833  0.50816288  0.75455726  1  -0.020824  0  -0.165807  -0.090759  0  3.953997  0
C  C124  1  0.40233004  0.42450901  0.74837490  1  -0.013874  0  -0.243488  -0.348602  0  3.982015  0
C  C125  1  0.51767045  0.72606870  0.93001689  1  -0.005375  0  -0.162929  -0.200436  0  3.963794  0
C  C126  1  0.61150137  0.76123514  0.00052110  1  0.011192  0  -0.166367  -0.09116  0  3.954997  0
C  C127  1  0.61390764  0.76529232  0.08373895  1  -0.074173  0  -0.243655  -0.349351  0  3.985278  0
C  C128  1  0.31958850  0.81053469  0.21209506  1  -0.033299  0  -0.164647  -0.249698  0  3.967996  0
C  C129  1  0.26677635  0.74807331  0.23386679  1  -0.003676  0  -0.172184  -0.079558  0  3.948181  0
C  C130  1  0.32293528  0.76118367  0.32237097  1  -0.072081  0  -0.247597  -0.351658  0  3.973311  0
C  C131  1  0.32103133  0.24394193  0.21178428  1  0.028898  0  -0.159999  -0.187838  0  3.972456  0
C  C132  1  0.24792734  0.18173081  0.21767225  1  -0.015708  0  -0.163933  -0.090595  0  3.948202  0
C  C133  1  0.17078424  0.19946821  0.19693674  1  -0.080111  0  -0.24328  -0.351535  0  3.975632  0
O  O134  1  0.53119982  0.43943396  0.41497437  1  -1.161014  0  -0.301261  -0.552454  0  2.311843  0
O  O135  1  0.90438221  0.33628385  0.91498814  1  -1.119693  0  -0.315117  -0.527536  0  2.211724  0
O  O136  1  0.90941861  0.58233829  0.99043660  1  -1.117861  0  -0.314038  -0.521711  0  2.198645  0
O  O137  1  0.92184950  0.48449906  0.89203531  1  -1.169815  0  -0.305599  -0.57232  0  2.367828  0
O  O138  1  0.09478672  0.62420972  0.03823352  1  -1.165458  0  -0.301407  -0.556546  0  2.330211  0
O  O139  1  0.09570463  0.51829576  0.93470539  1  -1.110786  0  -0.310167  -0.521249  0  2.270203  0
O  O140  1  0.08019661  0.57378933  0.16723727  1  -1.113726  0  -0.303236  -0.515159  0  2.264309  0
O  O141  1  0.08737807  0.47104218  0.06692671  1  -1.163481  0  -0.306879  -0.561738  0  2.345529  0
O  O142  1  0.42586872  0.90711978  0.00913632  1  -1.174207  0  -0.303116  -0.567022  0  2.322638  0
O  O143  1  0.32131252  0.89516636  0.89323946  1  -1.117215  0  -0.303475  -0.50625  0  2.200819  0
O  O144  1  0.54783766  0.08186596  0.14571235  1  -1.123375  0  -0.315085  -0.528942  0  2.254074  0
O  O145  1  0.42438001  0.33618820  0.41496428  1  -1.119262  0  -0.304924  -0.521736  0  2.26  0
O  O146  1  0.44256248  0.07801189  0.03663241  1  -1.153582  0  -0.305771  -0.562098  0  2.305535  0
O  O147  1  0.60380340  0.09563930  0.01957453  1  -1.169669  0  -0.308455  -0.56264  0  2.332672  0
O  O148  1  0.49932212  0.07784214  0.89938840  1  -1.125067  0  -0.310273  -0.519749  0  2.221602  0
O  O149  1  0.57614131  0.91474835  0.99200295  1  -1.131257  0  -0.304627  -0.514609  0  2.254312  0
O  O150  1  0.47642036  0.91183611  0.88059522  1  -1.167953  0  -0.304097  -0.565825  0  2.349549  0
O  O151  1  0.66600648  0.57543169  0.59226477  1  -1.113158  0  -0.30649  -0.51208  0  2.224215  0
O  O152  1  0.56105269  0.47914483  0.60033317  1  -1.160887  0  -0.310466  -0.578842  0  2.384087  0
O  O153  1  0.52398335  0.61482354  0.59110664  1  -1.172759  0  -0.30939  -0.571176  0  2.334956  0
O  O154  1  0.42427432  0.51029474  0.59639166  1  -1.128886  0  -0.298525  -0.508762  0  2.278692  0
O  O155  1  0.48445883  0.57840827  0.41809347  1  -1.128892  0  -0.312276  -0.521598  0  2.203036  0
O  O156  1  0.37945703  0.47263217  0.41741509  1  -1.175181  0  -0.300831  -0.563893  0  2.353326  0
O  O157  1  0.90636259  0.43877038  0.02400601  1  -1.170846  0  -0.306153  -0.567669  0  2.330001  0
F  F158  1  0.77309177  0.67739671  0.77850168  1  -0.617952  0  -0.098544  -0.135536  0  1.317242  0
F  F159  1  0.70569049  0.28740588  0.29005905  1  -0.624797  0  -0.143859  -0.185024  0  1.277418  0
F  F160  1  0.70460903  0.41051638  0.41539551  1  -0.613748  0  -0.150178  -0.180687  0  1.259898  0
F  F161  1  0.14485047  0.56545784  0.31963203  1  -0.616971  0  -0.083183  -0.117928  0  1.371772  0
F  F162  1  0.22444880  0.41453582  0.05318659  1  -0.624049  0  -0.130225  -0.212972  0  1.249299  0
F  F163  1  0.29728846  0.55521969  0.09991982  1  -0.625092  0  -0.134687  -0.221104  0  1.236492  0
F  F164  1  0.59677895  0.35806231  0.53474137  1  -0.641481  0  -0.087374  -0.128313  0  1.440026  0
F  F165  1  0.44532719  0.87686633  0.69880391  1  -0.62297  0  -0.134778  -0.216987  0  1.249442  0
F  F166  1  0.58913431  0.93557529  0.76187110  1  -0.628925  0  -0.13703  -0.226699  0  1.237117  0
F  F167  1  0.92215832  0.37687001  0.18096459  1  -0.628891  0  -0.159309  -0.208853  0  1.224559  0
F  F168  1  0.12724178  0.57030610  0.82596261  1  -0.609885  0  -0.084821  -0.100865  0  1.379857  0
F  F169  1  0.22439648  0.69210020  0.80682934  1  -0.610826  0  -0.089164  -0.108731  0  1.349091  0
F  F170  1  0.31245885  0.95934640  0.13221837  1  -0.618673  0  -0.146731  -0.180307  0  1.280442  0
F  F171  1  0.20484676  0.83897958  0.14988826  1  -0.616304  0  -0.142252  -0.200434  0  1.2445  0
F  F172  1  0.33376528  0.12066122  0.09334605  1  -0.621253  0  -0.083253  -0.114871  0  1.37161  0
