# generated using pymatgen
data_Zn5H16C26(N7O9)2
_symmetry_space_group_name_H-M   'P 1'
_cell_length_a   11.30807893
_cell_length_b   12.47010533
_cell_length_c   18.17437422
_cell_angle_alpha   89.99976664
_cell_angle_beta   89.99994568
_cell_angle_gamma   107.35868448
_symmetry_Int_Tables_number   1
_chemical_formula_structural   Zn5H16C26(N7O9)2
_chemical_formula_sum   'Zn10 H32 C52 N28 O36'
_cell_volume   2446.09997158
_cell_formula_units_Z   2
loop_
 _symmetry_equiv_pos_site_id
 _symmetry_equiv_pos_as_xyz
  1  'x, y, z'
loop_
 _atom_site_type_symbol
 _atom_site_label
 _atom_site_symmetry_multiplicity
 _atom_site_fract_x
 _atom_site_fract_y
 _atom_site_fract_z
 _atom_site_occupancy
 _atom_site_pbe_bader_charge
 _atom_site_pbe_bader_spin_density
 _atom_site_pbe_cm5_charge
 _atom_site_pbe_ddec_charge
 _atom_site_pbe_ddec_spin_density
 _atom_site_pbe_ddec_sum_bond_order
 _atom_site_pbe_magmom
Zn  Zn0  1  0.72011032  0.08162219  0.52269828  1  1.273265  0  0.723905  0.792333  0  2.386953  0
Zn  Zn1  1  0.27988817  0.41837857  0.02269558  1  1.273301  0  0.723916  0.792319  0  2.386935  0
Zn  Zn2  1  0.27988829  0.91837926  0.47730476  1  1.273314  0  0.723902  0.792265  0  2.387073  0
Zn  Zn3  1  0.72011278  0.58162455  0.97730085  1  1.273227  0  0.723934  0.792388  0  2.386922  0
Zn  Zn4  1  0.99999726  0.00000033  0.50000097  1  1.320527  0  0.708941  0.707226  0  2.514759  0
Zn  Zn5  1  0.00000403  0.50000295  0.99999852  1  1.32056  0  0.70893  0.707234  0  2.514775  0
Zn  Zn6  1  0.92550345  0.56947454  0.67066577  1  1.25522  0  0.721591  0.817452  0  2.394696  0
Zn  Zn7  1  0.07449653  0.93052470  0.17066591  1  1.255288  0  0.721633  0.817566  0  2.394576  0
Zn  Zn8  1  0.07449844  0.43052352  0.32933396  1  1.255249  0  0.721625  0.817588  0  2.394581  0
Zn  Zn9  1  0.92550328  0.06947506  0.82933548  1  1.25527  0  0.721578  0.817503  0  2.39465  0
H  H10  1  0.87659936  0.37601211  0.64795991  1  0.642808  0  0.284269  0.376169  0  0.976592  0
H  H11  1  0.12340101  0.12398691  0.14795262  1  0.642067  0  0.284275  0.376227  0  0.976508  0
H  H12  1  0.12340133  0.62398764  0.35204423  1  0.642804  0  0.284274  0.376182  0  0.976563  0
H  H13  1  0.87659912  0.87601116  0.85204327  1  0.642082  0  0.284273  0.376233  0  0.976495  0
H  H14  1  0.02544890  0.39864709  0.67134580  1  0.614556  0  0.328478  0.407964  0  0.870615  0
H  H15  1  0.97455197  0.10135092  0.17134468  1  0.614204  0  0.328514  0.407996  0  0.870619  0
H  H16  1  0.97455443  0.60135264  0.32865283  1  0.614564  0  0.328494  0.408001  0  0.870567  0
H  H17  1  0.02545077  0.89864966  0.82865836  1  0.614221  0  0.32846  0.407927  0  0.870628  0
H  H18  1  0.19717233  0.69580876  0.58686870  1  0.210058  0  0.13735  0.106162  0  1.035624  0
H  H19  1  0.80282734  0.80419444  0.08686986  1  0.210072  0  0.137324  0.106123  0  1.035632  0
H  H20  1  0.80282480  0.30419355  0.41313104  1  0.210105  0  0.137339  0.106173  0  1.035567  0
H  H21  1  0.19717272  0.19580869  0.91313207  1  0.210049  0  0.13736  0.106186  0  1.03556  0
H  H22  1  0.86535195  0.78227021  0.61016217  1  0.150405  0  0.14639  0.11756  0  0.957515  0
H  H23  1  0.13464387  0.71772696  0.11016452  1  0.15041  0  0.146379  0.117472  0  0.9576  0
H  H24  1  0.13464029  0.21772287  0.38983371  1  0.150376  0  0.14639  0.117541  0  0.957593  0
H  H25  1  0.86535301  0.28227198  0.88983742  1  0.150419  0  0.14636  0.117494  0  0.957521  0
H  H26  1  0.07633353  0.04376158  0.67729476  1  0.131806  0  0.142758  0.111109  0  0.965234  0
H  H27  1  0.92367139  0.45624057  0.17729488  1  0.131805  0  0.142731  0.111179  0  0.9652  0
H  H28  1  0.92366918  0.95624153  0.32270552  1  0.131782  0  0.142746  0.111199  0  0.96515  0
H  H29  1  0.07633629  0.54376418  0.82270540  1  0.131843  0  0.142776  0.111131  0  0.965225  0
H  H30  1  0.73243045  0.10807482  0.70547482  1  0.198352  0  0.148551  0.131742  0  0.970512  0
H  H31  1  0.26757266  0.39192209  0.20547110  1  0.198194  0  0.148544  0.131695  0  0.970487  0
H  H32  1  0.26757345  0.89192659  0.29452987  1  0.198236  0  0.148529  0.131682  0  0.97056  0
H  H33  1  0.73243071  0.60807511  0.79452643  1  0.198388  0  0.148572  0.131723  0  0.970512  0
H  H34  1  0.55284890  0.55281946  0.62635131  1  0.145087  0  0.120072  0.134883  0  0.996618  0
H  H35  1  0.44714859  0.94718011  0.12635008  1  0.145561  0  0.12009  0.134939  0  0.996566  0
H  H36  1  0.44715090  0.44718030  0.37365118  1  0.14513  0  0.120092  0.134895  0  0.996582  0
H  H37  1  0.55284825  0.05282136  0.87364800  1  0.145166  0  0.12007  0.134889  0  0.996576  0
H  H38  1  0.21951243  0.31785887  0.54201320  1  0.135789  0  0.114344  0.127096  0  1.015342  0
H  H39  1  0.78048342  0.18213420  0.04200317  1  0.135806  0  0.114363  0.127156  0  1.015434  0
H  H40  1  0.78048450  0.68213501  0.45799864  1  0.135787  0  0.114373  0.127155  0  1.015394  0
H  H41  1  0.21951059  0.81785887  0.95798887  1  0.135758  0  0.114328  0.127057  0  1.015364  0
C  C42  1  0.12763028  0.73996927  0.58437834  1  0.972978  0  0.15738  0.174395  0  3.905822  0
C  C43  1  0.87237000  0.76003310  0.08437903  1  0.972905  0  0.15735  0.174391  0  3.905819  0
C  C44  1  0.87236748  0.26002966  0.41561975  1  0.972903  0  0.157358  0.174395  0  3.905706  0
C  C45  1  0.12763066  0.23996918  0.91562235  1  0.972961  0  0.157366  0.174371  0  3.905751  0
C  C46  1  0.95914708  0.78425984  0.59589975  1  0.982462  0  0.146463  0.14222  0  3.972309  0
C  C47  1  0.04085082  0.71574078  0.09589940  1  0.982464  0  0.146477  0.142312  0  3.972517  0
C  C48  1  0.04084866  0.21573574  0.40409833  1  0.982519  0  0.146514  0.142271  0  3.972205  0
C  C49  1  0.95914751  0.28425983  0.90410198  1  0.982407  0  0.146453  0.142239  0  3.972281  0
C  C50  1  0.98665394  0.05624214  0.66763583  1  0.982279  0  0.141114  0.136486  0  3.996545  0
C  C51  1  0.01335158  0.44376176  0.16763541  1  0.981903  0  0.141132  0.136346  0  3.996591  0
C  C52  1  0.01335195  0.94376515  0.33236556  1  0.982073  0  0.141094  0.13632  0  3.996655  0
C  C53  1  0.98665756  0.55624466  0.83236542  1  0.981866  0  0.141027  0.136319  0  3.99671  0
C  C54  1  0.81279442  0.08941725  0.68253538  1  0.966441  0  0.156785  0.165921  0  3.918068  0
C  C55  1  0.18720727  0.41058321  0.18253166  1  0.966518  0  0.156855  0.166012  0  3.918036  0
C  C56  1  0.18721119  0.91058920  0.31746821  1  0.966473  0  0.156809  0.165931  0  3.918019  0
C  C57  1  0.81279780  0.58941903  0.81746533  1  0.966336  0  0.156823  0.166044  0  3.917963  0
C  C58  1  0.69355450  0.41479841  0.63284302  1  1.551225  0  0.222017  0.596254  0  4.145715  0
C  C59  1  0.30644734  0.08520492  0.13283463  1  1.551157  0  0.221868  0.596137  0  4.146136  0
C  C60  1  0.30644704  0.58520386  0.36716057  1  1.551197  0  0.221983  0.596285  0  4.145743  0
C  C61  1  0.69355332  0.91479736  0.86715905  1  1.551214  0  0.221964  0.596268  0  4.145832  0
C  C62  1  0.56111919  0.38419522  0.60774567  1  -0.00949  0  -0.007736  -0.056001  0  3.912628  0
C  C63  1  0.43888278  0.11580575  0.10774317  1  -0.009174  0  -0.007703  -0.055859  0  3.912641  0
C  C64  1  0.43888062  0.61580454  0.39225571  1  -0.009444  0  -0.007724  -0.05589  0  3.912445  0
C  C65  1  0.56111907  0.88419483  0.89225491  1  -0.009535  0  -0.007729  -0.055956  0  3.912703  0
C  C66  1  0.50296515  0.46847697  0.60797997  1  -0.000506  0  -0.063111  -0.111342  0  3.935001  0
C  C67  1  0.49703036  0.03152322  0.10797712  1  -0.000936  0  -0.063142  -0.111449  0  3.934991  0
C  C68  1  0.49703144  0.53152114  0.39202472  1  -0.000575  0  -0.063122  -0.111357  0  3.934789  0
C  C69  1  0.50296768  0.96847655  0.89201986  1  -0.000511  0  -0.063112  -0.111348  0  3.934979  0
C  C70  1  0.38080572  0.44331523  0.58433081  1  0.271712  0  0.069076  0.0493  0  3.988826  0
C  C71  1  0.61919023  0.05668090  0.08432616  1  0.271399  0  0.06907  0.04926  0  3.988792  0
C  C72  1  0.61919355  0.55668032  0.41567663  1  0.271085  0  0.069026  0.049227  0  3.988747  0
C  C73  1  0.38080637  0.94331720  0.91566972  1  0.271688  0  0.069098  0.049305  0  3.988799  0
C  C74  1  0.31498136  0.33607851  0.56034501  1  -0.05813  0  -0.068186  -0.122099  0  3.949552  0
C  C75  1  0.68501502  0.16391358  0.06033507  1  -0.058008  0  -0.068289  -0.12225  0  3.949733  0
C  C76  1  0.68501381  0.66391539  0.43966738  1  -0.057546  0  -0.068292  -0.122248  0  3.949643  0
C  C77  1  0.31498047  0.83607864  0.93965641  1  -0.058106  0  -0.068179  -0.122066  0  3.949519  0
C  C78  1  0.37252522  0.25149101  0.55961551  1  -0.027993  0  -0.007236  -0.047664  0  3.907276  0
C  C79  1  0.62747261  0.24850276  0.05960702  1  -0.027794  0  -0.007133  -0.047463  0  3.907062  0
C  C80  1  0.62747023  0.74850373  0.44039468  1  -0.027852  0  -0.007126  -0.047526  0  3.907025  0
C  C81  1  0.37252782  0.75149362  0.94038446  1  -0.027943  0  -0.007262  -0.047628  0  3.907115  0
C  C82  1  0.49672183  0.27446100  0.58333235  1  0.073454  0  0.031208  0.01353  0  3.794571  0
C  C83  1  0.50327498  0.22553766  0.08332070  1  0.073222  0  0.031199  0.013362  0  3.794711  0
C  C84  1  0.50327533  0.72553878  0.41667729  1  0.073614  0  0.031152  0.013372  0  3.794676  0
C  C85  1  0.49672483  0.77446209  0.91667023  1  0.07335  0  0.031254  0.013457  0  3.79464  0
C  C86  1  0.56096082  0.18389410  0.58189307  1  1.688611  0  0.196956  0.58381  0  4.286429  0
C  C87  1  0.43903951  0.31610455  0.08187845  1  1.687933  0  0.196896  0.583652  0  4.286478  0
C  C88  1  0.43904428  0.81610561  0.41811877  1  1.688047  0  0.19688  0.583643  0  4.286519  0
C  C89  1  0.56095793  0.68389608  0.91811083  1  1.689008  0  0.197098  0.584044  0  4.286334  0
C  C90  1  0.29751951  0.13736372  0.53172587  1  1.598686  0  0.218726  0.59199  0  4.182558  0
C  C91  1  0.70247868  0.36263361  0.03171152  1  1.598845  0  0.218832  0.592088  0  4.182595  0
C  C92  1  0.70247793  0.86263690  0.46828487  1  1.598969  0  0.218757  0.591923  0  4.182667  0
C  C93  1  0.29751794  0.63736197  0.96827445  1  1.598762  0  0.218721  0.591929  0  4.182574  0
N  N94  1  0.14247793  0.83587488  0.54837586  1  -0.790879  0  -0.244837  -0.186584  0  3.479778  0
N  N95  1  0.85752333  0.66413026  0.04837298  1  -0.790235  0  -0.244737  -0.186472  0  3.47968  0
N  N96  1  0.85751923  0.16412490  0.45162332  1  -0.790374  0  -0.244825  -0.186589  0  3.479666  0
N  N97  1  0.14247878  0.33587369  0.95162510  1  -0.790392  0  -0.244844  -0.186581  0  3.479739  0
N  N98  1  0.03508850  0.86411715  0.55566579  1  -0.770686  0  -0.243189  -0.187739  0  3.50631  0
N  N99  1  0.96491160  0.63588458  0.05566457  1  -0.771202  0  -0.243225  -0.187861  0  3.506493  0
N  N100  1  0.96490576  0.13587929  0.44433120  1  -0.771253  0  -0.243217  -0.187753  0  3.506176  0
N  N101  1  0.03509054  0.36411685  0.94433461  1  -0.771232  0  -0.24318  -0.187747  0  3.506297  0
N  N102  1  0.01328356  0.70473390  0.61550356  1  -1.261803  0  -0.366903  -0.344215  0  3.598226  0
N  N103  1  0.98671457  0.79526489  0.11550464  1  -1.261811  0  -0.366929  -0.344235  0  3.598273  0
N  N104  1  0.98671189  0.29526084  0.38449232  1  -1.261734  0  -0.366918  -0.344309  0  3.598219  0
N  N105  1  0.01328552  0.20473570  0.88449619  1  -1.261715  0  -0.36688  -0.344203  0  3.598209  0
N  N106  1  0.93531461  0.04984887  0.60161927  1  -0.752699  0  -0.238964  -0.182237  0  3.472749  0
N  N107  1  0.06468909  0.45015719  0.10161771  1  -0.752282  0  -0.23896  -0.182189  0  3.472623  0
N  N108  1  0.06468804  0.95015929  0.39838266  1  -0.752311  0  -0.239011  -0.182338  0  3.47273  0
N  N109  1  0.93532062  0.54985091  0.89838203  1  -0.752145  0  -0.238969  -0.182212  0  3.472863  0
N  N110  1  0.82455885  0.07142124  0.61124216  1  -0.778519  0  -0.244693  -0.184254  0  3.513808  0
N  N111  1  0.17544542  0.42858390  0.11123950  1  -0.778599  0  -0.244816  -0.184313  0  3.513841  0
N  N112  1  0.17544526  0.92858859  0.38876087  1  -0.778609  0  -0.244697  -0.184126  0  3.513761  0
N  N113  1  0.82456548  0.57142250  0.88875914  1  -0.778622  0  -0.244756  -0.184348  0  3.513833  0
N  N114  1  0.91330051  0.08060698  0.72033914  1  -1.266112  0  -0.370527  -0.369837  0  3.613131  0
N  N115  1  0.08670223  0.41939151  0.22033710  1  -1.265931  0  -0.37049  -0.369823  0  3.613219  0
N  N116  1  0.08670277  0.91939780  0.27966334  1  -1.266074  0  -0.370469  -0.369778  0  3.613246  0
N  N117  1  0.91330435  0.58060735  0.77966153  1  -1.266097  0  -0.370462  -0.369729  0  3.613257  0
N  N118  1  0.31931357  0.53134656  0.58563309  1  0.357191  0  0.051453  0.508353  0  4.205875  0
N  N119  1  0.68068525  0.96865412  0.08563166  1  0.357126  0  0.051462  0.508448  0  4.206029  0
N  N120  1  0.68068510  0.46864983  0.41437270  1  0.357208  0  0.051475  0.508414  0  4.205716  0
N  N121  1  0.31931103  0.03134567  0.91436642  1  0.357195  0  0.051408  0.508285  0  4.205938  0
O  O122  1  0.62844860  0.18942989  0.52363849  1  -1.145674  0  -0.335842  -0.542033  0  2.331255  0
O  O123  1  0.37154855  0.31055908  0.02362393  1  -1.14586  0  -0.335772  -0.541943  0  2.331495  0
O  O124  1  0.37154976  0.81056820  0.47637115  1  -1.145806  0  -0.335787  -0.541918  0  2.331501  0
O  O125  1  0.62844989  0.68943142  0.97636205  1  -1.146224  0  -0.335876  -0.542086  0  2.331349  0
O  O126  1  0.54688859  0.11580180  0.63327265  1  -1.166162  0  -0.330635  -0.544335  0  2.063541  0
O  O127  1  0.45311209  0.38420069  0.13325234  1  -1.165551  0  -0.330642  -0.544229  0  2.063339  0
O  O128  1  0.45312379  0.88420375  0.36674524  1  -1.165705  0  -0.330621  -0.544209  0  2.063312  0
O  O129  1  0.54688911  0.61580580  0.86673364  1  -1.165941  0  -0.330765  -0.544489  0  2.063456  0
O  O130  1  0.35905905  0.07144373  0.51210271  1  -1.15041  0  -0.300078  -0.494738  0  2.378836  0
O  O131  1  0.64093928  0.42854868  0.01208491  1  -1.1505  0  -0.300094  -0.494759  0  2.37911  0
O  O132  1  0.64093345  0.92855272  0.48790748  1  -1.150594  0  -0.300135  -0.494746  0  2.37903  0
O  O133  1  0.35905592  0.57144269  0.98789776  1  -1.150392  0  -0.300059  -0.494696  0  2.378908  0
O  O134  1  0.18104218  0.11691026  0.52930494  1  -1.197996  0  -0.3227  -0.575379  0  2.35077  0
O  O135  1  0.81896192  0.38308619  0.02929597  1  -1.198068  0  -0.322783  -0.575519  0  2.350656  0
O  O136  1  0.81895763  0.88308950  0.47069974  1  -1.198079  0  -0.322617  -0.575256  0  2.35075  0
O  O137  1  0.18103880  0.61691103  0.97069111  1  -1.198086  0  -0.322688  -0.575348  0  2.35085  0
O  O138  1  0.21241616  0.50830939  0.55984849  1  -0.474311  0  -0.14018  -0.346877  0  1.925903  0
O  O139  1  0.78758248  0.99169063  0.05984914  1  -0.474291  0  -0.14017  -0.346894  0  1.925925  0
O  O140  1  0.78758078  0.49168449  0.44015949  1  -0.474422  0  -0.140124  -0.346773  0  1.925718  0
O  O141  1  0.21241468  0.00830915  0.94015334  1  -0.474369  0  -0.140152  -0.346831  0  1.925921  0
O  O142  1  0.37552755  0.62365677  0.61319923  1  -0.453315  0  -0.130026  -0.327123  0  1.889516  0
O  O143  1  0.62447145  0.87634456  0.11319754  1  -0.45329  0  -0.130047  -0.327176  0  1.889724  0
O  O144  1  0.62447049  0.37634300  0.38680161  1  -0.453312  0  -0.13008  -0.327239  0  1.889565  0
O  O145  1  0.37552452  0.12365691  0.88679999  1  -0.453297  0  -0.130023  -0.32711  0  1.889517  0
O  O146  1  0.75073135  0.52102529  0.63751206  1  -1.171812  0  -0.332909  -0.557448  0  2.295254  0
O  O147  1  0.24926810  0.97898008  0.13750371  1  -1.17162  0  -0.332826  -0.55743  0  2.295427  0
O  O148  1  0.24926934  0.47897446  0.36249097  1  -1.171763  0  -0.332876  -0.557486  0  2.295217  0
O  O149  1  0.75073137  0.02102389  0.86249327  1  -1.171793  0  -0.332868  -0.557467  0  2.295239  0
O  O150  1  0.96860949  0.42859872  0.64411538  1  -1.232878  0  -0.566521  -0.737783  0  2.13775  0
O  O151  1  0.03139149  0.07139948  0.14411379  1  -1.231777  0  -0.566546  -0.737862  0  2.137747  0
O  O152  1  0.03139296  0.57140101  0.35588380  1  -1.232854  0  -0.566532  -0.737834  0  2.137686  0
O  O153  1  0.96860949  0.92860111  0.85588869  1  -1.231811  0  -0.566499  -0.73781  0  2.137701  0
O  O154  1  0.74107038  0.33754530  0.64756824  1  -1.153358  0  -0.299071  -0.520641  0  2.224536  0
O  O155  1  0.25892649  0.16245123  0.14755691  1  -1.153412  0  -0.29909  -0.520649  0  2.224666  0
O  O156  1  0.25892971  0.66245530  0.35243810  1  -1.153349  0  -0.299116  -0.520715  0  2.224462  0
O  O157  1  0.74106951  0.83754772  0.85243292  1  -1.153353  0  -0.299076  -0.520672  0  2.22458  0
