# generated using pymatgen
data_AgH20C24(N2O)2
_symmetry_space_group_name_H-M   'P 1'
_cell_length_a   8.22930241
_cell_length_b   11.35666885
_cell_length_c   11.69463370
_cell_angle_alpha   82.65273064
_cell_angle_beta   82.46196331
_cell_angle_gamma   70.22259907
_symmetry_Int_Tables_number   1
_chemical_formula_structural   AgH20C24(N2O)2
_chemical_formula_sum   'Ag2 H40 C48 N8 O4'
_cell_volume   1015.50221018
_cell_formula_units_Z   2
loop_
 _symmetry_equiv_pos_site_id
 _symmetry_equiv_pos_as_xyz
  1  'x, y, z'
loop_
 _atom_site_type_symbol
 _atom_site_label
 _atom_site_symmetry_multiplicity
 _atom_site_fract_x
 _atom_site_fract_y
 _atom_site_fract_z
 _atom_site_occupancy
 _atom_site_hle17_bader_spin_density
 _atom_site_hle17_ddec_charge
 _atom_site_hle17_ddec_spin_density
 _atom_site_hle17_ddec_sum_bond_order
 _atom_site_hle17_magmom
 _atom_site_hse06_10hf_bader_spin_density
 _atom_site_hse06_10hf_ddec_charge
 _atom_site_hse06_10hf_ddec_spin_density
 _atom_site_hse06_10hf_ddec_sum_bond_order
 _atom_site_hse06_10hf_magmom
 _atom_site_hse06_bader_spin_density
 _atom_site_hse06_ddec_charge
 _atom_site_hse06_ddec_spin_density
 _atom_site_hse06_ddec_sum_bond_order
 _atom_site_hse06_magmom
 _atom_site_pbe_bader_spin_density
 _atom_site_pbe_cm5_charge
 _atom_site_pbe_ddec_charge
 _atom_site_pbe_ddec_spin_density
 _atom_site_pbe_ddec_sum_bond_order
 _atom_site_pbe_magmom
Ag  Ag0  1  0.01072778  0.51289149  0.87865768  1  0  0.495767  0  1.574609  0  0  0.360843  0  2.073695  0  0  0.394387  0  2.013927  0  0  0.432757  0.338244  0  2.114411  0
Ag  Ag1  1  0.98926092  0.48711503  0.12134081  1  0  0.495782  0  1.574547  0  0  0.36086  0  2.073612  0  0  0.394399  0  2.013846  0  0  0.432767  0.338258  0  2.114332  0
H  H2  1  0.19052332  0.08490378  0.85514394  1  0  0.095725  0  0.953013  0  0  0.106442  0  1.013023  0  0  0.110065  0  1.010849  0  0  0.100526  0.103824  0  1.014666  0
H  H3  1  0.80948095  0.91509791  0.14485276  1  0  0.09573  0  0.952948  0  0  0.106416  0  1.012988  0  0  0.110036  0  1.010813  0  0  0.100511  0.103796  0  1.014635  0
H  H4  1  0.27994842  0.25479709  0.73042728  1  0  0.104252  0  0.943657  0  0  0.115769  0  1.001855  0  0  0.11846  0  0.998983  0  0  0.119404  0.113751  0  1.003973  0
H  H5  1  0.72004281  0.74520656  0.26957729  1  0  0.104364  0  0.94362  0  0  0.115869  0  1.001817  0  0  0.118561  0  0.998946  0  0  0.119416  0.113834  0  1.003956  0
H  H6  1  0.16953674  0.87272177  0.84049403  1  0  0.091472  0  0.967595  0  0  0.100793  0  1.032109  0  0  0.104229  0  1.029889  0  0  0.098593  0.098322  0  1.03375  0
H  H7  1  0.83046712  0.12728087  0.15950260  1  0  0.091441  0  0.967636  0  0  0.100771  0  1.032144  0  0  0.104197  0  1.029934  0  0  0.09859  0.098308  0  1.033766  0
H  H8  1  0.31484615  0.12992859  0.44813719  1  0  0.083364  0  0.965863  0  0  0.095165  0  1.029209  0  0  0.097759  0  1.028164  0  0  0.09731  0.093229  0  1.030105  0
H  H9  1  0.68515732  0.87006935  0.55186176  1  0  0.083412  0  0.965802  0  0  0.095167  0  1.029191  0  0  0.097788  0  1.028116  0  0  0.097317  0.093228  0  1.030093  0
H  H10  1  0.40154659  0.09256900  0.02525679  1  0  0.094964  0  0.958258  0  0  0.107005  0  1.018457  0  0  0.109447  0  1.01802  0  0  0.102145  0.105263  0  1.018838  0
H  H11  1  0.59844660  0.90743280  0.97474098  1  0  0.094949  0  0.958338  0  0  0.107028  0  1.018486  0  0  0.109473  0  1.018048  0  0  0.102146  0.105284  0  1.018871  0
H  H12  1  0.01570985  0.68184451  0.70041381  1  0  0.099802  0  0.943124  0  0  0.111434  0  1.014752  0  0  0.113574  0  1.012021  0  0  0.11306  0.109759  0  1.016819  0
H  H13  1  0.98428955  0.31815721  0.29958764  1  0  0.099745  0  0.943197  0  0  0.111401  0  1.014807  0  0  0.113542  0  1.012075  0  0  0.113053  0.109725  0  1.016871  0
H  H14  1  0.91911108  0.66014005  0.58053913  1  0  0.07808  0  0.944725  0  0  0.08967  0  1.016543  0  0  0.089913  0  1.017239  0  0  0.106144  0.089452  0  1.016052  0
H  H15  1  0.08088706  0.33986449  0.41945954  1  0  0.078052  0  0.944668  0  0  0.089659  0  1.016501  0  0  0.089902  0  1.017201  0  0  0.106139  0.089441  0  1.016012  0
H  H16  1  0.23635402  0.79176501  0.66850026  1  0  0.094524  0  0.9562  0  0  0.106481  0  1.017241  0  0  0.109269  0  1.015687  0  0  0.101371  0.104445  0  1.018419  0
H  H17  1  0.76364214  0.20823859  0.33150470  1  0  0.094538  0  0.956295  0  0  0.106534  0  1.01728  0  0  0.109303  0  1.015741  0  0  0.101384  0.104492  0  1.018476  0
H  H18  1  0.34952685  0.94434875  0.54396778  1  0  0.083549  0  0.971982  0  0  0.094346  0  1.035117  0  0  0.096713  0  1.034564  0  0  0.096323  0.092617  0  1.035607  0
H  H19  1  0.65047541  0.05565201  0.45603266  1  0  0.083588  0  0.971977  0  0  0.094387  0  1.0351  0  0  0.096753  0  1.03455  0  0  0.096345  0.09266  0  1.035588  0
H  H20  1  0.49453463  0.64041409  0.23789254  1  0  0.116733  0  0.996507  0  0  0.127055  0  1.054392  0  0  0.129448  0  1.05544  0  0  0.101341  0.125302  0  1.053828  0
H  H21  1  0.50546351  0.35958484  0.76210766  1  0  0.116705  0  0.99651  0  0  0.127029  0  1.054397  0  0  0.129422  0  1.055444  0  0  0.101327  0.125275  0  1.053832  0
H  H22  1  0.31671246  0.93191948  0.15666073  1  0  0.090357  0  0.953058  0  0  0.103922  0  1.010439  0  0  0.106466  0  1.009919  0  0  0.1007  0.102071  0  1.010903  0
H  H23  1  0.68328810  0.06807664  0.84333701  1  0  0.090278  0  0.953255  0  0  0.103873  0  1.010598  0  0  0.106424  0  1.010079  0  0  0.100688  0.102044  0  1.011034  0
H  H24  1  0.45349003  0.28033117  0.51312775  1  0  0.11342  0  1.007847  0  0  0.123647  0  1.068083  0  0  0.125857  0  1.06941  0  0  0.099209  0.122051  0  1.067318  0
H  H25  1  0.54650072  0.71966503  0.48687350  1  0  0.113505  0  1.007662  0  0  0.123648  0  1.067994  0  0  0.125855  0  1.069326  0  0  0.099237  0.122053  0  1.06723  0
H  H26  1  0.40717535  0.28717685  0.31582764  1  0  0.090165  0  0.96945  0  0  0.099694  0  1.0347  0  0  0.102166  0  1.034523  0  0  0.099623  0.097954  0  1.034879  0
H  H27  1  0.59282113  0.71282304  0.68417089  1  0  0.090139  0  0.969465  0  0  0.099655  0  1.034725  0  0  0.102124  0  1.034551  0  0  0.09961  0.097915  0  1.034904  0
H  H28  1  0.30909714  0.53206143  0.44227388  1  0  0.107757  0  0.971435  0  0  0.116541  0  1.038757  0  0  0.11859  0  1.038094  0  0  0.119096  0.11508  0  1.039133  0
H  H29  1  0.69089770  0.46793380  0.55772624  1  0  0.1077  0  0.971489  0  0  0.116501  0  1.038796  0  0  0.118551  0  1.038133  0  0  0.119069  0.11504  0  1.039171  0
H  H30  1  0.67554614  0.41169748  0.14788473  1  0  0.126671  0  0.993132  0  0  0.130225  0  1.06923  0  0  0.134769  0  1.063818  0  0  0.118413  0.126889  0  1.07311  0
H  H31  1  0.32445118  0.58830052  0.85211566  1  0  0.126605  0  0.993156  0  0  0.130204  0  1.06921  0  0  0.134747  0  1.063801  0  0  0.118417  0.126868  0  1.073091  0
H  H32  1  0.98622613  0.74455533  0.38552386  1  0  0.085158  0  0.974698  0  0  0.09432  0  1.041398  0  0  0.096792  0  1.04079  0  0  0.096708  0.092505  0  1.041937  0
H  H33  1  0.01378148  0.25544162  0.61447823  1  0  0.085155  0  0.9747  0  0  0.094326  0  1.041381  0  0  0.096795  0  1.040778  0  0  0.0967  0.09251  0  1.041921  0
H  H34  1  0.59232610  0.26873718  0.04218852  1  0  0.094232  0  0.923786  0  0  0.109996  0  0.987195  0  0  0.109998  0  0.988458  0  0  0.11693  0.109967  0  0.9863  0
H  H35  1  0.40767245  0.73126362  0.95781056  1  0  0.094245  0  0.923812  0  0  0.109982  0  0.98722  0  0  0.109982  0  0.988486  0  0  0.116914  0.109954  0  0.986325  0
H  H36  1  0.37678333  0.31752344  0.00146766  1  0  0.102969  0  0.933657  0  0  0.113756  0  1.006546  0  0  0.115688  0  1.00411  0  0  0.117063  0.112254  0  1.008396  0
H  H37  1  0.62321728  0.68247546  0.99853316  1  0  0.103012  0  0.933661  0  0  0.113786  0  1.006532  0  0  0.115717  0  1.004101  0  0  0.117086  0.112285  0  1.008381  0
H  H38  1  0.15276895  0.67247942  0.20985686  1  0  0.095118  0  0.963779  0  0  0.1056  0  1.027974  0  0  0.107347  0  1.026761  0  0  0.114942  0.104319  0  1.028832  0
H  H39  1  0.84722918  0.32751951  0.79014249  1  0  0.095096  0  0.963739  0  0  0.105561  0  1.027956  0  0  0.107308  0  1.026743  0  0  0.114935  0.104279  0  1.028813  0
H  H40  1  0.09792275  0.89768256  0.25984311  1  0  0.085621  0  0.98408  0  0  0.095769  0  1.048075  0  0  0.097759  0  1.048414  0  0  0.096862  0.094329  0  1.04792  0
H  H41  1  0.90208565  0.10231253  0.74015657  1  0  0.085628  0  0.984013  0  0  0.095761  0  1.048037  0  0  0.097749  0  1.048375  0  0  0.096847  0.094321  0  1.047881  0
C  C42  1  0.10657711  0.04720694  0.91800972  1  0  -0.087906  0  3.760083  0  0  -0.107896  0  4.006065  0  0  -0.109234  0  4.02602  0  0  -0.090412  -0.106922  0  3.992633  0
C  C43  1  0.89342966  0.95279471  0.08198932  1  0  -0.087789  0  3.75988  0  0  -0.107756  0  4.005859  0  0  -0.109088  0  4.025804  0  0  -0.090315  -0.106785  0  3.992436  0
C  C44  1  0.01034599  0.12025696  0.00734681  1  0  -0.057335  0  3.75904  0  0  -0.033717  0  3.990313  0  0  -0.040009  0  4.012741  0  0  -0.018591  -0.029745  0  3.975374  0
C  C45  1  0.98966448  0.87974465  0.99265273  1  0  -0.057415  0  3.759177  0  0  -0.033781  0  3.990422  0  0  -0.040069  0  4.012847  0  0  -0.018716  -0.029812  0  3.975487  0
C  C46  1  0.26446543  0.33693958  0.66863451  1  0  0.030808  0  3.765998  0  0  -0.004865  0  4.039628  0  0  0.002348  0  4.054012  0  0  0.00924  -0.009308  0  4.029516  0
C  C47  1  0.73552701  0.66306407  0.33136823  1  0  0.030546  0  3.765879  0  0  -0.005123  0  4.039489  0  0  0.002088  0  4.053871  0  0  0.009149  -0.009549  0  4.029386  0
C  C48  1  0.30685166  0.01882356  0.31325192  1  0  0.040257  0  3.78914  0  0  0.05536  0  4.017001  0  0  0.054771  0  4.041968  0  0  -0.012802  0.05574  0  4.000021  0
C  C49  1  0.69315101  0.98117345  0.68674978  1  0  0.040153  0  3.789261  0  0  0.055291  0  4.017075  0  0  0.054703  0  4.042052  0  0  -0.012865  0.055671  0  4.000098  0
C  C50  1  0.23731719  0.92997743  0.39068274  1  0  0.056538  0  3.775608  0  0  0.0711  0  4.004183  0  0  0.07137  0  4.028512  0  0  -0.005595  0.070912  0  3.987677  0
C  C51  1  0.76269001  0.07002046  0.60931927  1  0  0.056652  0  3.77561  0  0  0.071184  0  4.004186  0  0  0.071446  0  4.02853  0  0  -0.005517  0.070994  0  3.98768  0
C  C52  1  0.09607577  0.92867721  0.91060388  1  0  -0.081045  0  3.754291  0  0  -0.102408  0  4.002036  0  0  -0.103022  0  4.021739  0  0  -0.0892  -0.101917  0  3.988784  0
C  C53  1  0.90392812  0.07132541  0.08939532  1  0  -0.081133  0  3.75408  0  0  -0.102496  0  4.001835  0  0  -0.103105  0  4.021541  0  0  -0.089294  -0.102003  0  3.988584  0
C  C54  1  0.10723640  0.75535184  0.53464879  1  0  0.067404  0  3.768007  0  0  0.087684  0  4.008393  0  0  0.086612  0  4.033259  0  0  -0.014977  0.088444  0  3.991351  0
C  C55  1  0.89276960  0.24464886  0.46535471  1  0  0.067368  0  3.767835  0  0  0.087666  0  4.008267  0  0  0.086596  0  4.033122  0  0  -0.014993  0.088425  0  3.991223  0
C  C56  1  0.02285506  0.24815772  0.01473062  1  0  0.624082  0  3.952178  0  0  0.570673  0  4.244072  0  0  0.605366  0  4.239326  0  0  0.189048  0.547123  0  4.246453  0
C  C57  1  0.97714310  0.75184682  0.98526975  1  0  0.624159  0  3.95207  0  0  0.57077  0  4.243915  0  0  0.605461  0  4.239167  0  0  0.189154  0.547222  0  4.246299  0
C  C58  1  0.33875937  0.11848024  0.35557743  1  0  -0.113739  0  3.764879  0  0  -0.129313  0  4.00915  0  0  -0.131719  0  4.030656  0  0  -0.092773  -0.127527  0  3.994564  0
C  C59  1  0.66124367  0.88151866  0.64442059  1  0  -0.113773  0  3.764876  0  0  -0.129303  0  4.00909  0  0  -0.131728  0  4.030582  0  0  -0.092739  -0.127517  0  3.994503  0
C  C60  1  0.41129208  0.20103041  0.16103485  1  0  0.081075  0  3.730793  0  0  0.099401  0  3.975129  0  0  0.099221  0  3.998804  0  0  -0.009855  0.099518  0  3.959023  0
C  C61  1  0.58870726  0.79896852  0.83896267  1  0  0.081109  0  3.730878  0  0  0.099368  0  3.975253  0  0  0.099186  0  3.998932  0  0  -0.009888  0.099486  0  3.959144  0
C  C62  1  0.38711517  0.09894592  0.11844949  1  0  -0.106419  0  3.748652  0  0  -0.125273  0  3.99412  0  0  -0.128286  0  4.016562  0  0  -0.090858  -0.123222  0  3.978943  0
C  C63  1  0.61288423  0.90105298  0.88155230  1  0  -0.106436  0  3.748543  0  0  -0.125314  0  3.994036  0  0  -0.128329  0  4.016481  0  0  -0.090858  -0.123265  0  3.978867  0
C  C64  1  0.04081406  0.66057703  0.60935184  1  0  -0.067788  0  3.664222  0  0  -0.148687  0  3.914529  0  0  -0.144558  0  3.923834  0  0  -0.050243  -0.151043  0  3.907889  0
C  C65  1  0.95918409  0.33942190  0.39064836  1  0  -0.067613  0  3.664024  0  0  -0.148562  0  3.914416  0  0  -0.144435  0  3.923718  0  0  -0.050209  -0.150915  0  3.907771  0
C  C66  1  0.20711777  0.81454317  0.57835646  1  0  -0.103682  0  3.735465  0  0  -0.124998  0  3.982647  0  0  -0.126912  0  4.00351  0  0  -0.087408  -0.123552  0  3.968382  0
C  C67  1  0.79288697  0.18545475  0.42164579  1  0  -0.103634  0  3.735382  0  0  -0.124994  0  3.982563  0  0  -0.126885  0  4.003451  0  0  -0.0874  -0.123549  0  3.968297  0
C  C68  1  0.27018142  0.90104053  0.50782742  1  0  -0.111361  0  3.751951  0  0  -0.128017  0  3.99741  0  0  -0.130714  0  4.018413  0  0  -0.090662  -0.126091  0  3.983093  0
C  C69  1  0.72982374  0.09895925  0.49217457  1  0  -0.111492  0  3.752052  0  0  -0.128139  0  3.997545  0  0  -0.130833  0  4.018544  0  0  -0.09071  -0.126214  0  3.983225  0
C  C70  1  0.44348789  0.57808727  0.20251353  1  0  -0.217665  0  3.814443  0  0  -0.227896  0  4.076448  0  0  -0.237073  0  4.097719  0  0  -0.125723  -0.221798  0  4.061813  0
C  C71  1  0.55650863  0.42191260  0.79748757  1  0  -0.2177  0  3.814389  0  0  -0.227933  0  4.076406  0  0  -0.237113  0  4.097681  0  0  -0.125734  -0.221835  0  4.061769  0
C  C72  1  0.33678212  0.00926116  0.19289383  1  0  -0.104425  0  3.74551  0  0  -0.12296  0  3.990684  0  0  -0.125564  0  4.012472  0  0  -0.089256  -0.121061  0  3.975876  0
C  C73  1  0.66322300  0.99073864  0.80710559  1  0  -0.104255  0  3.745561  0  0  -0.122827  0  3.990734  0  0  -0.125442  0  4.012529  0  0  -0.089203  -0.120948  0  3.975918  0
C  C74  1  0.35041922  0.35108606  0.55809806  1  0  -0.220064  0  3.812618  0  0  -0.234146  0  4.077173  0  0  -0.242733  0  4.097357  0  0  -0.12409  -0.228473  0  4.063261  0
C  C75  1  0.64957399  0.64891011  0.44190295  1  0  -0.219988  0  3.81252  0  0  -0.233993  0  4.077091  0  0  -0.242576  0  4.097276  0  0  -0.124057  -0.228322  0  4.063174  0
C  C76  1  0.39016957  0.20810213  0.28071042  1  0  -0.127647  0  3.767694  0  0  -0.149493  0  4.019787  0  0  -0.152324  0  4.041498  0  0  -0.09745  -0.147492  0  4.004975  0
C  C77  1  0.60982899  0.79189585  0.71929071  1  0  -0.127616  0  3.767758  0  0  -0.149439  0  4.019833  0  0  -0.152271  0  4.041555  0  0  -0.097452  -0.147437  0  4.005018  0
C  C78  1  0.28192602  0.47800613  0.52137937  1  0  -0.011846  0  3.682485  0  0  -0.06684  0  3.932258  0  0  -0.05926  0  3.946898  0  0  0.014718  -0.071263  0  3.921931  0
C  C79  1  0.71806513  0.52199475  0.47861957  1  0  -0.011836  0  3.682632  0  0  -0.06683  0  3.932379  0  0  -0.059247  0  3.947018  0  0  0.014738  -0.071249  0  3.922048  0
C  C80  1  0.53741378  0.46337119  0.15931842  1  0  -0.012575  0  3.644486  0  0  -0.074075  0  3.90521  0  0  -0.066387  0  3.918099  0  0  0.013511  -0.078498  0  3.896096  0
C  C81  1  0.46258394  0.53662869  0.84068085  1  0  -0.012432  0  3.644421  0  0  -0.074005  0  3.905117  0  0  -0.066322  0  3.918002  0  0  0.013496  -0.078431  0  3.896005  0
C  C82  1  0.06874686  0.78706784  0.41942579  1  0  -0.115798  0  3.764691  0  0  -0.133458  0  4.008701  0  0  -0.135931  0  4.030383  0  0  -0.092732  -0.131698  0  3.994005  0
C  C83  1  0.93125949  0.21293195  0.58057351  1  0  -0.115801  0  3.764549  0  0  -0.133464  0  4.008556  0  0  -0.135933  0  4.030233  0  0  -0.092713  -0.131705  0  3.993857  0
C  C84  1  0.45450056  0.30019320  0.07534209  1  0  -0.071933  0  3.664816  0  0  -0.152165  0  3.912906  0  0  -0.14878  0  3.923639  0  0  -0.043599  -0.154055  0  3.905338  0
C  C85  1  0.54549715  0.69980668  0.92465633  1  0  -0.072034  0  3.665005  0  0  -0.152164  0  3.912895  0  0  -0.148789  0  3.92364  0  0  -0.043615  -0.154055  0  3.905327  0
C  C86  1  0.26959234  0.59553193  0.18856208  1  0  0.031294  0  3.770547  0  0  -0.010784  0  4.048229  0  0  -0.003057  0  4.064348  0  0  0.004475  -0.015588  0  4.03692  0
C  C87  1  0.73040498  0.40446889  0.81143712  1  0  0.031404  0  3.77037  0  0  -0.010656  0  4.048052  0  0  -0.002929  0  4.064175  0  0  0.004503  -0.015459  0  4.03674  0
C  C88  1  0.13283729  0.87263109  0.34857600  1  0  -0.105348  0  3.740715  0  0  -0.121829  0  3.982126  0  0  -0.124887  0  4.004228  0  0  -0.09007  -0.119696  0  3.967127  0
C  C89  1  0.86717072  0.12736493  0.65142531  1  0  -0.105403  0  3.740562  0  0  -0.121871  0  3.981987  0  0  -0.124925  0  4.004089  0  0  -0.090124  -0.11974  0  3.966988  0
N  N90  1  0.42080646  0.41899565  0.12281991  1  0  0.070547  0  3.593565  0  0  0.192476  0  3.764593  0  0  0.183074  0  3.791832  0  0  -0.146356  0.197585  0  3.74788  0
N  N91  1  0.57919125  0.58100423  0.87717851  1  0  0.070565  0  3.593645  0  0  0.192567  0  3.764533  0  0  0.183201  0  3.791706  0  0  -0.146222  0.197677  0  3.747821  0
N  N92  1  0.15102108  0.44774028  0.69808267  1  0  -0.25329  0  3.094418  0  0  -0.218602  0  3.381656  0  0  -0.231444  0  3.39586  0  0  -0.250357  -0.209698  0  3.371875  0
N  N93  1  0.84897709  0.55226145  0.30191890  1  0  -0.253287  0  3.094409  0  0  -0.218561  0  3.381629  0  0  -0.231397  0  3.395829  0  0  -0.250309  -0.209657  0  3.371842  0
N  N94  1  0.16393480  0.53232413  0.60781996  1  0  0.069891  0  3.564001  0  0  0.190441  0  3.737944  0  0  0.18065  0  3.764866  0  0  -0.142774  0.195748  0  3.721529  0
N  N95  1  0.83606211  0.46767762  0.39217916  1  0  0.069887  0  3.563868  0  0  0.190405  0  3.737879  0  0  0.180596  0  3.764835  0  0  -0.142786  0.195711  0  3.721465  0
N  N96  1  0.25643298  0.49844905  0.14046828  1  0  -0.262218  0  3.1442  0  0  -0.224448  0  3.44037  0  0  -0.238255  0  3.454183  0  0  -0.257517  -0.21494  0  3.430845  0
N  N97  1  0.74356475  0.50155083  0.85953100  1  0  -0.262331  0  3.144361  0  0  -0.224596  0  3.44051  0  0  -0.238412  0  3.454327  0  0  -0.25761  -0.215088  0  3.430985  0
O  O98  1  0.12186691  0.28651373  0.93789984  1  0  -0.633533  0  2.0115  0  0  -0.570786  0  2.270594  0  0  -0.598666  0  2.259661  0  0  -0.330572  -0.551332  0  2.277414  0
O  O99  1  0.87813122  0.71349364  0.06209677  1  0  -0.633591  0  2.011655  0  0  -0.570866  0  2.270768  0  0  -0.598741  0  2.259832  0  0  -0.330654  -0.551412  0  2.277591  0
O  O100  1  0.93091388  0.30920118  0.09872640  1  0  -0.635945  0  2.080692  0  0  -0.562947  0  2.349471  0  0  -0.593281  0  2.338132  0  0  -0.335593  -0.541768  0  2.356416  0
O  O101  1  0.06908096  0.69080247  0.90127099  1  0  -0.635984  0  2.080622  0  0  -0.563004  0  2.349388  0  0  -0.593347  0  2.338073  0  0  -0.335604  -0.541824  0  2.356332  0
