# generated using pymatgen
data_AlH12C24(BrO2)3
_symmetry_space_group_name_H-M   'P 1'
_cell_length_a   4.08636781
_cell_length_b   28.66792516
_cell_length_c   28.66783417
_cell_angle_alpha   119.99991957
_cell_angle_beta   89.99951086
_cell_angle_gamma   90.00005576
_symmetry_Int_Tables_number   1
_chemical_formula_structural   AlH12C24(BrO2)3
_chemical_formula_sum   'Al2 H24 C48 Br6 O12'
_cell_volume   2908.43648304
_cell_formula_units_Z   2
loop_
 _symmetry_equiv_pos_site_id
 _symmetry_equiv_pos_as_xyz
  1  'x, y, z'
loop_
 _atom_site_type_symbol
 _atom_site_label
 _atom_site_symmetry_multiplicity
 _atom_site_fract_x
 _atom_site_fract_y
 _atom_site_fract_z
 _atom_site_occupancy
 _atom_site_pbe_bader_charge
 _atom_site_pbe_bader_spin_density
 _atom_site_pbe_cm5_charge
 _atom_site_pbe_ddec_charge
 _atom_site_pbe_ddec_spin_density
 _atom_site_pbe_ddec_sum_bond_order
 _atom_site_pbe_magmom
Al  Al0  1  0.97680074  0.50000446  0.50000023  1  2.511867  0  0.436741  1.615541  0  2.552009  0
Al  Al1  1  0.97686334  0.16666821  0.83333301  1  2.512057  0  0.436829  1.615526  0  2.551995  0
H  H2  1  0.14542947  0.19572948  0.70742802  1  0.113146  0  0.11  0.11626  0  0.983241  0
H  H3  1  0.16671635  0.25073375  0.66327735  1  0.063494  0  0.087104  0.091659  0  1.057001  0
H  H4  1  0.84035295  0.35965476  0.78510072  1  0.069989  0  0.09224  0.097336  0  1.031978  0
H  H5  1  0.82281516  0.30319879  0.82794389  1  0.098177  0  0.110646  0.116967  0  0.985284  0
H  H6  1  0.84035479  0.30702186  0.54823377  1  0.069756  0  0.092222  0.097368  0  1.032093  0
H  H7  1  0.16660167  0.41592087  0.67004504  1  0.063075  0  0.087017  0.091563  0  1.057126  0
H  H8  1  0.14529081  0.47092819  0.62589904  1  0.11227  0  0.109967  0.116389  0  0.98331  0
H  H9  1  0.82278071  0.36347872  0.50539393  1  0.098511  0  0.110721  0.117031  0  0.985417  0
H  H10  1  0.14541137  0.01170410  0.80426901  1  0.110845  0  0.109993  0.116222  0  0.983285  0
H  H11  1  0.16671110  0.91254931  0.74926532  1  0.062298  0  0.087111  0.091662  0  1.056859  0
H  H12  1  0.84039083  0.92545118  0.64034627  1  0.102198  0  0.092271  0.097439  0  1.031946  0
H  H13  1  0.82285234  0.02475090  0.69680193  1  0.094523  0  0.110681  0.117118  0  0.985205  0
H  H14  1  0.84035688  0.74122025  0.69298135  1  0.102777  0  0.092233  0.097373  0  1.031936  0
H  H15  1  0.16658570  0.75413325  0.58408615  1  0.061572  0  0.08702  0.091603  0  1.057248  0
H  H16  1  0.14527955  0.65498085  0.52907890  1  0.109869  0  0.109984  0.116373  0  0.983446  0
H  H17  1  0.82277535  0.64192507  0.63652347  1  0.095111  0  0.110683  0.116899  0  0.98562  0
H  H18  1  0.14542649  0.29256852  0.98830103  1  0.057547  0  0.110001  0.11627  0  0.98324  0
H  H19  1  0.16673097  0.33671864  0.08745633  1  0.095702  0  0.087111  0.091658  0  1.057037  0
H  H20  1  0.84036096  0.21489148  0.07454920  1  0.09  0  0.092308  0.097473  0  1.031954  0
H  H21  1  0.82281289  0.17204851  0.97524900  1  0.11437  0  0.110716  0.117085  0  0.98538  0
H  H22  1  0.84042978  0.45175560  0.25878217  1  0.09006  0  0.092185  0.09737  0  1.032119  0
H  H23  1  0.16661865  0.32995238  0.24587141  1  0.096316  0  0.087033  0.091584  0  1.057146  0
H  H24  1  0.14530847  0.37410007  0.34502488  1  0.05807  0  0.109975  0.116378  0  0.983389  0
H  H25  1  0.82285885  0.49459535  0.35807852  1  0.111269  0  0.110673  0.116942  0  0.985352  0
C  C26  1  0.47784646  0.46349910  0.41772443  1  1.593502  0  0.274798  0.652467  0  4.066866  0
C  C27  1  0.47783318  0.45422952  0.53650011  1  1.584484  0  0.274575  0.651882  0  4.067335  0
C  C28  1  0.47782599  0.58227951  0.54577400  1  1.524645  0  0.274615  0.652019  0  4.067042  0
C  C29  1  0.47791045  0.21244618  0.79683540  1  1.58379  0  0.274809  0.652518  0  4.067353  0
C  C30  1  0.47791030  0.08439212  0.78755302  1  1.539504  0  0.274803  0.65247  0  4.067703  0
C  C31  1  0.47790451  0.20316253  0.91560911  1  1.592353  0  0.274827  0.652533  0  4.067602  0
C  C32  1  0.48700010  0.24546611  0.77006826  1  -0.073833  0  -0.010595  -0.042947  0  3.963728  0
C  C33  1  0.30396355  0.23096775  0.72342239  1  -0.047831  0  -0.078541  -0.077803  0  3.958371  0
C  C34  1  0.31798661  0.26186836  0.69851785  1  -0.022176  0  -0.092492  -0.118278  0  3.97282  0
C  C35  1  0.51468406  0.30850395  0.71970342  1  0.036222  0  -0.017483  0.073694  0  4.016199  0
C  C36  1  0.68880066  0.32359186  0.76762036  1  0.008941  0  -0.092991  -0.120955  0  3.972158  0
C  C37  1  0.67864413  0.29221854  0.79196719  1  -0.045226  0  -0.078826  -0.078291  0  3.970558  0
C  C38  1  0.53140393  0.34130165  0.69336292  1  -0.099881  0  -0.017493  0.010237  0  3.868488  0
C  C39  1  0.53139810  0.32535877  0.63996614  1  -0.007422  0  -0.017599  0.010005  0  3.867979  0
C  C40  1  0.68876746  0.34307793  0.56570665  1  0.015576  0  -0.093057  -0.120885  0  3.972325  0
C  C41  1  0.51461634  0.35816330  0.61362162  1  0.028697  0  -0.017469  0.073586  0  4.015732  0
C  C42  1  0.31787147  0.40479335  0.63481108  1  -0.020735  0  -0.092277  -0.117896  0  3.973036  0
C  C43  1  0.30383294  0.43569535  0.60990795  1  -0.047572  0  -0.078533  -0.078209  0  3.958573  0
C  C44  1  0.48691126  0.42119817  0.56326470  1  -0.073306  0  -0.010575  -0.042515  0  3.963019  0
C  C45  1  0.67859542  0.37445138  0.54136318  1  -0.045697  0  -0.07891  -0.078576  0  3.970667  0
C  C46  1  0.48700228  0.02461006  0.75453315  1  -0.008384  0  -0.010527  -0.042689  0  3.963467  0
C  C47  1  0.30395736  0.99246135  0.76903023  1  -0.053136  0  -0.078383  -0.077674  0  3.957993  0
C  C48  1  0.31799255  0.93665397  0.73812819  1  -0.026241  0  -0.09251  -0.118243  0  3.972639  0
C  C49  1  0.51469418  0.91120248  0.69149323  1  -0.008371  0  -0.017419  0.073786  0  4.016781  0
C  C50  1  0.68881758  0.94403142  0.67640713  1  0.041403  0  -0.093075  -0.121081  0  3.972076  0
C  C51  1  0.67865623  0.99975512  0.70778214  1  -0.096304  0  -0.078945  -0.078684  0  3.970125  0
C  C52  1  0.53141150  0.85207175  0.65870176  1  -0.058403  0  -0.017473  0.01019  0  3.868951  0
C  C53  1  0.53138645  0.81461901  0.67464629  1  0.036417  0  -0.017744  0.009857  0  3.867993  0
C  C54  1  0.68877338  0.72263542  0.65692611  1  0.041244  0  -0.093098  -0.120953  0  3.972184  0
C  C55  1  0.51460458  0.75546398  0.64183939  1  -0.009668  0  -0.017289  0.073815  0  4.01525  0
C  C56  1  0.31785900  0.73002595  0.59521163  1  -0.0255  0  -0.092296  -0.118069  0  3.973407  0
C  C57  1  0.30381791  0.67422068  0.56430890  1  -0.052916  0  -0.078561  -0.078097  0  3.958693  0
C  C58  1  0.48690663  0.64207692  0.57880641  1  -0.006935  0  -0.010638  -0.042742  0  3.963317  0
C  C59  1  0.67859147  0.66692029  0.62555164  1  -0.096954  0  -0.078875  -0.078311  0  3.971263  0
C  C60  1  0.48699406  0.22992411  0.97539316  1  -0.060696  0  -0.010541  -0.042681  0  3.963523  0
C  C61  1  0.30395766  0.27657144  0.00754221  1  0.081777  0  -0.078421  -0.077767  0  3.958107  0
C  C62  1  0.31799547  0.30147555  0.06334932  1  -0.082677  0  -0.092496  -0.11823  0  3.972752  0
C  C63  1  0.51469257  0.28029065  0.08879886  1  -0.014697  0  -0.017482  0.073632  0  4.016358  0
C  C64  1  0.68880154  0.23237213  0.05596772  1  -0.011678  0  -0.093113  -0.121059  0  3.972126  0
C  C65  1  0.67863513  0.20802587  0.00024598  1  -0.073205  0  -0.078957  -0.07867  0  3.970595  0
C  C66  1  0.53142951  0.30662982  0.14793372  1  -0.092867  0  -0.017544  0.010191  0  3.868811  0
C  C67  1  0.53143838  0.36002563  0.18538576  1  -0.012797  0  -0.017654  0.009924  0  3.868282  0
C  C68  1  0.68884224  0.43428540  0.27736539  1  -0.011163  0  -0.093058  -0.121002  0  3.972572  0
C  C69  1  0.51466635  0.38637274  0.24453785  1  -0.015057  0  -0.017344  0.0738  0  4.015523  0
C  C70  1  0.31791135  0.36518540  0.26997909  1  -0.0837  0  -0.092322  -0.11803  0  3.973071  0
C  C71  1  0.30386065  0.39008888  0.32578477  1  0.081547  0  -0.078564  -0.078134  0  3.958556  0
C  C72  1  0.48694911  0.43672990  0.35792914  1  -0.060845  0  -0.010638  -0.042831  0  3.963149  0
C  C73  1  0.67865316  0.45862809  0.33308235  1  -0.070082  0  -0.078833  -0.078312  0  3.970737  0
Br  Br74  1  0.58262912  0.41724035  0.74410507  1  -0.062056  0  0.047599  -0.05332  0  1.522432  0
Br  Br75  1  0.58271630  0.24942595  0.58922217  1  -0.06186  0  0.047626  -0.053295  0  1.522634  0
Br  Br76  1  0.58268166  0.82686674  0.58275932  1  -0.061729  0  0.047576  -0.053375  0  1.522251  0
Br  Br77  1  0.58267681  0.83980641  0.75057832  1  -0.061388  0  0.0476  -0.053275  0  1.522719  0
Br  Br78  1  0.58264769  0.25588887  0.17313271  1  -0.062305  0  0.047597  -0.053329  0  1.522324  0
Br  Br79  1  0.58274402  0.41077200  0.16019939  1  -0.06215  0  0.047688  -0.053189  0  1.522628  0
O  O80  1  0.70946417  0.55658634  0.55297178  1  -1.25746  0  -0.240762  -0.605458  0  2.368985  0
O  O81  1  0.70946716  0.49639301  0.44341769  1  -1.262609  0  -0.2408  -0.605681  0  2.369007  0
O  O82  1  0.70946280  0.44703186  0.50360941  1  -1.256472  0  -0.240741  -0.605365  0  2.369231  0
O  O83  1  0.24020265  0.56078812  0.51280892  1  -1.250736  0  -0.238544  -0.599638  0  2.35428  0
O  O84  1  0.24019894  0.48719432  0.54797404  1  -1.249951  0  -0.238598  -0.599646  0  2.354425  0
O  O85  1  0.24020933  0.45202872  0.43921613  1  -1.249674  0  -0.238668  -0.599819  0  2.35442  0
O  O86  1  0.70950692  0.17027094  0.88991231  1  -1.26145  0  -0.240877  -0.605653  0  2.369411  0
O  O87  1  0.70950639  0.21964228  0.82972715  1  -1.256753  0  -0.240839  -0.605601  0  2.369373  0
O  O88  1  0.70950747  0.11008903  0.78035797  1  -1.258557  0  -0.240816  -0.605541  0  2.369405  0
O  O89  1  0.24029563  0.21463517  0.89411706  1  -1.249867  0  -0.238765  -0.59996  0  2.354535  0
O  O90  1  0.24029742  0.10588432  0.82051713  1  -1.264882  0  -0.238793  -0.600005  0  2.354551  0
O  O91  1  0.24028890  0.17948182  0.78536295  1  -1.249118  0  -0.238734  -0.59993  0  2.354431  0
