# generated using pymatgen
data_TbH15(C4O3)4
_symmetry_space_group_name_H-M   'P 1'
_cell_length_a   6.26434545
_cell_length_b   10.83019932
_cell_length_c   12.92665650
_cell_angle_alpha   81.70410284
_cell_angle_beta   87.65525936
_cell_angle_gamma   85.70386153
_symmetry_Int_Tables_number   1
_chemical_formula_structural   TbH15(C4O3)4
_chemical_formula_sum   'Tb2 H30 C32 O24'
_cell_volume   864.97949224
_cell_formula_units_Z   2
loop_
 _symmetry_equiv_pos_site_id
 _symmetry_equiv_pos_as_xyz
  1  'x, y, z'
loop_
 _atom_site_type_symbol
 _atom_site_label
 _atom_site_symmetry_multiplicity
 _atom_site_fract_x
 _atom_site_fract_y
 _atom_site_fract_z
 _atom_site_occupancy
 _atom_site_hle17_bader_spin_density
 _atom_site_hle17_ddec_charge
 _atom_site_hle17_ddec_spin_density
 _atom_site_hle17_ddec_sum_bond_order
 _atom_site_hle17_magmom
 _atom_site_hse06_10hf_bader_spin_density
 _atom_site_hse06_10hf_ddec_charge
 _atom_site_hse06_10hf_ddec_spin_density
 _atom_site_hse06_10hf_ddec_sum_bond_order
 _atom_site_hse06_10hf_magmom
 _atom_site_hse06_bader_spin_density
 _atom_site_hse06_ddec_charge
 _atom_site_hse06_ddec_spin_density
 _atom_site_hse06_ddec_sum_bond_order
 _atom_site_hse06_magmom
 _atom_site_pbe_bader_spin_density
 _atom_site_pbe_cm5_charge
 _atom_site_pbe_ddec_charge
 _atom_site_pbe_ddec_spin_density
 _atom_site_pbe_ddec_sum_bond_order
 _atom_site_pbe_magmom
Tb  Tb0  1  0.75789181  0.73949382  0.39970319  1  0  2.251165  0  1.552378  0  0  2.094411  0  2.018066  0  0  2.222417  0  1.825024  0  0  1.482462  2.061104  0  2.04684  0
Tb  Tb1  1  0.24210267  0.26050729  0.60029600  1  0  2.251182  0  1.552371  0  0  2.094344  0  2.018174  0  0  2.222427  0  1.825017  0  0  1.482421  2.061085  0  2.046851  0
H  H2  1  0.91474544  0.38921152  0.24377771  1  0  0.106347  0  0.946356  0  0  0.11595  0  1.009835  0  0  0.119416  0  1.007655  0  0  0.10922  0.113428  0  1.011445  0
H  H3  1  0.08525529  0.61078955  0.75622758  1  0  0.106376  0  0.946329  0  0  0.115969  0  1.009838  0  0  0.119434  0  1.00766  0  0  0.109244  0.113449  0  1.011449  0
H  H4  1  0.44942374  0.30435401  0.03985099  1  0  0.103091  0  0.951316  0  0  0.113418  0  1.012396  0  0  0.115983  0  1.012126  0  0  0.104371  0.111561  0  1.012674  0
H  H5  1  0.55057398  0.69564614  0.96015058  1  0  0.103089  0  0.951387  0  0  0.113412  0  1.012473  0  0  0.115966  0  1.012229  0  0  0.104362  0.111586  0  1.012728  0
H  H6  1  0.65773490  0.45832397  0.11062432  1  0  0.094191  0  0.957647  0  0  0.102969  0  1.023993  0  0  0.105433  0  1.02352  0  0  0.103316  0.10102  0  1.02472  0
H  H7  1  0.34225934  0.54167900  0.88937620  1  0  0.094186  0  0.957757  0  0  0.102964  0  1.024098  0  0  0.105429  0  1.023624  0  0  0.103329  0.101018  0  1.024826  0
H  H8  1  0.66651806  0.03664322  0.97727541  1  0  0.112668  0  0.959096  0  0  0.118207  0  1.027029  0  0  0.122099  0  1.023708  0  0  0.110318  0.115343  0  1.029663  0
H  H9  1  0.33348963  0.96335410  0.02272248  1  0  0.112648  0  0.959241  0  0  0.118257  0  1.027073  0  0  0.122149  0  1.023753  0  0  0.110363  0.115398  0  1.029702  0
H  H10  1  0.78390971  0.23002881  0.86991138  1  0  0.109071  0  0.957879  0  0  0.11617  0  1.020227  0  0  0.120139  0  1.018125  0  0  0.102782  0.113377  0  1.021684  0
H  H11  1  0.21608427  0.76997602  0.13009202  1  0  0.109087  0  0.957798  0  0  0.116192  0  1.02014  0  0  0.120163  0  1.018035  0  0  0.102802  0.113406  0  1.021602  0
H  H12  1  0.01717567  0.36579053  0.94767486  1  0  0.093062  0  0.947624  0  0  0.102273  0  1.013159  0  0  0.104797  0  1.012331  0  0  0.099801  0.100428  0  1.013823  0
H  H13  1  0.98280996  0.63421714  0.05233065  1  0  0.093098  0  0.947646  0  0  0.102323  0  1.013155  0  0  0.104844  0  1.01233  0  0  0.099854  0.10048  0  1.013823  0
H  H14  1  0.64063067  0.79126874  0.15844043  1  0  0.4146  0  0.879624  0  0  0.383321  0  0.957529  0  0  0.395358  0  0.940624  0  0  0.318111  0.374751  0  0.967726  0
H  H15  1  0.35938230  0.20872482  0.84155397  1  0  0.414597  0  0.879609  0  0  0.383288  0  0.957576  0  0  0.395327  0  0.940668  0  0  0.318094  0.374715  0  0.96777  0
H  H16  1  0.04802817  0.61483567  0.56322341  1  0  0.438677  0  0.866143  0  0  0.406786  0  0.931189  0  0  0.418334  0  0.914755  0  0  0.296428  0.398772  0  0.942748  0
H  H17  1  0.95196337  0.38516359  0.43677295  1  0  0.438725  0  0.866064  0  0  0.406822  0  0.931139  0  0  0.418371  0  0.914705  0  0  0.296421  0.398809  0  0.942696  0
H  H18  1  0.02230945  0.75900660  0.58476437  1  0  0.432279  0  0.871073  0  0  0.401614  0  0.935119  0  0  0.412054  0  0.920092  0  0  0.296816  0.394371  0  0.945712  0
H  H19  1  0.97768852  0.24099264  0.41523035  1  0  0.432312  0  0.871069  0  0  0.401629  0  0.935137  0  0  0.41207  0  0.92011  0  0  0.296809  0.394382  0  0.945734  0
H  H20  1  0.39875034  0.71450807  0.54017663  1  0  0.445238  0  0.818962  0  0  0.421844  0  0.879177  0  0  0.432286  0  0.863784  0  0  0.317443  0.414348  0  0.890428  0
H  H21  1  0.60126431  0.28549667  0.45983112  1  0  0.445138  0  0.819118  0  0  0.421755  0  0.879296  0  0  0.432197  0  0.863901  0  0  0.317386  0.414264  0  0.89054  0
H  H22  1  0.53044970  0.58799822  0.57788888  1  0  0.442182  0  0.850782  0  0  0.41157  0  0.913296  0  0  0.422671  0  0.897422  0  0  0.301834  0.403946  0  0.924358  0
H  H23  1  0.46955921  0.41200188  0.42211254  1  0  0.442241  0  0.850697  0  0  0.411592  0  0.913245  0  0  0.422701  0  0.897364  0  0  0.301875  0.403969  0  0.924306  0
H  H24  1  0.36461746  0.91783175  0.33202596  1  0  0.451977  0  0.841852  0  0  0.421974  0  0.902301  0  0  0.43428  0  0.88455  0  0  0.299889  0.413638  0  0.914365  0
H  H25  1  0.63538531  0.08216746  0.66796869  1  0  0.452009  0  0.841803  0  0  0.421972  0  0.902293  0  0  0.434298  0  0.88452  0  0  0.299892  0.413636  0  0.914358  0
H  H26  1  0.29677780  0.77841611  0.35154836  1  0  0.442534  0  0.85443  0  0  0.412102  0  0.917459  0  0  0.422222  0  0.903029  0  0  0.305636  0.40502  0  0.927829  0
H  H27  1  0.70321476  0.22158686  0.64845605  1  0  0.442589  0  0.854344  0  0  0.412146  0  0.917395  0  0  0.422267  0  0.902962  0  0  0.305647  0.405063  0  0.927767  0
H  H28  1  0.83869857  0.92546761  0.54189236  1  0  0.432625  0  0.864763  0  0  0.400976  0  0.928971  0  0  0.413388  0  0.910849  0  0  0.301261  0.392347  0  0.941702  0
H  H29  1  0.16131985  0.07453434  0.45810328  1  0  0.432595  0  0.86482  0  0  0.400953  0  0.929013  0  0  0.413363  0  0.910893  0  0  0.30123  0.392323  0  0.941748  0
H  H30  1  0.83277548  0.99890387  0.42443189  1  0  0.448688  0  0.837729  0  0  0.418078  0  0.899337  0  0  0.428957  0  0.883518  0  0  0.308055  0.410494  0  0.910538  0
H  H31  1  0.16724024  0.00109341  0.57556434  1  0  0.448664  0  0.837756  0  0  0.41806  0  0.899358  0  0  0.428941  0  0.883535  0  0  0.308029  0.410474  0  0.910564  0
C  C32  1  0.53286548  0.58594521  0.27463127  1  0  0.665395  0  3.902919  0  0  0.611721  0  4.201134  0  0  0.645701  0  4.197387  0  0  0.212019  0.588219  0  4.207574  0
C  C33  1  0.46713715  0.41405399  0.72536957  1  0  0.665566  0  3.902837  0  0  0.611883  0  4.201067  0  0  0.645863  0  4.197322  0  0  0.212048  0.588376  0  4.207517  0
C  C34  1  0.40379933  0.51027807  0.21678781  1  0  -0.069498  0  3.736007  0  0  -0.057222  0  3.970718  0  0  -0.061708  0  3.989159  0  0  -0.009701  -0.0538  0  3.95726  0
C  C35  1  0.59618840  0.48972587  0.78321347  1  0  -0.069737  0  3.736336  0  0  -0.057476  0  3.971072  0  0  -0.061962  0  3.989511  0  0  -0.009804  -0.054058  0  3.957626  0
C  C36  1  0.19189725  0.49230573  0.25284206  1  0  -0.052408  0  3.740972  0  0  -0.036345  0  3.974242  0  0  -0.04018  0  3.9925  0  0  -0.005475  -0.033283  0  3.960771  0
C  C37  1  0.80809719  0.50769538  0.74715868  1  0  -0.052236  0  3.740848  0  0  -0.036148  0  3.974076  0  0  -0.039981  0  3.992333  0  0  -0.005402  -0.033079  0  3.960602  0
C  C38  1  0.07761977  0.57620142  0.32180827  1  0  0.664142  0  3.892226  0  0  0.609226  0  4.189623  0  0  0.642584  0  4.188048  0  0  0.206342  0.585829  0  4.195277  0
C  C39  1  0.92236966  0.42380157  0.67819309  1  0  0.663942  0  3.892236  0  0  0.609027  0  4.189618  0  0  0.642383  0  4.188054  0  0  0.206262  0.585625  0  4.195281  0
C  C40  1  0.07855384  0.40321922  0.21545543  1  0  -0.111929  0  3.691054  0  0  -0.145641  0  3.942692  0  0  -0.146397  0  3.960112  0  0  -0.077928  -0.144966  0  3.93049  0
C  C41  1  0.92143879  0.59678377  0.78454588  1  0  -0.111992  0  3.69125  0  0  -0.145753  0  3.942901  0  0  -0.146509  0  3.960321  0  0  -0.077953  -0.145081  0  3.930701  0
C  C42  1  0.16973197  0.33459410  0.13875022  1  0  0.068394  0  3.776633  0  0  0.083502  0  4.012361  0  0  0.083873  0  4.03591  0  0  0.003063  0.083266  0  3.996403  0
C  C43  1  0.83026566  0.66540794  0.86124649  1  0  0.068403  0  3.776713  0  0  0.083586  0  4.012345  0  0  0.083959  0  4.035894  0  0  0.003017  0.083349  0  3.996401  0
C  C44  1  0.37712799  0.35715340  0.09956241  1  0  -0.083457  0  3.683897  0  0  -0.105743  0  3.930773  0  0  -0.107338  0  3.950236  0  0  -0.074936  -0.104405  0  3.917405  0
C  C45  1  0.62286292  0.64285052  0.90043959  1  0  -0.083503  0  3.68384  0  0  -0.105818  0  3.930726  0  0  -0.107412  0  3.950187  0  0  -0.07488  -0.104507  0  3.917358  0
C  C46  1  0.49395608  0.44404241  0.13893475  1  0  -0.05967  0  3.725157  0  0  -0.082541  0  3.976761  0  0  -0.083006  0  3.99646  0  0  -0.077292  -0.08216  0  3.963332  0
C  C47  1  0.50603831  0.55595964  0.86106356  1  0  -0.059512  0  3.725373  0  0  -0.082369  0  3.976945  0  0  -0.082834  0  3.996642  0  0  -0.077275  -0.081993  0  3.963533  0
C  C48  1  0.03595148  0.24738968  0.09632614  1  0  0.015866  0  3.762209  0  0  0.025727  0  3.997476  0  0  0.022781  0  4.021494  0  0  -0.005281  0.027557  0  3.981331  0
C  C49  1  0.96404273  0.75261329  0.90367592  1  0  0.015861  0  3.762074  0  0  0.025717  0  3.997304  0  0  0.02277  0  4.021319  0  0  -0.005243  0.027551  0  3.981163  0
C  C50  1  0.97524012  0.13626036  0.15742260  1  0  -0.056453  0  3.611969  0  0  -0.053004  0  3.850055  0  0  -0.052614  0  3.866783  0  0  0.010092  -0.052872  0  3.83824  0
C  C51  1  0.02475908  0.86374072  0.84257961  1  0  -0.05659  0  3.612025  0  0  -0.053131  0  3.850196  0  0  -0.05274  0  3.866922  0  0  0.010032  -0.053002  0  3.838372  0
C  C52  1  0.08619077  0.09157088  0.26027891  1  0  0.687795  0  3.887556  0  0  0.625677  0  4.208566  0  0  0.659585  0  4.198196  0  0  0.219725  0.602688  0  4.214309  0
C  C53  1  0.91381614  0.90841896  0.73971911  1  0  0.687739  0  3.887344  0  0  0.625494  0  4.208555  0  0  0.659407  0  4.198184  0  0  0.219622  0.602518  0  4.214279  0
C  C54  1  0.83669857  0.06214279  0.11343876  1  0  -0.104968  0  3.747871  0  0  -0.089489  0  3.983371  0  0  -0.099571  0  4.005781  0  0  -0.014285  -0.082806  0  3.967762  0
C  C55  1  0.16331056  0.93785640  0.88655735  1  0  -0.104755  0  3.747702  0  0  -0.089274  0  3.983191  0  0  -0.099363  0  4.005601  0  0  -0.014193  -0.082577  0  3.967565  0
C  C56  1  0.76970434  0.94325718  0.17159981  1  0  0.708776  0  3.75548  0  0  0.657109  0  4.046954  0  0  0.693791  0  4.037509  0  0  0.256058  0.632451  0  4.054495  0
C  C57  1  0.23030345  0.05673635  0.82841245  1  0  0.708661  0  3.755086  0  0  0.656984  0  4.046579  0  0  0.693676  0  4.037131  0  0  0.25597  0.632316  0  4.054117  0
C  C58  1  0.76750088  0.09690930  0.01073746  1  0  -0.044525  0  3.709547  0  0  -0.077131  0  3.970462  0  0  -0.074381  0  3.988207  0  0  -0.077322  -0.079135  0  3.958737  0
C  C59  1  0.23250687  0.90308707  0.98926287  1  0  -0.044617  0  3.709548  0  0  -0.077264  0  3.970435  0  0  -0.07451  0  3.988177  0  0  -0.077316  -0.079272  0  3.958721  0
C  C60  1  0.83144877  0.20538742  0.95076308  1  0  -0.072042  0  3.747108  0  0  -0.087741  0  4.011492  0  0  -0.091301  0  4.030005  0  0  -0.092961  -0.085417  0  3.998974  0
C  C61  1  0.16854397  0.79461463  0.04923757  1  0  -0.071978  0  3.747173  0  0  -0.0877  0  4.011586  0  0  -0.091261  0  4.030098  0  0  -0.092958  -0.085381  0  3.999092  0
C  C62  1  0.96468250  0.28046830  0.99406024  1  0  -0.070541  0  3.706348  0  0  -0.096039  0  3.962734  0  0  -0.094647  0  3.981019  0  0  -0.077872  -0.096911  0  3.950365  0
C  C63  1  0.03531005  0.71953467  0.00594495  1  0  -0.070542  0  3.706347  0  0  -0.096037  0  3.962696  0  0  -0.094636  0  3.980974  0  0  -0.077948  -0.096921  0  3.950359  0
O  O64  1  0.66460086  0.66227214  0.22885056  1  0  -0.706943  0  2.072143  0  0  -0.650875  0  2.313949  0  0  -0.683871  0  2.304136  0  0  -0.348373  -0.633066  0  2.319859  0
O  O65  1  0.33540498  0.33772705  0.77114946  1  0  -0.706987  0  2.072102  0  0  -0.650906  0  2.313924  0  0  -0.683908  0  2.304108  0  0  -0.348333  -0.633103  0  2.31983  0
O  O66  1  0.51242575  0.56898450  0.37417917  1  0  -0.67959  0  2.039814  0  0  -0.618472  0  2.266004  0  0  -0.650797  0  2.256882  0  0  -0.335188  -0.60089  0  2.271471  0
O  O67  1  0.48757049  0.43101473  0.62582176  1  0  -0.679654  0  2.039727  0  0  -0.618545  0  2.265946  0  0  -0.650874  0  2.256816  0  0  -0.335245  -0.600969  0  2.271418  0
O  O68  1  0.09927498  0.69371707  0.30427393  1  0  -0.691964  0  2.044541  0  0  -0.63526  0  2.281489  0  0  -0.668724  0  2.273224  0  0  -0.353982  -0.617605  0  2.286702  0
O  O69  1  0.90071620  0.30628499  0.69572520  1  0  -0.691926  0  2.044575  0  0  -0.635171  0  2.281454  0  0  -0.668644  0  2.27319  0  0  -0.353967  -0.617522  0  2.286662  0
O  O70  1  0.94208624  0.53214624  0.39151870  1  0  -0.681413  0  2.081515  0  0  -0.618036  0  2.31321  0  0  -0.651911  0  2.305375  0  0  -0.352622  -0.600131  0  2.318184  0
O  O71  1  0.05790840  0.46785299  0.60848226  1  0  -0.681346  0  2.081465  0  0  -0.617941  0  2.313111  0  0  -0.651824  0  2.305276  0  0  -0.352606  -0.600048  0  2.318093  0
O  O72  1  0.99713070  0.11645242  0.34708972  1  0  -0.692369  0  2.008543  0  0  -0.624034  0  2.228768  0  0  -0.650063  0  2.21368  0  0  -0.319666  -0.605095  0  2.237877  0
O  O73  1  0.00289300  0.88354388  0.65291193  1  0  -0.69226  0  2.008514  0  0  -0.6239  0  2.228827  0  0  -0.64993  0  2.213736  0  0  -0.319619  -0.604975  0  2.237937  0
O  O74  1  0.26595658  0.03444287  0.25027338  1  0  -0.589734  0  1.916198  0  0  -0.537319  0  2.127846  0  0  -0.562872  0  2.118841  0  0  -0.30021  -0.51905  0  2.132953  0
O  O75  1  0.73402903  0.96553868  0.74971742  1  0  -0.589723  0  1.915804  0  0  -0.537267  0  2.127536  0  0  -0.562825  0  2.118526  0  0  -0.300171  -0.518997  0  2.132631  0
O  O76  1  0.81652772  0.90695331  0.26452287  1  0  -0.667856  0  2.092304  0  0  -0.612532  0  2.340018  0  0  -0.647212  0  2.327454  0  0  -0.354378  -0.59643  0  2.346598  0
O  O77  1  0.18346070  0.09304693  0.73546568  1  0  -0.668052  0  2.091343  0  0  -0.612715  0  2.339058  0  0  -0.647416  0  2.326488  0  0  -0.354505  -0.596614  0  2.345628  0
O  O78  1  0.65871223  0.87730476  0.11718854  1  0  -0.536613  0  2.120791  0  0  -0.480156  0  2.339717  0  0  -0.503176  0  2.323072  0  0  -0.307013  -0.464058  0  2.349194  0
O  O79  1  0.34130237  0.12268880  0.88280428  1  0  -0.536383  0  2.121153  0  0  -0.479879  0  2.340069  0  0  -0.502901  0  2.323423  0  0  -0.306874  -0.46379  0  2.349545  0
O  O80  1  0.03435074  0.70441388  0.52887746  1  0  -0.9312  0  1.859515  0  0  -0.878838  0  2.052477  0  0  -0.909603  0  2.014623  0  0  -0.640992  -0.864472  0  2.074822  0
O  O81  1  0.96564422  0.29558350  0.47111829  1  0  -0.931255  0  1.8594  0  0  -0.878882  0  2.052404  0  0  -0.909661  0  2.014541  0  0  -0.64096  -0.864527  0  2.074751  0
O  O82  1  0.54456878  0.67933867  0.55612557  1  0  -0.882291  0  1.810191  0  0  -0.834603  0  1.991385  0  0  -0.863552  0  1.953267  0  0  -0.634814  -0.821707  0  2.01296  0
O  O83  1  0.45544651  0.32066140  0.44387653  1  0  -0.882261  0  1.810188  0  0  -0.834514  0  1.991473  0  0  -0.86348  0  1.953331  0  0  -0.634811  -0.821643  0  2.013048  0
O  O84  1  0.40700354  0.83170418  0.36969696  1  0  -0.94452  0  1.853346  0  0  -0.891927  0  2.047006  0  0  -0.923075  0  2.00729  0  0  -0.654826  -0.877634  0  2.069459  0
O  O85  1  0.59298758  0.16829693  0.63030924  1  0  -0.944611  0  1.853269  0  0  -0.891974  0  2.046998  0  0  -0.923152  0  2.007232  0  0  -0.654862  -0.877696  0  2.069449  0
O  O86  1  0.77853220  0.92685961  0.47138591  1  0  -0.898799  0  1.836655  0  0  -0.841705  0  2.019025  0  0  -0.872178  0  1.977878  0  0  -0.649868  -0.828061  0  2.042795  0
O  O87  1  0.22147658  0.07314237  0.52861219  1  0  -0.898768  0  1.836722  0  0  -0.841674  0  2.019088  0  0  -0.872156  0  1.977942  0  0  -0.649843  -0.82804  0  2.042855  0
