# generated using pymatgen
data_Zn4H10C28S2O13F4
_symmetry_space_group_name_H-M   'P 1'
_cell_length_a   18.53768081
_cell_length_b   19.73475382
_cell_length_c   32.81285880
_cell_angle_alpha   85.94448966
_cell_angle_beta   73.58849268
_cell_angle_gamma   61.97760056
_symmetry_Int_Tables_number   1
_chemical_formula_structural   Zn4H10C28S2O13F4
_chemical_formula_sum   'Zn16 H40 C112 S8 O52 F16'
_cell_volume   10137.78473877
_cell_formula_units_Z   4
loop_
 _symmetry_equiv_pos_site_id
 _symmetry_equiv_pos_as_xyz
  1  'x, y, z'
loop_
 _atom_site_type_symbol
 _atom_site_label
 _atom_site_symmetry_multiplicity
 _atom_site_fract_x
 _atom_site_fract_y
 _atom_site_fract_z
 _atom_site_occupancy
 _atom_site_pbe_bader_charge
 _atom_site_pbe_bader_spin_density
 _atom_site_pbe_cm5_charge
 _atom_site_pbe_ddec_charge
 _atom_site_pbe_ddec_spin_density
 _atom_site_pbe_ddec_sum_bond_order
 _atom_site_pbe_magmom
Zn  Zn0  1  0.87376693  0.55643873  0.51882890  1  1.317443  0  0.671004  0.959592  0  2.354044  0
Zn  Zn1  1  0.03842152  0.48490557  0.43813169  1  1.313308  0  0.67682  0.96252  0  2.403628  0
Zn  Zn2  1  0.04106846  0.39882225  0.52393458  1  1.320855  0  0.672284  0.963107  0  2.368142  0
Zn  Zn3  1  0.04754946  0.55934570  0.51816388  1  1.318615  0  0.672541  0.964913  0  2.367359  0
Zn  Zn4  1  0.62552338  0.19226498  0.73186297  1  1.305184  0  0.671603  0.958857  0  2.372272  0
Zn  Zn5  1  0.46301797  0.35063722  0.72548642  1  1.314823  0  0.672189  0.957373  0  2.383457  0
Zn  Zn6  1  0.45894778  0.26478278  0.81247771  1  1.30713  0  0.673878  0.965844  0  2.364468  0
Zn  Zn7  1  0.45306926  0.19268935  0.72974999  1  1.319942  0  0.673381  0.964303  0  2.376932  0
Zn  Zn8  1  0.46236662  0.76295419  0.31253601  1  1.303001  0  0.672867  0.958242  0  2.379695  0
Zn  Zn9  1  0.45264225  0.69195025  0.23114969  1  1.319785  0  0.675441  0.960852  0  2.398479  0
Zn  Zn10  1  0.62578237  0.69292012  0.22985979  1  1.311996  0  0.67044  0.961405  0  2.360782  0
Zn  Zn11  1  0.45898648  0.85103959  0.22612297  1  1.31824  0  0.672722  0.96268  0  2.368484  0
Zn  Zn12  1  0.03697366  0.89951205  0.02449100  1  1.314882  0  0.673234  0.958204  0  2.383685  0
Zn  Zn13  1  0.04953563  0.05660809  0.01884985  1  1.318814  0  0.673286  0.958645  0  2.376459  0
Zn  Zn14  1  0.87503610  0.05838247  0.01951979  1  1.308493  0  0.670402  0.959126  0  2.382133  0
Zn  Zn15  1  0.03763558  0.98526251  0.93746363  1  1.309966  0  0.671419  0.96071  0  2.371932  0
H  H16  1  0.81368428  0.24352084  0.65204746  1  0.140416  0  0.11581  0.14615  0  0.983  0
H  H17  1  0.54174325  0.48462964  0.62113749  1  0.037046  0  0.099098  0.109629  0  0.979514  0
H  H18  1  0.54696024  0.52474016  0.66657385  1  0.026241  0  0.100107  0.111717  0  0.977284  0
H  H19  1  0.64453468  0.57156420  0.61849129  1  0.052928  0  0.101518  0.113949  0  0.974631  0
H  H20  1  0.63921884  0.53146423  0.57310283  1  0.048549  0  0.099236  0.10942  0  0.981538  0
H  H21  1  0.29091700  0.60033757  0.29582609  1  0.141123  0  0.118164  0.149751  0  0.977821  0
H  H22  1  0.35266922  0.67415650  0.43194452  1  0.061422  0  0.096704  0.104753  0  0.986084  0
H  H23  1  0.26187118  0.76242866  0.42929637  1  0.031481  0  0.099799  0.110941  0  0.977961  0
H  H24  1  0.16545241  0.71378868  0.47668302  1  0.06405  0  0.100686  0.11254  0  0.976227  0
H  H25  1  0.25612575  0.62556386  0.47936759  1  0.059949  0  0.100957  0.113026  0  0.97512  0
H  H26  1  0.81329835  0.60015838  0.29579411  1  0.138603  0  0.11573  0.145557  0  0.982932  0
H  H27  1  0.54638745  0.76254574  0.42917584  1  0.082806  0  0.10017  0.111224  0  0.977061  0
H  H28  1  0.54114808  0.67433457  0.43180367  1  0.067357  0  0.09755  0.10584  0  0.984259  0
H  H29  1  0.63882890  0.62553934  0.47915127  1  0.056569  0  0.098713  0.109005  0  0.981723  0
H  H30  1  0.64406452  0.71371110  0.47660193  1  0.058041  0  0.101219  0.114123  0  0.975209  0
H  H31  1  0.30429939  0.45900792  0.64538877  1  0.140633  0  0.11549  0.145455  0  0.983101  0
H  H32  1  0.33315209  0.17792159  0.63081454  1  0.069095  0  0.099093  0.109511  0  0.979363  0
H  H33  1  0.24241862  0.21786191  0.67627309  1  0.059535  0  0.100578  0.112018  0  0.97673  0
H  H34  1  0.14617585  0.26739112  0.62811055  1  0.056566  0  0.102528  0.115535  0  0.973113  0
H  H35  1  0.23697065  0.22740736  0.58273310  1  0.07374  0  0.101194  0.113424  0  0.975409  0
H  H36  1  0.68656645  0.14993869  0.95434756  1  0.134685  0  0.116298  0.146296  0  0.981363  0
H  H37  1  0.95826215  0.07600436  0.81821741  1  0.076946  0  0.099266  0.109125  0  0.978487  0
H  H38  1  0.95305132  0.98776792  0.82086545  1  0.038503  0  0.099442  0.109509  0  0.979366  0
H  H39  1  0.85544668  0.03646919  0.77347151  1  0.049679  0  0.101855  0.114789  0  0.974343  0
H  H40  1  0.86071741  0.12462109  0.77084460  1  0.057535  0  0.100936  0.113293  0  0.975425  0
H  H41  1  0.19558581  0.05243630  0.84326870  1  0.094171  0  0.115103  0.14462  0  0.98404  0
H  H42  1  0.16680495  0.21475458  0.97656130  1  0.050554  0  0.100546  0.111616  0  0.977133  0
H  H43  1  0.25768096  0.12658884  0.97919941  1  0.067383  0  0.098301  0.107121  0  0.983259  0
H  H44  1  0.35372503  0.17414686  0.93038173  1  0.064303  0  0.102994  0.116428  0  0.972216  0
H  H45  1  0.26290601  0.26225054  0.92776711  1  0.027345  0  0.101258  0.113657  0  0.975592  0
H  H46  1  0.19560033  0.79132695  0.10451387  1  0.14551  0  0.116521  0.146721  0  0.981718  0
H  H47  1  0.25775217  0.03232632  0.07365773  1  0.052823  0  0.097707  0.105925  0  0.984341  0
H  H48  1  0.16679146  0.07246377  0.11904155  1  0.072704  0  0.09983  0.110855  0  0.977349  0
H  H49  1  0.26277931  0.02296409  0.16724741  1  0.070105  0  0.101692  0.11446  0  0.97511  0
H  H50  1  0.35368163  0.98287231  0.12192444  1  0.062517  0  0.102326  0.115623  0  0.973189  0
H  H51  1  0.68628751  0.00645666  0.09789350  1  0.140266  0  0.116291  0.146841  0  0.981155  0
H  H52  1  0.95307276  0.72521735  0.08341571  1  0.025302  0  0.099943  0.111162  0  0.977361  0
H  H53  1  0.95829445  0.76534913  0.12884339  1  0.038331  0  0.100295  0.111449  0  0.977632  0
H  H54  1  0.86085505  0.71859853  0.17687320  1  0.053187  0  0.101843  0.114074  0  0.974674  0
H  H55  1  0.85555926  0.67839505  0.13150433  1  0.050488  0  0.100612  0.112071  0  0.976939  0
C  C56  1  0.86218623  0.56842311  0.43090939  1  1.566488  0  0.226423  0.623989  0  4.180795  0
C  C57  1  0.12308989  0.31609338  0.43855171  1  1.577313  0  0.215663  0.623292  0  4.22651  0
C  C58  1  0.86315633  0.43028057  0.56874273  1  1.571136  0  0.22735  0.627059  0  4.175095  0
C  C59  1  0.13826729  0.43188111  0.56863948  1  1.579961  0  0.227608  0.62641  0  4.177352  0
C  C60  1  0.87627220  0.68365705  0.56091550  1  1.58381  0  0.218207  0.632262  0  4.216796  0
C  C61  1  0.13781910  0.56903787  0.43081152  1  1.563415  0  0.227233  0.624247  0  4.180075  0
C  C62  1  0.63957048  0.31771930  0.68108960  1  1.571943  0  0.22872  0.608135  0  4.172662  0
C  C63  1  0.37736854  0.43426332  0.81065657  1  1.582026  0  0.216743  0.628146  0  4.219144  0
C  C64  1  0.63672805  0.18152811  0.81944655  1  1.570433  0  0.227327  0.626696  0  4.176453  0
C  C65  1  0.36165027  0.18111754  0.81840230  1  1.572933  0  0.22857  0.628604  0  4.171739  0
C  C66  1  0.62353762  0.06638741  0.68869384  1  1.571704  0  0.216956  0.629995  0  4.216641  0
C  C67  1  0.36273951  0.32026142  0.68063837  1  1.566466  0  0.228639  0.607729  0  4.170194  0
C  C68  1  0.36247794  0.68015120  0.31861498  1  1.565224  0  0.229308  0.608329  0  4.1729  0
C  C69  1  0.62227675  0.56611083  0.18864693  1  1.559768  0  0.215681  0.627225  0  4.225839  0
C  C70  1  0.63912667  0.68028130  0.31824337  1  1.578251  0  0.227711  0.608065  0  4.17215  0
C  C71  1  0.63685678  0.81948188  0.18094459  1  1.574245  0  0.227508  0.627234  0  4.174259  0
C  C72  1  0.37733910  0.93260377  0.31182964  1  1.554164  0  0.216739  0.630795  0  4.217872  0
C  C73  1  0.36164637  0.81852011  0.18115321  1  1.575909  0  0.226753  0.624655  0  4.17853  0
C  C74  1  0.13787109  0.92991672  0.06891668  1  1.565619  0  0.228657  0.608446  0  4.170318  0
C  C75  1  0.87917399  0.18360154  0.06114351  1  1.62077  0  0.216454  0.628106  0  4.222145  0
C  C76  1  0.86043553  0.93241545  0.06905504  1  1.572727  0  0.229036  0.608879  0  4.171326  0
C  C77  1  0.86075388  0.06961697  0.93167069  1  1.576702  0  0.228096  0.607687  0  4.171718  0
C  C78  1  0.12176405  0.81594686  0.93927679  1  1.578932  0  0.215856  0.627785  0  4.220226  0
C  C79  1  0.13789991  0.06811053  0.93034678  1  1.567469  0  0.22948  0.609964  0  4.169949  0
C  C80  1  0.73888773  0.80294113  0.60100287  1  0.528874  0  0.102031  0.254439  0  4.073715  0
C  C81  1  0.76091798  0.94691323  0.64902244  1  0.571813  0  0.103276  0.257146  0  4.068943  0
C  C82  1  0.82655127  0.75817267  0.58604826  1  -0.085666  0  -0.033658  -0.243056  0  3.960067  0
C  C83  1  0.67319653  0.99170556  0.66389564  1  -0.11394  0  -0.035301  -0.245708  0  3.964283  0
C  C84  1  0.78564968  0.87802533  0.62602037  1  -0.109054  0  -0.029861  -0.121455  0  4.122336  0
C  C85  1  0.71424126  0.87185874  0.62395074  1  -0.109108  0  -0.029828  -0.119563  0  4.122876  0
C  C86  1  0.20200806  0.22605730  0.36974504  1  0.625434  0  0.105107  0.257518  0  4.068428  0
C  C87  1  0.29834317  0.02298394  0.38046624  1  0.515236  0  0.103461  0.257758  0  4.068846  0
C  C88  1  0.17235859  0.24151935  0.41363835  1  -0.150084  0  -0.033687  -0.242724  0  3.96292  0
C  C89  1  0.32806677  0.00728726  0.33661429  1  -0.052195  0  -0.036014  -0.248024  0  3.967744  0
C  C90  1  0.25236799  0.10243764  0.39289931  1  -0.093854  0  -0.030562  -0.121787  0  4.125775  0
C  C91  1  0.24807050  0.14654935  0.35727116  1  -0.118736  0  -0.029461  -0.119614  0  4.11986  0
C  C92  1  0.69599203  0.34626361  0.65255821  1  0.064708  0  -0.010428  -0.047736  0  3.993702  0
C  C93  1  0.80761374  0.40072566  0.59726204  1  0.08592  0  -0.018784  -0.189616  0  3.949662  0
C  C94  1  0.66465103  0.41859496  0.63642993  1  -0.046575  0  -0.00865  0.045665  0  3.895614  0
C  C95  1  0.83795163  0.32746191  0.61409243  1  0.453314  0  0.107943  0.280957  0  4.028644  0
C  C96  1  0.71877623  0.44434020  0.60982972  1  -0.050051  0  0.00059  0.084166  0  3.888689  0
C  C97  1  0.78508733  0.30068319  0.64057738  1  -0.038121  0  -0.095043  -0.234437  0  3.979039  0
C  C98  1  0.58459346  0.49181072  0.63564488  1  0.03712  0  -0.15057  -0.198685  0  3.889402  0
C  C99  1  0.64571236  0.52113820  0.60552440  1  -0.004911  0  -0.148547  -0.197497  0  3.876538  0
C  C100  1  0.30541718  0.65223964  0.34706473  1  0.035384  0  -0.009868  -0.048802  0  3.997224  0
C  C101  1  0.19452849  0.59672926  0.40179651  1  -0.012672  0  -0.019282  -0.190356  0  3.955997  0
C  C102  1  0.28043636  0.66426877  0.39128150  1  0.001037  0  -0.008873  0.045038  0  3.899018  0
C  C103  1  0.22076054  0.58515206  0.35673583  1  0.505057  0  0.10952  0.281328  0  4.03151  0
C  C104  1  0.22705370  0.63737134  0.41739621  1  0.000526  0  -0.00028  0.084007  0  3.893495  0
C  C105  1  0.27387487  0.61160238  0.33015307  1  -0.042205  0  -0.092949  -0.232161  0  3.972405  0
C  C106  1  0.28809998  0.69957267  0.42829916  1  -0.013353  0  -0.150578  -0.196614  0  3.891181  0
C  C107  1  0.22768346  0.66907823  0.45798689  1  -0.020354  0  -0.148083  -0.197273  0  3.87396  0
C  C108  1  0.69545767  0.65225534  0.34685470  1  -0.009154  0  -0.008995  -0.046497  0  3.991585  0
C  C109  1  0.80691274  0.59656683  0.40180708  1  -0.080022  0  -0.018514  -0.18894  0  3.952548  0
C  C110  1  0.66403332  0.66431393  0.39109792  1  -0.001468  0  -0.008804  0.044989  0  3.894995  0
C  C111  1  0.83744748  0.58507729  0.35674808  1  0.515632  0  0.109074  0.280791  0  4.026491  0
C  C112  1  0.71813566  0.63733215  0.41726477  1  0.040647  0  -0.000797  0.084102  0  3.893922  0
C  C113  1  0.78457357  0.61156343  0.33010125  1  0.01423  0  -0.093522  -0.23256  0  3.975403  0
C  C114  1  0.58400581  0.69968399  0.42814518  1  -0.068108  0  -0.149592  -0.194468  0  3.886726  0
C  C115  1  0.64519117  0.66912618  0.45783465  1  -0.0118  0  -0.149854  -0.200745  0  3.879062  0
C  C116  1  0.30536542  0.34849666  0.65257190  1  0.015488  0  -0.009421  -0.04749  0  3.990983  0
C  C117  1  0.19460914  0.40489559  0.59725748  1  0.027544  0  -0.018583  -0.189569  0  3.951587  0
C  C118  1  0.27289166  0.30483179  0.64023020  1  0.028694  0  -0.007383  0.046962  0  3.893571  0
C  C119  1  0.22819318  0.44828524  0.61035938  1  0.478342  0  0.106774  0.278386  0  4.029086  0
C  C120  1  0.21966902  0.33238487  0.61358709  1  -0.07503  0  -4.1e-05  0.084225  0  3.889317  0
C  C121  1  0.28130258  0.42190443  0.63686351  1  -0.011317  0  -0.095208  -0.233195  0  3.976163  0
C  C122  1  0.27126877  0.22861002  0.64401193  1  -0.04076  0  -0.149459  -0.197123  0  3.887498  0
C  C123  1  0.21100606  0.25964020  0.61386133  1  -0.015402  0  -0.148505  -0.199523  0  3.874564  0
C  C124  1  0.29815344  0.58249352  0.82152083  1  0.568064  0  0.103382  0.255875  0  4.070224  0
C  C125  1  0.20184362  0.66776054  0.92847058  1  0.57484  0  0.103717  0.257268  0  4.068493  0
C  C126  1  0.32781525  0.50886340  0.83560381  1  -0.095554  0  -0.033793  -0.242817  0  3.96063  0
C  C127  1  0.17197921  0.74138775  0.91437493  1  -0.108578  0  -0.034926  -0.244577  0  3.964174  0
C  C128  1  0.24790403  0.60937890  0.89493589  1  -0.161963  0  -0.029266  -0.119732  0  4.120947  0
C  C129  1  0.25213149  0.64083898  0.85507900  1  -0.164072  0  -0.029833  -0.119543  0  4.123425  0
C  C130  1  0.80424970  0.09786890  0.90316217  1  -0.003144  0  -0.008464  -0.045304  0  3.988367  0
C  C131  1  0.69238456  0.15366459  0.84839394  1  -0.010429  0  -0.020083  -0.19155  0  3.953715  0
C  C132  1  0.83543415  0.08594731  0.85892442  1  -0.001796  0  -0.007921  0.04545  0  3.894303  0
C  C133  1  0.66218709  0.16503320  0.89343551  1  0.437415  0  0.107936  0.280104  0  4.028162  0
C  C134  1  0.78122992  0.11297581  0.83278337  1  0.056328  0  0.000152  0.084609  0  3.888388  0
C  C135  1  0.71513981  0.13861186  0.92002764  1  0.013776  0  -0.093558  -0.231525  0  3.972538  0
C  C136  1  0.91543229  0.05063484  0.82188787  1  -0.024124  0  -0.148629  -0.194033  0  3.886311  0
C  C137  1  0.85424582  0.08113742  0.79220220  1  -0.011094  0  -0.148852  -0.20052  0  3.87441  0
C  C138  1  0.19462483  0.09676533  0.90213372  1  0.01056  0  -0.009798  -0.047556  0  3.990275  0
C  C139  1  0.30514666  0.15185131  0.84623059  1  0.040531  0  -0.019641  -0.190182  0  3.9506  0
C  C140  1  0.22699436  0.13726767  0.91775456  1  -0.00931  0  -0.008099  0.045398  0  3.893234  0
C  C141  1  0.27156555  0.11045443  0.83111793  1  0.455473  0  0.107403  0.279435  0  4.03212  0
C  C142  1  0.28010756  0.16358662  0.89066265  1  0.016315  0  0.000931  0.08404  0  3.887551  0
C  C143  1  0.21854584  0.08379301  0.85757258  1  -0.00173  0  -0.09487  -0.232939  0  3.978266  0
C  C144  1  0.22865641  0.16967432  0.95775800  1  -0.027057  0  -0.150208  -0.195949  0  3.887541  0
C  C145  1  0.28885841  0.19944442  0.92717537  1  0.022076  0  -0.148629  -0.199926  0  3.87202  0
C  C146  1  0.64361598  0.44688203  0.14899307  1  0.571441  0  0.104835  0.257444  0  4.068813  0
C  C147  1  0.85753609  0.30278930  0.10089584  1  0.530971  0  0.102523  0.256214  0  4.070301  0
C  C148  1  0.67199287  0.49143641  0.16382782  1  -0.060693  0  -0.034154  -0.244274  0  3.964403  0
C  C149  1  0.82939922  0.25813454  0.08599701  1  -0.110914  0  -0.035373  -0.246133  0  3.967216  0
C  C150  1  0.79044570  0.37163320  0.12387771  1  -0.103078  0  -0.030214  -0.120513  0  4.12676  0
C  C151  1  0.71072099  0.37793104  0.12599372  1  -0.135705  0  -0.029348  -0.120492  0  4.121655  0
C  C152  1  0.19472593  0.90180500  0.09722635  1  -0.020053  0  -0.008905  -0.047544  0  3.995001  0
C  C153  1  0.30513680  0.84553606  0.15266760  1  0.024343  0  -0.018084  -0.188522  0  3.950574  0
C  C154  1  0.22703760  0.94552088  0.10966299  1  0.023784  0  -0.008642  0.04489  0  3.897996  0
C  C155  1  0.27161562  0.80206008  0.13956583  1  0.446185  0  0.108528  0.279948  0  4.027305  0
C  C156  1  0.28008417  0.91802848  0.13636872  1  -0.03547  0  0.0005  0.085266  0  3.892141  0
C  C157  1  0.21860553  0.82846194  0.11299863  1  0.028517  0  -0.094266  -0.232588  0  3.973658  0
C  C158  1  0.22866420  0.02173070  0.10591117  1  -0.036658  0  -0.149382  -0.194692  0  3.890103  0
C  C159  1  0.28880743  0.99071224  0.13612255  1  -0.023852  0  -0.148403  -0.20071  0  3.875075  0
C  C160  1  0.80403153  0.90368509  0.09738327  1  0.063781  0  -0.010107  -0.047495  0  3.993134  0
C  C161  1  0.69239036  0.84922807  0.15263691  1  0.081719  0  -0.018764  -0.189891  0  3.9496  0
C  C162  1  0.83538795  0.83135433  0.11351607  1  -0.04499  0  -0.00816  0.045794  0  3.895819  0
C  C163  1  0.66205213  0.92255189  0.13586765  1  0.457536  0  0.108355  0.281646  0  4.027066  0
C  C164  1  0.78123770  0.80559348  0.14009443  1  -0.048543  0  0.000786  0.084127  0  3.888263  0
C  C165  1  0.71492246  0.94929309  0.10935320  1  -0.040477  0  -0.094731  -0.234091  0  3.976222  0
C  C166  1  0.91544481  0.75817669  0.11433706  1  0.036985  0  -0.149828  -0.197936  0  3.887691  0
C  C167  1  0.85433387  0.72885554  0.14445934  1  -0.004482  0  -0.148334  -0.197861  0  3.875388  0
S  S168  1  0.88071767  0.80069560  0.60024235  1  0.314169  0  0.09903  0.179199  0  2.748472  0
S  S169  1  0.61911880  0.94914734  0.64965268  1  0.313736  0  0.097279  0.177002  0  2.750004  0
S  S170  1  0.20094474  0.15757033  0.44053801  1  0.311293  0  0.09691  0.176373  0  2.752541  0
S  S171  1  0.29955260  0.09124930  0.30965961  1  0.31887  0  0.100134  0.180569  0  2.747412  0
S  S172  1  0.29930513  0.51032623  0.89104458  1  0.363614  0  0.100449  0.180162  0  2.747729  0
S  S173  1  0.20061793  0.73987655  0.85892916  1  0.358735  0  0.097063  0.175727  0  2.75192  0
S  S174  1  0.78282644  0.44877686  0.14956363  1  0.297094  0  0.097069  0.176739  0  2.752875  0
S  S175  1  0.71848860  0.30076816  0.10025268  1  0.335543  0  0.100519  0.181697  0  2.747489  0
O  O176  1  0.99898468  0.50042491  0.50063034  1  -1.230984  0  -0.571004  -1.03146  0  2.534344  0
O  O177  1  0.82352844  0.58439356  0.47079276  1  -1.159679  0  -0.311424  -0.54201  0  2.315054  0
O  O178  1  0.10303589  0.37595216  0.41766911  1  -1.161935  0  -0.308568  -0.522414  0  2.329973  0
O  O179  1  0.94328143  0.38686453  0.55873676  1  -1.156332  0  -0.313589  -0.542756  0  2.371318  0
O  O180  1  0.94220511  0.53114155  0.41415522  1  -1.151025  0  -0.3102  -0.535403  0  2.378504  0
O  O181  1  0.82420193  0.49792128  0.55671417  1  -1.167113  0  -0.311469  -0.54041  0  2.314821  0
O  O182  1  0.10520238  0.31335953  0.47911459  1  -1.149747  0  -0.319323  -0.545374  0  2.318739  0
O  O183  1  0.11573464  0.38394614  0.55955916  1  -1.163331  0  -0.310046  -0.536268  0  2.315248  0
O  O184  1  0.95728450  0.65621038  0.55111378  1  -1.139965  0  -0.318613  -0.543542  0  2.320384  0
O  O185  1  0.11734283  0.49900616  0.55564363  1  -1.16722  0  -0.314554  -0.545536  0  2.370797  0
O  O186  1  0.83474142  0.65394187  0.55135711  1  -1.159692  0  -0.313951  -0.536939  0  2.320584  0
O  O187  1  0.11268198  0.53086040  0.41414369  1  -1.154254  0  -0.310967  -0.537024  0  2.376964  0
O  O188  1  0.11917038  0.58636782  0.47064248  1  -1.148341  0  -0.310625  -0.53943  0  2.315911  0
O  O189  1  0.50042023  0.25015080  0.74992956  1  -1.213505  0  -0.571053  -1.030875  0  2.535571  0
O  O190  1  0.67522315  0.25059557  0.69402285  1  -1.175243  0  -0.313399  -0.54149  0  2.332861  0
O  O191  1  0.39802389  0.43562046  0.77025077  1  -1.13998  0  -0.313451  -0.5333  0  2.324994  0
O  O192  1  0.55654215  0.21852536  0.83603462  1  -1.158198  0  -0.314625  -0.545926  0  2.370505  0
O  O193  1  0.55965655  0.36372478  0.69014961  1  -1.166429  0  -0.308034  -0.534895  0  2.332048  0
O  O194  1  0.67570271  0.16530928  0.77962861  1  -1.16419  0  -0.309915  -0.537081  0  2.31906  0
O  O195  1  0.39487830  0.37487498  0.83232969  1  -1.171061  0  -0.317972  -0.543154  0  2.318536  0
O  O196  1  0.38441782  0.21860603  0.83775139  1  -1.166612  0  -0.309424  -0.537142  0  2.313213  0
O  O197  1  0.54243028  0.09517683  0.69747130  1  -1.142456  0  -0.318411  -0.543097  0  2.320353  0
O  O198  1  0.38258447  0.16700153  0.77833598  1  -1.16316  0  -0.314615  -0.545755  0  2.369305  0
O  O199  1  0.66503828  0.09533627  0.69907389  1  -1.160483  0  -0.314122  -0.53646  0  2.32415  0
O  O200  1  0.38799240  0.36557923  0.69008816  1  -1.168  0  -0.31415  -0.541608  0  2.331454  0
O  O201  1  0.38177633  0.25251422  0.69279105  1  -1.169204  0  -0.30791  -0.535306  0  2.329986  0
O  O202  1  0.50082506  0.74983371  0.25001380  1  -1.218396  0  -0.571452  -1.030027  0  2.536008  0
O  O203  1  0.38754716  0.71675234  0.33693534  1  -1.174947  0  -0.309788  -0.539888  0  2.330124  0
O  O204  1  0.54153624  0.59496540  0.19870249  1  -1.138984  0  -0.310164  -0.526665  0  2.329667  0
O  O205  1  0.67491072  0.66595406  0.27821767  1  -1.175629  0  -0.313797  -0.542272  0  2.330624  0
O  O206  1  0.38150469  0.66525313  0.27864999  1  -1.162602  0  -0.310615  -0.534017  0  2.33723  0
O  O207  1  0.55918730  0.71649478  0.33668981  1  -1.170033  0  -0.308939  -0.537229  0  2.332969  0
O  O208  1  0.66560329  0.59484687  0.19770437  1  -1.161113  0  -0.319173  -0.547237  0  2.320618  0
O  O209  1  0.67580498  0.75143495  0.19251942  1  -1.165864  0  -0.311379  -0.540469  0  2.317064  0
O  O210  1  0.39512458  0.93547873  0.27129610  1  -1.139722  0  -0.317971  -0.54325  0  2.321583  0
O  O211  1  0.55672112  0.86297202  0.19122148  1  -1.157594  0  -0.313421  -0.542911  0  2.370501  0
O  O212  1  0.39744293  0.87257451  0.33267361  1  -1.164874  0  -0.314932  -0.536768  0  2.324013  0
O  O213  1  0.38266664  0.75129424  0.19396629  1  -1.16148  0  -0.312882  -0.541595  0  2.37824  0
O  O214  1  0.38435228  0.86625466  0.19034994  1  -1.160395  0  -0.309805  -0.537017  0  2.31443  0
O  O215  1  0.99990609  0.00001506  0.99991886  1  -1.223159  0  -0.571408  -1.029393  0  2.536939  0
O  O216  1  0.11171253  0.88505570  0.05987546  1  -1.169526  0  -0.313653  -0.540815  0  2.333396  0
O  O217  1  0.96008686  0.15397701  0.05124298  1  -1.161822  0  -0.314426  -0.53593  0  2.326912  0
O  O218  1  0.82475581  0.99998121  0.05660668  1  -1.17387  0  -0.314143  -0.541465  0  2.333304  0
O  O219  1  0.12018403  0.99711354  0.05611254  1  -1.167288  0  -0.308453  -0.536729  0  2.330818  0
O  O220  1  0.94033125  0.88630471  0.05969836  1  -1.168292  0  -0.307248  -0.535103  0  2.332533  0
O  O221  1  0.83552034  0.15550385  0.05181485  1  -1.171147  0  -0.318998  -0.543478  0  2.326208  0
O  O222  1  0.82505069  0.08502527  0.97164380  1  -1.173133  0  -0.312668  -0.539301  0  2.334342  0
O  O223  1  0.10272761  0.87534833  0.91753870  1  -1.174201  0  -0.319682  -0.545768  0  2.321508  0
O  O224  1  0.94065581  0.03211768  0.91330776  1  -1.171113  0  -0.309635  -0.539188  0  2.330096  0
O  O225  1  0.10191453  0.81471510  0.97968580  1  -1.131136  0  -0.312703  -0.532483  0  2.327463  0
O  O226  1  0.12009704  0.08272022  0.97031934  1  -1.161537  0  -0.308592  -0.536951  0  2.330304  0
O  O227  1  0.11210575  0.03173202  0.91245353  1  -1.172224  0  -0.313727  -0.541889  0  2.329742  0
F  F228  1  0.68160320  0.78430216  0.59476614  1  -0.61817  0  -0.08805  -0.106515  0  1.349552  0
F  F229  1  0.81803004  0.96567731  0.65532084  1  -0.616857  0  -0.086718  -0.104464  0  1.347579  0
F  F230  1  0.18943057  0.27972882  0.34130607  1  -0.612029  0  -0.081256  -0.097425  0  1.350343  0
F  F231  1  0.31087888  0.96930766  0.40902289  1  -0.621856  0  -0.088445  -0.107114  0  1.348276  0
F  F232  1  0.31072767  0.59850380  0.78043447  1  -0.620327  0  -0.086299  -0.104082  0  1.349059  0
F  F233  1  0.18912909  0.65182219  0.96955545  1  -0.620866  0  -0.085108  -0.102995  0  1.349266  0
F  F234  1  0.56150777  0.46574278  0.15530360  1  -0.61597  0  -0.081392  -0.097641  0  1.350622  0
F  F235  1  0.93976059  0.28393955  0.09460378  1  -0.61873  0  -0.086658  -0.105165  0  1.347453  0
F  F236  1  0.92293214  0.27874730  0.60471270  1  -0.627078  0  -0.105731  -0.141751  0  1.344393  0
F  F237  1  0.19404806  0.54661630  0.33715063  1  -0.628173  0  -0.099785  -0.133666  0  1.347667  0
F  F238  1  0.92230540  0.54646531  0.33717739  1  -0.627042  0  -0.101122  -0.134865  0  1.346049  0
F  F239  1  0.20935784  0.51984286  0.59692180  1  -0.622127  0  -0.105846  -0.141388  0  1.344791  0
F  F240  1  0.57721315  0.20351776  0.91309424  1  -0.630652  0  -0.105332  -0.140802  0  1.344196  0
F  F241  1  0.29042033  0.09474885  0.78863264  1  -0.623354  0  -0.104719  -0.140145  0  1.34572  0
F  F242  1  0.29044030  0.73058576  0.15296705  1  -0.621404  0  -0.101985  -0.135969  0  1.346316  0
F  F243  1  0.57707564  0.97126625  0.14533513  1  -0.626506  0  -0.105147  -0.141169  0  1.343846  0
