# generated using pymatgen
data_CuH9C11N3(OF)3
_symmetry_space_group_name_H-M   'P 1'
_cell_length_a   8.73441539
_cell_length_b   9.10625449
_cell_length_c   9.13448721
_cell_angle_alpha   68.12413431
_cell_angle_beta   85.74932246
_cell_angle_gamma   70.07465904
_symmetry_Int_Tables_number   1
_chemical_formula_structural   CuH9C11N3(OF)3
_chemical_formula_sum   'Cu2 H18 C22 N6 O6 F6'
_cell_volume   632.69648446
_cell_formula_units_Z   2
loop_
 _symmetry_equiv_pos_site_id
 _symmetry_equiv_pos_as_xyz
  1  'x, y, z'
loop_
 _atom_site_type_symbol
 _atom_site_label
 _atom_site_symmetry_multiplicity
 _atom_site_fract_x
 _atom_site_fract_y
 _atom_site_fract_z
 _atom_site_occupancy
 _atom_site_hle17_bader_spin_density
 _atom_site_hle17_ddec_charge
 _atom_site_hle17_ddec_spin_density
 _atom_site_hle17_ddec_sum_bond_order
 _atom_site_hle17_magmom
 _atom_site_hse06_10hf_bader_spin_density
 _atom_site_hse06_10hf_ddec_charge
 _atom_site_hse06_10hf_ddec_spin_density
 _atom_site_hse06_10hf_ddec_sum_bond_order
 _atom_site_hse06_10hf_magmom
 _atom_site_hse06_bader_spin_density
 _atom_site_hse06_ddec_charge
 _atom_site_hse06_ddec_spin_density
 _atom_site_hse06_ddec_sum_bond_order
 _atom_site_hse06_magmom
 _atom_site_pbe_bader_spin_density
 _atom_site_pbe_cm5_charge
 _atom_site_pbe_ddec_charge
 _atom_site_pbe_ddec_spin_density
 _atom_site_pbe_ddec_sum_bond_order
 _atom_site_pbe_magmom
Cu  Cu0  1  0.16955893  0.49320666  0.39094479  1  0  0.635446  0  1.870937  0  0  0.589528  0  2.309509  0  0  0.591141  0  2.271627  0  0  0.597802  0.588661  0  2.335286  0
Cu  Cu1  1  0.83043851  0.50679503  0.60905258  1  0  0.635456  0  1.870989  0  0  0.589583  0  2.309459  0  0  0.591128  0  2.271551  0  0  0.597798  0.588707  0  2.335229  0
H  H2  1  0.51016903  0.88881173  0.17195736  1  0  0.114044  0  0.953853  0  0  0.123429  0  1.015437  0  0  0.126247  0  1.014527  0  0  0.107749  0.121464  0  1.015947  0
H  H3  1  0.48983424  0.11118617  0.82804095  1  0  0.113997  0  0.953897  0  0  0.12339  0  1.015494  0  0  0.12623  0  1.014558  0  0  0.10772  0.121424  0  1.016006  0
H  H4  1  0.76476226  0.96267993  0.14476722  1  0  0.094726  0  0.956477  0  0  0.106468  0  1.014072  0  0  0.10944  0  1.012454  0  0  0.100996  0.104378  0  1.015215  0
H  H5  1  0.23523838  0.03731916  0.85524290  1  0  0.094782  0  0.956402  0  0  0.106503  0  1.014042  0  0  0.109478  0  1.012421  0  0  0.101041  0.104415  0  1.015183  0
H  H6  1  0.78596949  0.17831208  0.23586650  1  0  0.096088  0  0.952256  0  0  0.104473  0  1.015726  0  0  0.107734  0  1.013881  0  0  0.09958  0.102043  0  1.017178  0
H  H7  1  0.21403238  0.82168323  0.76414601  1  0  0.095613  0  0.952858  0  0  0.104435  0  1.015719  0  0  0.107695  0  1.013873  0  0  0.099536  0.102006  0  1.017172  0
H  H8  1  0.54698676  0.34298756  0.34722056  1  0  0.119156  0  0.973246  0  0  0.127532  0  1.039948  0  0  0.130844  0  1.037508  0  0  0.10735  0.125014  0  1.041952  0
H  H9  1  0.45300925  0.65701158  0.65278551  1  0  0.119101  0  0.973355  0  0  0.127485  0  1.040075  0  0  0.1308  0  1.037626  0  0  0.107345  0.124965  0  1.042079  0
H  H10  1  0.33305923  0.75193537  0.37678000  1  0  0.09077  0  0.938001  0  0  0.102579  0  1.002596  0  0  0.103664  0  1.001693  0  0  0.109537  0.101691  0  1.003363  0
H  H11  1  0.66693780  0.24806758  0.62321693  1  0  0.09079  0  0.937948  0  0  0.102552  0  1.002585  0  0  0.103634  0  1.00168  0  0  0.109526  0.101664  0  1.003353  0
H  H12  1  0.15023346  0.80861255  0.48039770  1  0  0.075146  0  0.930616  0  0  0.080077  0  1.00505  0  0  0.080807  0  1.004015  0  0  0.103133  0.07953  0  1.005731  0
H  H13  1  0.84976680  0.19138407  0.51960570  1  0  0.075185  0  0.930561  0  0  0.080074  0  1.005048  0  0  0.080803  0  1.004013  0  0  0.10314  0.079529  0  1.005728  0
H  H14  1  0.98493659  0.78930477  0.27886192  1  0  0.099352  0  0.95837  0  0  0.108563  0  1.020247  0  0  0.110154  0  1.020342  0  0  0.099339  0.107398  0  1.020267  0
H  H15  1  0.01506587  0.21069564  0.72113773  1  0  0.099422  0  0.958446  0  0  0.108649  0  1.02028  0  0  0.110242  0  1.020369  0  0  0.099374  0.107484  0  1.0203  0
H  H16  1  0.32709650  0.63790852  0.16598159  1  0  0.146088  0  0.956293  0  0  0.157337  0  1.019818  0  0  0.159975  0  1.018549  0  0  0.09673  0.155462  0  1.020717  0
H  H17  1  0.67290374  0.36208813  0.83401851  1  0  0.146076  0  0.956305  0  0  0.157334  0  1.019819  0  0  0.159968  0  1.01855  0  0  0.096731  0.155458  0  1.020719  0
H  H18  1  0.12726402  0.65169276  0.09367447  1  0  0.146228  0  0.974108  0  0  0.148699  0  1.048272  0  0  0.152528  0  1.044783  0  0  0.088708  0.146  0  1.050821  0
H  H19  1  0.87273343  0.34830892  0.90632399  1  0  0.146877  0  0.973505  0  0  0.148716  0  1.048274  0  0  0.15254  0  1.044786  0  0  0.08872  0.146017  0  1.050821  0
C  C20  1  0.25946422  0.43640569  0.69405143  1  0  0.473427  0  4.036749  0  0  0.427894  0  4.331159  0  0  0.455716  0  4.326719  0  0  0.188206  0.409068  0  4.333893  0
C  C21  1  0.74053352  0.56359854  0.30593950  1  0  0.473739  0  4.035645  0  0  0.427653  0  4.331512  0  0  0.455463  0  4.327093  0  0  0.18813  0.408835  0  4.334242  0
C  C22  1  0.23256833  0.41570533  0.87000178  1  0  0.670702  0  3.638587  0  0  0.604574  0  3.97049  0  0  0.632106  0  3.944162  0  0  0.297114  0.584945  0  3.989139  0
C  C23  1  0.76743440  0.58429765  0.12998705  1  0  0.672853  0  3.635293  0  0  0.604766  0  3.970368  0  0  0.632313  0  3.944019  0  0  0.297197  0.585118  0  3.989042  0
C  C24  1  0.39129220  0.07322497  0.27856166  1  0  0.057092  0  3.816825  0  0  0.04429  0  4.069413  0  0  0.047243  0  4.091275  0  0  0.101667  0.042477  0  4.054136  0
C  C25  1  0.60870763  0.92677294  0.72143801  1  0  0.057123  0  3.816857  0  0  0.044308  0  4.069491  0  0  0.047261  0  4.091362  0  0  0.101666  0.04249  0  4.05422  0
C  C26  1  0.52076895  0.98375274  0.21178638  1  0  -0.125282  0  3.737089  0  0  -0.147536  0  3.996946  0  0  -0.150795  0  4.016801  0  0  -0.091454  -0.145061  0  3.982832  0
C  C27  1  0.47923280  0.01624638  0.78821818  1  0  -0.125234  0  3.737053  0  0  -0.147488  0  3.996918  0  0  -0.150758  0  4.016748  0  0  -0.091442  -0.145019  0  3.982823  0
C  C28  1  0.66079295  0.02621602  0.19832336  1  0  -0.044253  0  3.726747  0  0  -0.063193  0  3.983292  0  0  -0.06393  0  4.004867  0  0  -0.085366  -0.062855  0  3.968784  0
C  C29  1  0.33920722  0.97378438  0.80167865  1  0  -0.044356  0  3.726757  0  0  -0.063273  0  3.983371  0  0  -0.064014  0  4.004951  0  0  -0.085383  -0.062935  0  3.968859  0
C  C30  1  0.67199186  0.15170548  0.24928705  1  0  -0.062404  0  3.731751  0  0  -0.079827  0  3.987164  0  0  -0.083628  0  4.010393  0  0  -0.09245  -0.077372  0  3.971624  0
C  C31  1  0.32801075  0.84829109  0.75072495  1  0  -0.062517  0  3.732314  0  0  -0.079801  0  3.987192  0  0  -0.083615  0  4.010451  0  0  -0.092463  -0.077347  0  3.971652  0
C  C32  1  0.54174810  0.24236420  0.31239371  1  0  -0.125412  0  3.709362  0  0  -0.146822  0  3.960075  0  0  -0.148019  0  3.980402  0  0  -0.087261  -0.146229  0  3.946715  0
C  C33  1  0.45825028  0.75763116  0.68761248  1  0  -0.125262  0  3.709379  0  0  -0.146635  0  3.96003  0  0  -0.147832  0  3.980354  0  0  -0.087156  -0.14604  0  3.946666  0
C  C34  1  0.39910849  0.20133675  0.32572324  1  0  0.116536  0  3.841185  0  0  0.116905  0  4.088166  0  0  0.11642  0  4.111425  0  0  0.092596  0.116984  0  4.072701  0
C  C35  1  0.60088823  0.79866367  0.67427793  1  0  0.116406  0  3.841319  0  0  0.116807  0  4.088323  0  0  0.116319  0  4.111578  0  0  0.092534  0.116888  0  4.072854  0
C  C36  1  0.19981459  0.81167667  0.36564282  1  0  0.050312  0  3.588526  0  0  -0.013189  0  3.863431  0  0  -0.004752  0  3.866454  0  0  -0.074703  -0.018817  0  3.861298  0
C  C37  1  0.80018559  0.18832372  0.63435919  1  0  0.050308  0  3.588608  0  0  -0.013116  0  3.863441  0  0  -0.004674  0  3.866457  0  0  -0.07471  -0.018756  0  3.861314  0
C  C38  1  0.11812470  0.74161980  0.28375885  1  0  -0.098809  0  3.768753  0  0  -0.120211  0  4.072005  0  0  -0.118525  0  4.081626  0  0  -0.170187  -0.121068  0  4.065045  0
C  C39  1  0.88188015  0.25837681  0.71624420  1  0  -0.098972  0  3.769119  0  0  -0.120402  0  4.07229  0  0  -0.118692  0  4.081863  0  0  -0.170214  -0.121255  0  4.06532  0
C  C40  1  0.19676361  0.66130354  0.18185793  1  0  -0.317108  0  3.632148  0  0  -0.376731  0  3.927296  0  0  -0.375258  0  3.931512  0  0  -0.238884  -0.377461  0  3.92428  0
C  C41  1  0.80323736  0.33869437  0.81814056  1  0  -0.316892  0  3.631454  0  0  -0.376682  0  3.927368  0  0  -0.375191  0  3.931572  0  0  -0.23888  -0.377407  0  3.924346  0
N  N42  1  0.23482384  0.07472475  0.30718486  1  0  0.170148  0  3.568094  0  0  0.205506  0  3.861593  0  0  0.202444  0  3.8765  0  0  -0.028291  0.20734  0  3.851371  0
N  N43  1  0.76517361  0.92527692  0.69281469  1  0  0.170089  0  3.568412  0  0  0.205495  0  3.861654  0  0  0.202433  0  3.876564  0  0  -0.028321  0.20732  0  3.851435  0
N  N44  1  0.14875988  0.19322682  0.36320985  1  0  -0.072933  0  2.829786  0  0  -0.076616  0  3.118265  0  0  -0.06912  0  3.123019  0  0  -0.070425  -0.081763  0  3.115489  0
N  N45  1  0.85123715  0.80677613  0.63678708  1  0  -0.073549  0  2.830461  0  0  -0.076566  0  3.118222  0  0  -0.069074  0  3.122973  0  0  -0.070368  -0.081714  0  3.11545  0
N  N46  1  0.24722401  0.27173140  0.37396437  1  0  -0.249141  0  3.273018  0  0  -0.211227  0  3.604528  0  0  -0.21619  0  3.607074  0  0  -0.248702  -0.208075  0  3.60345  0
N  N47  1  0.75277269  0.72826903  0.62603460  1  0  -0.249308  0  3.273561  0  0  -0.211307  0  3.60459  0  0  -0.21625  0  3.607094  0  0  -0.248746  -0.208154  0  3.603507  0
O  O48  1  0.13188289  0.45511341  0.61875925  1  0  -0.587053  0  2.211924  0  0  -0.544006  0  2.510546  0  0  -0.565325  0  2.494321  0  0  -0.334219  -0.529133  0  2.521137  0
O  O49  1  0.86811727  0.54488700  0.38124057  1  0  -0.586624  0  2.210898  0  0  -0.54402  0  2.510513  0  0  -0.565338  0  2.494294  0  0  -0.334246  -0.529148  0  2.521102  0
O  O50  1  0.39616428  0.43337351  0.64434387  1  0  -0.537061  0  1.995279  0  0  -0.505078  0  2.22734  0  0  -0.524335  0  2.218851  0  0  -0.299862  -0.4918  0  2.232951  0
O  O51  1  0.60383810  0.56662697  0.35564372  1  0  -0.536841  0  1.995427  0  0  -0.504902  0  2.227633  0  0  -0.52415  0  2.219151  0  0  -0.299783  -0.491627  0  2.233239  0
O  O52  1  0.15644135  0.99244541  0.25931492  1  0  -0.199044  0  2.079434  0  0  -0.146112  0  2.31358  0  0  -0.157036  0  2.31281  0  0  -0.082792  -0.138603  0  2.313914  0
O  O53  1  0.84355653  0.00755500  0.74068616  1  0  -0.19911  0  2.07963  0  0  -0.146119  0  2.31362  0  0  -0.157042  0  2.312849  0  0  -0.082784  -0.138588  0  2.313946  0
F  F54  1  0.11680882  0.55482076  0.88270800  1  0  -0.241095  0  1.187857  0  0  -0.210254  0  1.367126  0  0  -0.219692  0  1.350363  0  0  -0.09592  -0.203211  0  1.378755  0
F  F55  1  0.88318786  0.44517970  0.11728659  1  0  -0.249902  0  1.197198  0  0  -0.210279  0  1.367124  0  0  -0.219718  0  1.350354  0  0  -0.09592  -0.203229  0  1.378757  0
F  F56  1  0.18136590  0.28151348  0.94928707  1  0  -0.255262  0  1.176177  0  0  -0.208641  0  1.338651  0  0  -0.220139  0  1.325251  0  0  -0.095626  -0.200727  0  1.347911  0
F  F57  1  0.81864186  0.71848820  0.05070623  1  0  -0.254745  0  1.175719  0  0  -0.208741  0  1.338576  0  0  -0.220243  0  1.325173  0  0  -0.095667  -0.200816  0  1.347835  0
F  F58  1  0.37100574  0.38964735  0.94889654  1  0  -0.237919  0  1.189047  0  0  -0.198421  0  1.356527  0  0  -0.209724  0  1.344349  0  0  -0.094367  -0.190291  0  1.36503  0
F  F59  1  0.62899590  0.61035558  0.05110115  1  0  -0.236989  0  1.188162  0  0  -0.198408  0  1.356468  0  0  -0.209715  0  1.344287  0  0  -0.094376  -0.190273  0  1.364977  0
