# generated using pymatgen
data_CdH8C12(NO2)2
_symmetry_space_group_name_H-M   'P 1'
_cell_length_a   10.08198304
_cell_length_b   10.21225890
_cell_length_c   12.73260000
_cell_angle_alpha   90.00000000
_cell_angle_beta   105.12712523
_cell_angle_gamma   90.00000000
_symmetry_Int_Tables_number   1
_chemical_formula_structural   CdH8C12(NO2)2
_chemical_formula_sum   'Cd4 H32 C48 N8 O16'
_cell_volume   1265.52087345
_cell_formula_units_Z   4
loop_
 _symmetry_equiv_pos_site_id
 _symmetry_equiv_pos_as_xyz
  1  'x, y, z'
loop_
 _atom_site_type_symbol
 _atom_site_label
 _atom_site_symmetry_multiplicity
 _atom_site_fract_x
 _atom_site_fract_y
 _atom_site_fract_z
 _atom_site_occupancy
 _atom_site_hle17_bader_spin_density
 _atom_site_hle17_ddec_charge
 _atom_site_hle17_ddec_spin_density
 _atom_site_hle17_ddec_sum_bond_order
 _atom_site_hle17_magmom
 _atom_site_hse06_10hf_bader_spin_density
 _atom_site_hse06_10hf_ddec_charge
 _atom_site_hse06_10hf_ddec_spin_density
 _atom_site_hse06_10hf_ddec_sum_bond_order
 _atom_site_hse06_10hf_magmom
 _atom_site_hse06_bader_spin_density
 _atom_site_hse06_ddec_charge
 _atom_site_hse06_ddec_spin_density
 _atom_site_hse06_ddec_sum_bond_order
 _atom_site_hse06_magmom
 _atom_site_pbe_bader_charge
 _atom_site_pbe_bader_spin_density
 _atom_site_pbe_cm5_charge
 _atom_site_pbe_ddec_charge
 _atom_site_pbe_ddec_spin_density
 _atom_site_pbe_ddec_sum_bond_order
 _atom_site_pbe_magmom
Cd  Cd0  1  0.40282003  0.13106503  0.06109463  1  0  1.11534  0  1.715876  0  0  0.9226  0  2.168811  0  0  0.981566  0  2.116592  0  1.281869  0  0.778864  0.880431  0  2.204814  0
Cd  Cd1  1  0.90281930  0.36893503  0.56109488  1  0  1.11534  0  1.715897  0  0  0.922596  0  2.168839  0  0  0.981563  0  2.116619  0  1.281832  0  0.778859  0.880427  0  2.204842  0
Cd  Cd2  1  0.59718159  0.86893508  0.93890570  1  0  1.115322  0  1.715896  0  0  0.92258  0  2.168837  0  0  0.981545  0  2.116618  0  1.281911  0  0.778848  0.880411  0  2.20484  0
Cd  Cd3  1  0.09718130  0.63106508  0.43890525  1  0  1.115333  0  1.715902  0  0  0.922589  0  2.168844  0  0  0.981558  0  2.116624  0  1.281907  0  0.77886  0.88042  0  2.204847  0
H  H4  1  0.04525907  0.14621349  0.42221361  1  0  0.081397  0  0.923833  0  0  0.092477  0  0.981169  0  0  0.094995  0  0.979262  0  0.104855  0  0.117788  0.090557  0  0.982671  0
H  H5  1  0.54525937  0.35378657  0.92221328  1  0  0.081436  0  0.923842  0  0  0.092515  0  0.981178  0  0  0.095033  0  0.979271  0  0.104852  0  0.117814  0.090595  0  0.98268  0
H  H6  1  0.95474152  0.85378662  0.57778651  1  0  0.081432  0  0.923846  0  0  0.092508  0  0.981183  0  0  0.095027  0  0.979277  0  0.104852  0  0.117807  0.090589  0  0.982686  0
H  H7  1  0.45474123  0.64621354  0.07778684  1  0  0.081424  0  0.923845  0  0  0.0925  0  0.981184  0  0  0.095018  0  0.979277  0  0.104846  0  0.117809  0.09058  0  0.982686  0
H  H8  1  0.14689651  0.29523243  0.73543237  1  0  0.091384  0  0.976948  0  0  0.094581  0  1.050355  0  0  0.097997  0  1.046637  0  0.154819  0  0.115821  0.092011  0  1.053194  0
H  H9  1  0.64689681  0.20476762  0.23543204  1  0  0.0914  0  0.976936  0  0  0.094594  0  1.050346  0  0  0.098011  0  1.046626  0  0.154831  0  0.115832  0.092025  0  1.053185  0
H  H10  1  0.85310511  0.70476572  0.26456875  1  0  0.091361  0  0.976947  0  0  0.094576  0  1.050343  0  0  0.097995  0  1.046617  0  0.154825  0  0.1158  0.092005  0  1.053184  0
H  H11  1  0.35310584  0.79523444  0.76456851  1  0  0.09138  0  0.97695  0  0  0.094601  0  1.05034  0  0  0.09802  0  1.046614  0  0.154789  0  0.115808  0.092029  0  1.053181  0
H  H12  1  0.52895238  0.19626902  0.44906688  1  0  0.115729  0  0.920947  0  0  0.129341  0  0.974296  0  0  0.132307  0  0.971642  0  0.130095  0  0.118539  0.127034  0  0.976491  0
H  H13  1  0.02895311  0.30373398  0.94906743  1  0  0.11585  0  0.920944  0  0  0.12944  0  0.974296  0  0  0.132407  0  0.971641  0  0.13006  0  0.11858  0.127132  0  0.976492  0
H  H14  1  0.47104719  0.80373011  0.55093303  1  0  0.11573  0  0.92095  0  0  0.129343  0  0.974299  0  0  0.132308  0  0.971647  0  0.130091  0  0.118529  0.127036  0  0.976494  0
H  H15  1  0.97104543  0.69626613  0.05093227  1  0  0.115836  0  0.920954  0  0  0.129427  0  0.974306  0  0  0.132394  0  0.971651  0  0.130043  0  0.118571  0.12712  0  0.976501  0
H  H16  1  0.38239185  0.97151278  0.66492443  1  0  0.121319  0  0.956178  0  0  0.129029  0  1.020638  0  0  0.133152  0  1.015951  0  0.145542  0  0.112744  0.125987  0  1.02401  0
H  H17  1  0.88239215  0.52848641  0.16492410  1  0  0.121328  0  0.956236  0  0  0.12904  0  1.020682  0  0  0.133164  0  1.015998  0  0.145535  0  0.112747  0.126  0  1.024056  0
H  H18  1  0.61760875  0.02848439  0.33507569  1  0  0.12129  0  0.956236  0  0  0.129011  0  1.020672  0  0  0.133139  0  1.015985  0  0.145574  0  0.112717  0.125968  0  1.024049  0
H  H19  1  0.11760845  0.47151566  0.83507603  1  0  0.121336  0  0.956258  0  0  0.129061  0  1.020677  0  0  0.133188  0  1.015993  0  0.145568  0  0.112748  0.12602  0  1.024055  0
H  H20  1  0.23508332  0.98013379  0.47014409  1  0  0.125458  0  0.943767  0  0  0.135041  0  1.000347  0  0  0.138966  0  0.998745  0  0.138822  0  0.111239  0.13217  0  1.00182  0
H  H21  1  0.73508362  0.51986637  0.97014297  1  0  0.12544  0  0.943748  0  0  0.135029  0  1.000329  0  0  0.138955  0  0.998725  0  0.138814  0  0.111224  0.132161  0  1.001799  0
H  H22  1  0.76491727  0.01986632  0.52985604  1  0  0.125462  0  0.943751  0  0  0.135043  0  1.000334  0  0  0.138968  0  0.998732  0  0.138837  0  0.111246  0.132165  0  1.001816  0
H  H23  1  0.26491697  0.48013373  0.02985637  1  0  0.125445  0  0.943756  0  0  0.135022  0  1.00034  0  0  0.138947  0  0.998738  0  0.138832  0  0.111238  0.13214  0  1.001827  0
H  H24  1  0.18860567  0.43977636  0.28581228  1  0  0.099967  0  0.943499  0  0  0.104796  0  1.010659  0  0  0.108632  0  1.006452  0  0.138657  0  0.118367  0.102  0  1.01359  0
H  H25  1  0.68860700  0.06022370  0.78581216  1  0  0.099971  0  0.943498  0  0  0.1048  0  1.010658  0  0  0.108636  0  1.006452  0  0.138666  0  0.118377  0.102005  0  1.013588  0
H  H26  1  0.81139390  0.56022375  0.71418763  1  0  0.099973  0  0.943487  0  0  0.104803  0  1.010645  0  0  0.108639  0  1.006438  0  0.138662  0  0.118369  0.102008  0  1.013574  0
H  H27  1  0.31139257  0.93977641  0.21418697  1  0  0.099979  0  0.94354  0  0  0.104789  0  1.01072  0  0  0.108625  0  1.006515  0  0.138678  0  0.118367  0.101994  0  1.013648  0
H  H28  1  0.34869594  0.48376466  0.61881097  1  0  0.075078  0  0.939435  0  0  0.08615  0  1.000089  0  0  0.08779  0  0.999117  0  0.093333  0  0.115619  0.084743  0  1.001051  0
H  H29  1  0.84869624  0.01623735  0.11880985  1  0  0.075115  0  0.939393  0  0  0.086186  0  1.00005  0  0  0.087815  0  0.99909  0  0.093368  0  0.115641  0.08478  0  1.001011  0
H  H30  1  0.65130260  0.51623642  0.38118873  1  0  0.075089  0  0.939435  0  0  0.086163  0  1.000087  0  0  0.087802  0  0.999115  0  0.09347  0  0.115627  0.084755  0  1.00105  0
H  H31  1  0.15130333  0.98376178  0.88118928  1  0  0.075098  0  0.939413  0  0  0.086167  0  1.000072  0  0  0.087795  0  0.999112  0  0.09349  0  0.11563  0.08476  0  1.001034  0
H  H32  1  0.52664571  0.30942615  0.62353173  1  0  0.114513  0  0.935554  0  0  0.125497  0  0.989649  0  0  0.128696  0  0.989434  0  0.131488  0  0.11071  0.123201  0  0.989874  0
H  H33  1  0.02664541  0.19057390  0.12353128  1  0  0.114492  0  0.935523  0  0  0.125481  0  0.989624  0  0  0.12868  0  0.989407  0  0.131485  0  0.110695  0.123185  0  0.989849  0
H  H34  1  0.47335284  0.69057395  0.37646797  1  0  0.114502  0  0.935576  0  0  0.125486  0  0.989672  0  0  0.128684  0  0.989457  0  0.131479  0  0.110703  0.123189  0  0.989899  0
H  H35  1  0.97335416  0.80942719  0.87646863  1  0  0.114494  0  0.935542  0  0  0.125487  0  0.989635  0  0  0.128686  0  0.989418  0  0.131481  0  0.1107  0.123191  0  0.989861  0
C  C36  1  0.34190230  0.13024640  0.83366071  1  0  0.636777  0  3.952431  0  0  0.58654  0  4.241915  0  0  0.622214  0  4.235224  0  1.572519  0  0.195136  0.562367  0  4.245296  0
C  C37  1  0.84190260  0.36975365  0.33366195  1  0  0.636719  0  3.952605  0  0  0.586466  0  4.242094  0  0  0.62214  0  4.235406  0  1.572515  0  0.195126  0.562293  0  4.245475  0
C  C38  1  0.65809727  0.86975272  0.16633920  1  0  0.636744  0  3.95264  0  0  0.586481  0  4.242143  0  0  0.622155  0  4.235455  0  1.572478  0  0.195106  0.562307  0  4.24552  0
C  C39  1  0.15809800  0.63024646  0.66633896  1  0  0.636718  0  3.952556  0  0  0.586469  0  4.242053  0  0  0.622142  0  4.235368  0  1.572511  0  0.195127  0.562294  0  4.245433  0
C  C40  1  0.27351177  0.13269346  0.71417324  1  0  -0.121851  0  3.761645  0  0  -0.092722  0  3.993909  0  0  -0.106744  0  4.017797  0  -0.083972  0  -0.018166  -0.083806  0  3.977758  0
C  C41  1  0.77351412  0.36730659  0.21417490  1  0  -0.121869  0  3.76172  0  0  -0.092724  0  3.993967  0  0  -0.106747  0  4.017857  0  -0.083884  0  -0.018184  -0.083808  0  3.977817  0
C  C42  1  0.72648574  0.86730469  0.28582546  1  0  -0.121946  0  3.761784  0  0  -0.092793  0  3.994024  0  0  -0.106818  0  4.017915  0  -0.083715  0  -0.018208  -0.083877  0  3.977873  0
C  C43  1  0.22648647  0.63269548  0.78582600  1  0  -0.121902  0  3.761714  0  0  -0.092762  0  3.993972  0  0  -0.106786  0  4.017864  0  -0.083699  0  -0.018179  -0.083846  0  3.977821  0
C  C44  1  0.11421471  0.14124593  0.50387667  1  0  0.139634  0  3.692449  0  0  0.103309  0  3.951122  0  0  0.112123  0  3.969435  0  0.489143  0  0.051916  0.097761  0  3.938558  0
C  C45  1  0.61421501  0.35875412  0.00387634  1  0  0.139581  0  3.692477  0  0  0.103255  0  3.95115  0  0  0.112069  0  3.969464  0  0.489148  0  0.051887  0.097707  0  3.938586  0
C  C46  1  0.88578589  0.85875418  0.49612346  1  0  0.139569  0  3.692527  0  0  0.103244  0  3.951193  0  0  0.112058  0  3.969508  0  0.489124  0  0.051897  0.097696  0  3.938626  0
C  C47  1  0.38578559  0.64124598  0.99612379  1  0  0.139617  0  3.692478  0  0  0.103291  0  3.951143  0  0  0.112105  0  3.969456  0  0.489113  0  0.051912  0.097743  0  3.938575  0
C  C48  1  0.16923476  0.22465940  0.67838606  1  0  0.116066  0  3.698922  0  0  0.075184  0  3.944454  0  0  0.084089  0  3.962863  0  0.505332  0  0.045469  0.069344  0  3.932553  0
C  C49  1  0.66923608  0.27534163  0.17838594  1  0  0.116072  0  3.698902  0  0  0.075186  0  3.944425  0  0  0.084091  0  3.962835  0  0.505368  0  0.045475  0.069345  0  3.932525  0
C  C50  1  0.83076481  0.77533874  0.32161464  1  0  0.116104  0  3.698829  0  0  0.075196  0  3.944345  0  0  0.084102  0  3.962754  0  0.505194  0  0.045477  0.069359  0  3.93244  0
C  C51  1  0.33076554  0.72466044  0.82161439  1  0  0.116105  0  3.698839  0  0  0.075193  0  3.944359  0  0  0.084099  0  3.962767  0  0.505207  0  0.04547  0.069357  0  3.932452  0
C  C52  1  0.35603722  0.24651451  0.24746536  1  0  0.624829  0  3.970435  0  0  0.577245  0  4.258718  0  0  0.611649  0  4.25419  0  1.564679  0  0.189775  0.554133  0  4.26079  0
C  C53  1  0.85603649  0.25348359  0.74746482  1  0  0.624799  0  3.970475  0  0  0.577209  0  4.258766  0  0  0.611614  0  4.254236  0  1.5647  0  0.189766  0.554097  0  4.260837  0
C  C54  1  0.64396338  0.75348560  0.75253476  1  0  0.624913  0  3.970352  0  0  0.577335  0  4.258625  0  0  0.611739  0  4.254094  0  1.564681  0  0.189799  0.554222  0  4.260698  0
C  C55  1  0.14396205  0.74651456  0.25253409  1  0  0.62483  0  3.970401  0  0  0.577245  0  4.258681  0  0  0.611649  0  4.25415  0  1.564667  0  0.189788  0.554133  0  4.260751  0
C  C56  1  0.35796886  0.30891990  0.35463061  1  0  -0.111705  0  3.751118  0  0  -0.08393  0  3.983976  0  0  -0.097327  0  4.008061  0  -0.020563  0  -0.013151  -0.075719  0  3.968103  0
C  C57  1  0.85796711  0.19108211  0.85463064  1  0  -0.111573  0  3.751125  0  0  -0.083782  0  3.983957  0  0  -0.097179  0  4.008042  0  -0.020599  0  -0.013111  -0.075571  0  3.968081  0
C  C58  1  0.64203071  0.69108021  0.64536852  1  0  -0.111675  0  3.751129  0  0  -0.083899  0  3.983989  0  0  -0.097296  0  4.008073  0  -0.020574  0  -0.013138  -0.075689  0  3.968116  0
C  C59  1  0.14203143  0.80891702  0.14536828  1  0  -0.111551  0  3.751125  0  0  -0.083751  0  3.98394  0  0  -0.097149  0  4.008027  0  -0.020571  0  -0.01309  -0.075541  0  3.968065  0
C  C60  1  0.45371170  0.27212784  0.45097152  1  0  0.005712  0  3.665332  0  0  -0.025761  0  3.914884  0  0  -0.019271  0  3.931367  0  -0.025036  0  -0.052704  -0.029706  0  3.903809  0
C  C61  1  0.95371200  0.22787515  0.95097198  1  0  0.005499  0  3.665439  0  0  -0.02597  0  3.915005  0  0  -0.019481  0  3.931488  0  -0.025033  0  -0.052752  -0.029916  0  3.903932  0
C  C62  1  0.54628787  0.72787226  0.54902839  1  0  0.005666  0  3.665377  0  0  -0.025814  0  3.914937  0  0  -0.019324  0  3.931418  0  -0.025024  0  -0.052717  -0.029759  0  3.903862  0
C  C63  1  0.04628654  0.77212496  0.04902772  1  0  0.005505  0  3.665494  0  0  -0.025961  0  3.91505  0  0  -0.019471  0  3.931534  0  -0.025044  0  -0.052755  -0.029907  0  3.903978  0
C  C64  1  0.30029383  0.04343309  0.63893597  1  0  0.003628  0  3.646347  0  0  -0.02681  0  3.892323  0  0  -0.019916  0  3.907729  0  0.005232  0  -0.054379  -0.030746  0  3.8817  0
C  C65  1  0.80029516  0.45656696  0.13893585  1  0  0.003621  0  3.646344  0  0  -0.026821  0  3.892327  0  0  -0.019931  0  3.907736  0  0.005254  0  -0.054375  -0.030762  0  3.881711  0
C  C66  1  0.69970574  0.95656506  0.36106395  1  0  0.003708  0  3.646387  0  0  -0.026732  0  3.892347  0  0  -0.019845  0  3.90776  0  0.005088  0  -0.054289  -0.030669  0  3.881721  0
C  C67  1  0.19970544  0.54343413  0.86106428  1  0  0.00365  0  3.646414  0  0  -0.026792  0  3.892371  0  0  -0.019906  0  3.907785  0  0.0051  0  -0.054335  -0.030731  0  3.881748  0
C  C68  1  0.21951714  0.04882563  0.53154122  1  0  -0.119675  0  3.700649  0  0  -0.129175  0  3.954064  0  0  -0.138095  0  3.975224  0  -0.070029  0  -0.07798  -0.123617  0  3.940078  0
C  C69  1  0.71951744  0.45117344  0.03154089  1  0  -0.119645  0  3.700575  0  0  -0.129157  0  3.954003  0  0  -0.138078  0  3.975164  0  -0.07002  0  -0.077976  -0.123603  0  3.940016  0
C  C70  1  0.78048243  0.95117252  0.46845790  1  0  -0.119658  0  3.700676  0  0  -0.129167  0  3.954109  0  0  -0.138087  0  3.975272  0  -0.070026  0  -0.07801  -0.123603  0  3.940126  0
C  C71  1  0.28048316  0.54882764  0.96845845  1  0  -0.119673  0  3.70064  0  0  -0.129175  0  3.954069  0  0  -0.138095  0  3.975229  0  -0.070029  0  -0.078026  -0.123608  0  3.940088  0
C  C72  1  0.26386382  0.40754157  0.35936324  1  0  0.120246  0  3.67252  0  0  0.07977  0  3.918936  0  0  0.088731  0  3.936609  0  0.50445  0  0.051971  0.074076  0  3.906978  0
C  C73  1  0.76386514  0.09245947  0.85936312  1  0  0.120205  0  3.672647  0  0  0.079727  0  3.919053  0  0  0.088688  0  3.936728  0  0.504431  0  0.051951  0.074032  0  3.907093  0
C  C74  1  0.73613575  0.59245854  0.64063667  1  0  0.120239  0  3.672594  0  0  0.079755  0  3.919004  0  0  0.088716  0  3.936678  0  0.504444  0  0.051971  0.074061  0  3.907043  0
C  C75  1  0.23613443  0.90753966  0.14063679  1  0  0.120203  0  3.672648  0  0  0.079727  0  3.919066  0  0  0.088685  0  3.936742  0  0.504442  0  0.051948  0.074033  0  3.907103  0
C  C76  1  0.35401310  0.43196222  0.54519046  1  0  0.135669  0  3.707726  0  0  0.099551  0  3.966308  0  0  0.108089  0  3.985767  0  0.48511  0  0.049027  0.094194  0  3.953097  0
C  C77  1  0.85401340  0.06803882  0.04518777  1  0  0.135617  0  3.707775  0  0  0.099496  0  3.966356  0  0  0.108043  0  3.985815  0  0.485189  0  0.049015  0.094138  0  3.953143  0
C  C78  1  0.64598647  0.56803789  0.45481024  1  0  0.135663  0  3.707775  0  0  0.09954  0  3.96634  0  0  0.108079  0  3.985801  0  0.484982  0  0.049019  0.094183  0  3.953132  0
C  C79  1  0.14598514  0.93196129  0.95481114  1  0  0.135635  0  3.707783  0  0  0.09952  0  3.966362  0  0  0.108066  0  3.985821  0  0.485038  0  0.049024  0.094162  0  3.95315  0
C  C80  1  0.45202973  0.33506984  0.54770548  1  0  -0.122201  0  3.734437  0  0  -0.133945  0  3.993227  0  0  -0.142797  0  4.015729  0  -0.077511  0  -0.081201  -0.128138  0  3.97786  0
C  C81  1  0.95202797  0.16493413  0.04770629  1  0  -0.12216  0  3.734407  0  0  -0.133896  0  3.993182  0  0  -0.142747  0  4.015679  0  -0.077575  0  -0.081219  -0.12809  0  3.977815  0
C  C82  1  0.54796984  0.66493026  0.45229444  1  0  -0.122159  0  3.734501  0  0  -0.133895  0  3.993277  0  0  -0.142748  0  4.015779  0  -0.077516  0  -0.08118  -0.12809  0  3.97791  0
C  C83  1  0.04797160  0.83506598  0.95229362  1  0  -0.122183  0  3.734469  0  0  -0.133928  0  3.993248  0  0  -0.14278  0  4.015744  0  -0.077586  0  -0.081231  -0.128123  0  3.977881  0
N  N84  1  0.08986467  0.22831873  0.57618592  1  0  -0.336424  0  3.268297  0  0  -0.257837  0  3.536763  0  0  -0.279297  0  3.556099  0  -1.246175  0  -0.331578  -0.243252  0  3.523295  0
N  N85  1  0.58986497  0.27168132  0.07618559  1  0  -0.336428  0  3.268282  0  0  -0.257833  0  3.536734  0  0  -0.279293  0  3.556072  0  -1.246296  0  -0.331576  -0.243248  0  3.523266  0
N  N86  1  0.91013592  0.77168040  0.42381499  1  0  -0.336402  0  3.268237  0  0  -0.257804  0  3.5367  0  0  -0.279264  0  3.556036  0  -1.246243  0  -0.331561  -0.24322  0  3.523234  0
N  N87  1  0.41013665  0.72831976  0.92381553  1  0  -0.336459  0  3.268244  0  0  -0.257861  0  3.536707  0  0  -0.279321  0  3.556045  0  -1.24624  0  -0.331576  -0.243276  0  3.52324  0
N  N88  1  0.26163215  0.46751850  0.45275253  1  0  -0.336937  0  3.274727  0  0  -0.257328  0  3.546054  0  0  -0.279352  0  3.566073  0  -1.236957  0  -0.329594  -0.242387  0  3.532259  0
N  N89  1  0.76163142  0.03248449  0.95275198  1  0  -0.336931  0  3.274805  0  0  -0.257319  0  3.546145  0  0  -0.27934  0  3.566147  0  -1.236964  0  -0.329602  -0.242379  0  3.532355  0
N  N90  1  0.73836742  0.53248160  0.54724817  1  0  -0.336974  0  3.274752  0  0  -0.257354  0  3.546095  0  0  -0.279373  0  3.56609  0  -1.236958  0  -0.329603  -0.242414  0  3.532299  0
N  N91  1  0.23836815  0.96751562  0.04724793  1  0  -0.33693  0  3.274758  0  0  -0.257318  0  3.546094  0  0  -0.279339  0  3.566097  0  -1.236923  0  -0.329588  -0.242379  0  3.532306  0
O  O92  1  0.43033776  0.14417574  0.25054843  1  0  -0.644554  0  2.011491  0  0  -0.580122  0  2.251597  0  0  -0.609848  0  2.242028  0  -1.161957  0  -0.327875  -0.559202  0  2.257218  0
O  O93  1  0.93033909  0.35582333  0.75054831  1  0  -0.64457  0  2.011484  0  0  -0.580149  0  2.251603  0  0  -0.609876  0  2.242032  0  -1.161905  0  -0.327883  -0.559229  0  2.257226  0
O  O94  1  0.56966181  0.85582535  0.74945069  1  0  -0.644553  0  2.011411  0  0  -0.580142  0  2.251543  0  0  -0.609867  0  2.241969  0  -1.161924  0  -0.327875  -0.559223  0  2.257165  0
O  O95  1  0.06966151  0.64417482  0.24945103  1  0  -0.644564  0  2.011469  0  0  -0.580153  0  2.251609  0  0  -0.609879  0  2.242035  0  -1.161955  0  -0.327886  -0.559235  0  2.257231  0
O  O96  1  0.30485066  0.21851679  0.89136116  1  0  -0.632126  0  1.968158  0  0  -0.571847  0  2.213857  0  0  -0.600973  0  2.204393  0  -1.157995  0  -0.329709  -0.551322  0  2.219848  0
O  O97  1  0.80485096  0.28148327  0.39136162  1  0  -0.6321  0  1.968214  0  0  -0.571823  0  2.213939  0  0  -0.600949  0  2.204477  0  -1.158009  0  -0.329693  -0.551298  0  2.219929  0
O  O98  1  0.69514890  0.78148234  0.10863796  1  0  -0.632125  0  1.968197  0  0  -0.571836  0  2.213897  0  0  -0.600963  0  2.204437  0  -1.157997  0  -0.329701  -0.551309  0  2.219889  0
O  O99  1  0.19514963  0.71851782  0.60863851  1  0  -0.632111  0  1.968146  0  0  -0.571831  0  2.213853  0  0  -0.600959  0  2.204394  0  -1.158021  0  -0.329708  -0.551306  0  2.219845  0
O  O100  1  0.28465880  0.29729759  0.16000268  1  0  -0.63642  0  1.894276  0  0  -0.584628  0  2.117881  0  0  -0.610792  0  2.108117  0  -1.169013  0  -0.334589  -0.566308  0  2.123675  0
O  O101  1  0.78465910  0.20270148  0.66000314  1  0  -0.636386  0  1.894385  0  0  -0.584592  0  2.11798  0  0  -0.610758  0  2.108222  0  -1.169037  0  -0.334561  -0.566275  0  2.12378  0
O  O102  1  0.71534077  0.70270251  0.83999644  1  0  -0.636465  0  1.894304  0  0  -0.584668  0  2.117903  0  0  -0.610835  0  2.108142  0  -1.169008  0  -0.33459  -0.566349  0  2.123699  0
O  O103  1  0.21533944  0.79729765  0.33999578  1  0  -0.636412  0  1.894291  0  0  -0.58462  0  2.117899  0  0  -0.610785  0  2.108134  0  -1.168985  0  -0.334576  -0.566303  0  2.123696  0
O  O104  1  0.42572031  0.03940362  0.87387449  1  0  -0.660852  0  2.049206  0  0  -0.597003  0  2.3173  0  0  -0.626578  0  2.305671  0  -1.19673  0  -0.332055  -0.575794  0  2.324461  0
O  O105  1  0.92572060  0.46059643  0.37387495  1  0  -0.660838  0  2.049234  0  0  -0.596972  0  2.31732  0  0  -0.62655  0  2.305694  0  -1.196743  0  -0.332069  -0.575755  0  2.324457  0
O  O106  1  0.57428029  0.96059551  0.12612563  1  0  -0.660794  0  2.049199  0  0  -0.596935  0  2.317301  0  0  -0.626509  0  2.305673  0  -1.196677  0  -0.332031  -0.575735  0  2.324483  0
O  O107  1  0.07427999  0.53940466  0.62612596  1  0  -0.660804  0  2.04924  0  0  -0.596943  0  2.317337  0  0  -0.626518  0  2.30571  0  -1.196679  0  -0.33205  -0.575741  0  2.324512  0
