# generated using pymatgen
data_Al4H31C68I5O24
_symmetry_space_group_name_H-M   'P 1'
_cell_length_a   6.65385579
_cell_length_b   20.27744838
_cell_length_c   23.84039095
_cell_angle_alpha   90.15999452
_cell_angle_beta   93.20402961
_cell_angle_gamma   90.50057204
_symmetry_Int_Tables_number   1
_chemical_formula_structural   Al4H31C68I5O24
_chemical_formula_sum   'Al4 H31 C68 I5 O24'
_cell_volume   3211.45423178
_cell_formula_units_Z   1
loop_
 _symmetry_equiv_pos_site_id
 _symmetry_equiv_pos_as_xyz
  1  'x, y, z'
loop_
 _atom_site_type_symbol
 _atom_site_label
 _atom_site_symmetry_multiplicity
 _atom_site_fract_x
 _atom_site_fract_y
 _atom_site_fract_z
 _atom_site_occupancy
 _atom_site_pbe_bader_charge
 _atom_site_pbe_bader_spin_density
 _atom_site_pbe_cm5_charge
 _atom_site_pbe_ddec_charge
 _atom_site_pbe_ddec_spin_density
 _atom_site_pbe_ddec_sum_bond_order
 _atom_site_pbe_magmom
Al  Al0  1  0.91070923  0.50533997  0.49798659  1  2.500771  0  0.400964  1.636379  0  2.574702  0
Al  Al1  1  0.41076696  0.50257741  0.50368412  1  2.503618  0  0.399676  1.641951  0  2.580737  0
Al  Al2  1  0.23751015  0.99760197  0.99710277  1  2.501119  0  0.398843  1.643005  0  2.57545  0
Al  Al3  1  0.73679270  0.99821105  0.99694546  1  2.500868  0  0.398935  1.642648  0  2.575773  0
H  H4  1  0.90578617  0.61972938  0.16252386  1  0.102251  0  0.106505  0.109735  0  0.984098  0
H  H5  1  0.01035197  0.62877899  0.34551041  1  0.070192  0  0.107476  0.109713  0  1.012816  0
H  H6  1  0.37123464  0.71410920  0.48203328  1  0.056814  0  0.11195  0.115998  0  0.985092  0
H  H7  1  0.45115183  0.86261169  0.33018439  1  0.063244  0  0.111202  0.130926  0  0.984049  0
H  H8  1  0.88983215  0.67011188  0.07212173  1  0.04832  0  0.101089  0.115608  0  1.005331  0
H  H9  1  0.96879420  0.62438060  0.26437479  1  0.026266  0  0.10566  0.107871  0  1.010141  0
H  H10  1  0.43960927  0.81308723  0.42404467  1  0.064147  0  0.10461  0.105565  0  0.989665  0
H  H11  1  0.75495116  0.27260807  0.28847360  1  0.082351  0  0.107149  0.109617  0  0.978651  0
H  H12  1  0.93376585  0.14595626  0.28426552  1  0.093363  0  0.109702  0.102635  0  0.975132  0
H  H13  1  0.30625416  0.20208389  0.32470280  1  0.109163  0  0.107688  0.099615  0  0.981854  0
H  H14  1  0.40692907  0.22498022  0.21148920  1  0.08289  0  0.100058  0.104932  0  1.011647  0
H  H15  1  0.37314682  0.68774411  0.81673611  1  0.101328  0  0.107734  0.123203  0  0.975147  0
H  H16  1  0.88976608  0.78835979  0.80271805  1  0.117129  0  0.113089  0.140034  0  0.956316  0
H  H17  1  0.27980961  0.36917463  0.82173375  1  0.042104  0  0.103221  0.103821  0  0.992854  0
H  H18  1  0.49857176  0.37584428  0.65175059  1  0.067663  0  0.106031  0.107967  0  1.013907  0
H  H19  1  0.90355761  0.29831435  0.53481274  1  0.074122  0  0.107998  0.112553  0  0.986553  0
H  H20  1  0.89982740  0.13710283  0.68030327  1  0.061635  0  0.103335  0.104117  0  0.993386  0
H  H21  1  0.22257427  0.30888889  0.90758505  1  0.055303  0  0.103748  0.103559  0  0.992847  0
H  H22  1  0.26010021  0.20678496  0.96544090  1  0.090747  0  0.109261  0.114709  0  0.987731  0
H  H23  1  0.64932637  0.12452034  0.84676097  1  0.068765  0  0.105426  0.107183  0  1.016857  0
H  H24  1  0.41537670  0.37560243  0.72879512  1  0.075944  0  0.10307  0.103785  0  1.011958  0
H  H25  1  0.75839332  0.12942456  0.77243926  1  0.04693  0  0.103681  0.105123  0  1.00968  0
H  H26  1  0.95485316  0.19795037  0.59406930  1  0.066853  0  0.103111  0.103113  0  0.993617  0
H  H27  1  0.38619249  0.35481863  0.20139931  1  0.592218  0  0.297883  0.325336  0  0.984339  0
H  H28  1  0.93720458  0.80497027  0.67743321  1  0.586994  0  0.27317  0.298156  0  1.048899  0
H  H29  1  0.17438222  0.90359103  0.19143294  1  0.643611  0  0.306483  0.344068  0  0.993001  0
H  H30  1  0.43078751  0.85436550  0.19306832  1  0.628167  0  0.352759  0.384771  0  0.837919  0
H  H31  1  0.63368559  0.49210261  0.42862739  1  0.638089  0  0.354907  0.435719  0  0.8481  0
H  H32  1  0.15616231  0.45911792  0.56264760  1  0.619518  0  0.35188  0.431648  0  0.854216  0
H  H33  1  0.50143143  0.01047299  0.06949005  1  0.635945  0  0.356077  0.437098  0  0.844326  0
H  H34  1  0.97551300  0.03906538  0.93322869  1  0.624563  0  0.354659  0.433676  0  0.84875  0
C  C35  1  0.69005910  0.57846526  0.57878971  1  1.691332  0  0.277468  0.711105  0  4.166414  0
C  C36  1  0.66901354  0.40276221  0.55591294  1  1.573968  0  0.269499  0.653705  0  4.089984  0
C  C37  1  0.14148021  0.42872393  0.42077889  1  1.672657  0  0.269948  0.713753  0  4.172864  0
C  C38  1  0.16600321  0.60484544  0.44939333  1  1.580364  0  0.273861  0.64708  0  4.091589  0
C  C39  1  0.00299605  0.83401231  0.08187870  1  -0.010461  0  -0.028807  -0.174166  0  3.95152  0
C  C40  1  0.18536570  0.66640334  0.41601553  1  -0.022643  0  -0.011149  -0.03109  0  3.990455  0
C  C41  1  0.94221216  0.71704221  0.09008869  1  0.021834  0  -0.112293  -0.208654  0  4.021553  0
C  C42  1  0.95121445  0.77288854  0.05719107  1  -0.143647  0  -0.045933  0.061401  0  3.969079  0
C  C43  1  0.05600966  0.83859689  0.13948228  1  0.5354  0  0.082232  0.243274  0  4.050674  0
C  C44  1  0.07395773  0.78069215  0.17365309  1  -0.073564  0  -0.022397  -0.095158  0  3.959887  0
C  C45  1  0.99786663  0.72067435  0.14799494  1  0.020456  0  -0.009552  0.105719  0  4.040752  0
C  C46  1  0.14818655  0.77860987  0.23222195  1  0.055826  0  -0.016007  -0.072818  0  3.973099  0
C  C47  1  0.09767293  0.72356020  0.26616812  1  -0.069139  0  -0.001942  0.052554  0  3.959166  0
C  C48  1  0.00323408  0.66741499  0.23940009  1  0.003461  0  -0.092843  -0.132379  0  4.026552  0
C  C49  1  0.96679593  0.66461649  0.18254139  1  -0.053768  0  -0.088631  -0.122464  0  4.007257  0
C  C50  1  0.28567403  0.82608895  0.25794605  1  0.371584  0  0.06793  0.233223  0  4.071464  0
C  C51  1  0.34270151  0.82566307  0.31400084  1  0.018596  0  -0.103177  -0.252246  0  4.002194  0
C  C52  1  0.27676009  0.77499674  0.34952757  1  0.003211  0  -0.006377  0.094763  0  4.0479  0
C  C53  1  0.15531343  0.72240469  0.32557619  1  0.000858  0  -0.005336  0.022895  0  3.950035  0
C  C54  1  0.34695968  0.77241670  0.40674892  1  -0.063314  0  -0.089007  -0.133973  0  3.998191  0
C  C55  1  0.30817751  0.71820624  0.43902750  1  0.038594  0  -0.081254  -0.091241  0  3.997779  0
C  C56  1  0.10569743  0.66950580  0.36114748  1  -0.021278  0  -0.078437  -0.1381  0  3.935315  0
C  C57  1  0.16639796  0.30518025  0.23087305  1  0.633142  0  0.091326  0.265444  0  3.74703  0
C  C58  1  0.95602207  0.27470599  0.21020279  1  -0.150046  0  -0.037216  -0.022388  0  3.529445  0
C  C59  1  0.01513037  0.11899862  0.12337815  1  -0.158475  0  -0.037916  -0.185342  0  3.964553  0
C  C60  1  0.13824409  0.38040754  0.37639983  1  0.144506  0  -0.046113  -0.204795  0  3.980755  0
C  C61  1  0.26331039  0.23551671  0.22970562  1  -0.034086  0  -0.07965  -0.159894  0  3.649388  0
C  C62  1  0.05654609  0.20389099  0.20685651  1  0.112817  0  0.007637  0.123074  0  3.804352  0
C  C63  1  0.20633486  0.22252739  0.29137851  1  -0.05877  0  -0.066743  -0.063556  0  3.639569  0
C  C64  1  0.10566616  0.29291624  0.29485279  1  0.119688  0  0.001085  0.058489  0  3.794631  0
C  C65  1  0.99963484  0.19196683  0.26975273  1  -0.035803  0  -0.06371  -0.06399  0  3.613409  0
C  C66  1  0.90009418  0.26127965  0.27163900  1  -0.032984  0  -0.075666  -0.098116  0  3.670637  0
C  C67  1  0.03246894  0.15814377  0.16220617  1  -0.119385  0  -0.03653  -0.049966  0  4.100381  0
C  C68  1  0.12720780  0.33909915  0.33909843  1  -0.446321  0  -0.031341  -0.026247  0  4.100501  0
C  C69  1  0.46617145  0.71436785  0.78787175  1  5e-05  0  -0.072715  -0.110407  0  3.607724  0
C  C70  1  0.68573545  0.69642270  0.77380207  1  -0.138006  0  -0.033452  0.06246  0  3.587552  0
C  C71  1  0.69135959  0.62488313  0.62474056  1  0.09111  0  -0.033265  -0.175094  0  3.907257  0
C  C72  1  0.46942245  0.87309034  0.87548194  1  0.223734  0  -0.03429  -0.178518  0  3.960018  0
C  C73  1  0.41247601  0.72498523  0.72402451  1  -0.160795  0  -0.045085  0.018506  0  3.603638  0
C  C74  1  0.63146834  0.70510492  0.70848926  1  0.113442  0  -0.012677  0.005542  0  3.824511  0
C  C75  1  0.47816640  0.79917966  0.72953927  1  -0.140777  0  -0.041608  -0.038634  0  3.551657  0
C  C76  1  0.53349543  0.78901479  0.79465402  1  0.145697  0  0.008206  0.137812  0  3.800567  0
C  C77  1  0.69800980  0.78164619  0.71547588  1  0.636448  0  0.086769  0.274325  0  3.775554  0
C  C78  1  0.75427801  0.76995861  0.77957101  1  -0.0378  0  -0.080333  -0.180551  0  3.610933  0
C  C79  1  0.67125257  0.66210099  0.66422861  1  -0.376882  0  -0.039011  -0.011298  0  4.116706  0
C  C80  1  0.48964026  0.83307606  0.83814818  1  -0.529109  0  -0.035777  -0.044761  0  4.082693  0
C  C81  1  0.45905727  0.16049489  0.90851745  1  0.022908  0  -0.016126  -0.037234  0  4.003326  0
C  C82  1  0.69455961  0.34191919  0.59050839  1  -0.026122  0  -0.016466  -0.034359  0  4.005926  0
C  C83  1  0.31368596  0.26796711  0.89392177  1  0.000747  0  -0.089556  -0.132774  0  4.007447  0
C  C84  1  0.33548030  0.21205422  0.92626450  1  -0.042375  0  -0.086863  -0.101144  0  4.008139  0
C  C85  1  0.55514745  0.16538375  0.85855258  1  -0.069541  0  -0.080102  -0.138946  0  3.944634  0
C  C86  1  0.52418749  0.22014471  0.82261174  1  0.026199  0  -0.001567  0.033751  0  3.947804  0
C  C87  1  0.40276961  0.27278044  0.84148467  1  -0.066927  0  -0.006154  0.079531  0  4.023228  0
C  C88  1  0.60542015  0.22412953  0.76754767  1  -0.003455  0  -0.003564  0.031058  0  3.959056  0
C  C89  1  0.56249740  0.27988387  0.73309109  1  -0.028316  0  -0.002984  0.030948  0  3.961528  0
C  C90  1  0.44518293  0.33197603  0.75434340  1  -0.108824  0  -0.091227  -0.127009  0  4.028937  0
C  C91  1  0.36943154  0.32877591  0.80642996  1  0.029488  0  -0.090981  -0.133694  0  4.028276  0
C  C92  1  0.72646466  0.17274295  0.74667834  1  -0.019498  0  -0.091195  -0.12771  0  4.026898  0
C  C93  1  0.80549859  0.17664335  0.69500404  1  -0.061603  0  -0.090723  -0.133405  0  4.02903  0
C  C94  1  0.76822916  0.23208635  0.65948907  1  -0.007665  0  -0.007551  0.076578  0  4.023117  0
C  C95  1  0.64105868  0.28349397  0.67772457  1  0.017257  0  -0.002007  0.035921  0  3.949215  0
C  C96  1  0.85776524  0.23759179  0.60714066  1  -0.033568  0  -0.089573  -0.132445  0  4.006924  0
C  C97  1  0.82787820  0.29253488  0.57392104  1  -0.039212  0  -0.08882  -0.106181  0  4.013299  0
C  C98  1  0.60016001  0.33666386  0.64068013  1  -0.025755  0  -0.08151  -0.143965  0  3.945561  0
C  C99  1  0.47219714  0.09861425  0.94196567  1  1.556516  0  0.269758  0.651384  0  4.08941  0
C  C100  1  0.47393750  0.92143694  0.92006963  1  1.700362  0  0.277861  0.712961  0  4.164446  0
C  C101  1  0.00054478  0.89739188  0.04929543  1  1.633619  0  0.268787  0.680865  0  4.099795  0
C  C102  1  0.99949361  0.07251024  0.07734561  1  1.693687  0  0.274175  0.717696  0  4.161439  0
I  I103  1  0.75598283  0.31602575  0.14777131  1  0.066073  0  0.064483  -0.049807  0  1.30394  0
I  I104  1  0.84191601  0.61607324  0.81129996  1  0.077137  0  0.033351  -0.076503  0  1.311102  0
I  I105  1  0.31641200  0.87949040  0.69578858  1  0.119611  0  0.077786  -0.004765  0  1.371195  0
I  I106  1  0.15560003  0.68815592  0.67830914  1  0.147387  0  0.120365  0.011808  0  1.66872  0
I  I107  1  0.87998029  0.76577408  0.97023565  1  0.108061  0  0.0706  -0.025789  0  1.413876  0
O  O108  1  0.49128893  0.42197572  0.54201353  1  -1.26255  0  -0.240056  -0.59943  0  2.30796  0
O  O109  1  0.85282656  0.56944817  0.55448112  1  -1.229248  0  -0.223665  -0.565715  0  2.272674  0
O  O110  1  0.99621218  0.57551262  0.45080729  1  -1.268468  0  -0.234521  -0.587535  0  2.305686  0
O  O111  1  0.83249494  0.43140162  0.54402252  1  -1.259204  0  -0.236274  -0.605039  0  2.350614  0
O  O112  1  0.97122115  0.44285002  0.43951761  1  -1.231601  0  -0.233937  -0.589842  0  2.284475  0
O  O113  1  0.52138510  0.55014617  0.56751563  1  -1.23093  0  -0.222338  -0.571972  0  2.304374  0
O  O114  1  0.64997387  0.50927794  0.46664241  1  -1.439183  0  -0.447545  -0.989313  0  2.179996  0
O  O115  1  0.31256448  0.45300228  0.43700533  1  -1.247636  0  -0.233846  -0.597683  0  2.286744  0
O  O116  1  0.33035440  0.58518797  0.47327188  1  -1.255721  0  -0.22791  -0.57905  0  2.345906  0
O  O117  1  0.16326479  0.49353809  0.53459788  1  -1.422323  0  -0.448119  -0.989383  0  2.185409  0
O  O118  1  0.64867710  0.93507735  0.94143500  1  -1.222516  0  -0.221751  -0.573453  0  2.326331  0
O  O119  1  0.30702081  0.07901367  0.96128300  1  -1.263516  0  -0.237597  -0.6038  0  2.343521  0
O  O120  1  0.16413587  0.04785405  0.06284033  1  -1.232736  0  -0.229611  -0.587209  0  2.287729  0
O  O121  1  0.30869325  0.94647965  0.93334307  1  -1.241188  0  -0.226025  -0.5733  0  2.285941  0
O  O122  1  0.16799774  0.91713110  0.03243747  1  -1.250006  0  -0.226946  -0.578986  0  2.328808  0
O  O123  1  0.64139226  0.06959960  0.94789044  1  -1.267109  0  -0.239927  -0.604207  0  2.31531  0
O  O124  1  0.49428432  0.99326783  0.03142934  1  -1.435545  0  -0.447384  -0.988519  0  2.187059  0
O  O125  1  0.83287511  0.92621852  0.04235691  1  -1.251182  0  -0.227696  -0.578277  0  2.330458  0
O  O126  1  0.82307597  0.06069886  0.05593166  1  -1.239109  0  -0.231786  -0.588385  0  2.274752  0
O  O127  1  0.98071158  0.00741097  0.96368346  1  -1.4266  0  -0.446716  -0.986957  0  2.187864  0
O  O128  1  0.24623320  0.36211129  0.21042499  1  -1.13104  0  -0.371817  -0.461503  0  2.290644  0
O  O129  1  0.79615905  0.81907673  0.67817425  1  -1.141092  0  -0.377673  -0.465766  0  2.357541  0
O  O130  1  0.07211490  0.90155469  0.15951305  1  -1.15496  0  -0.364577  -0.453829  0  2.309579  0
O  O131  1  0.37645530  0.87490696  0.22609573  1  -1.13745  0  -0.351228  -0.452729  0  2.286859  0
