# generated using pymatgen
data_Zr3H31C36NO16
_symmetry_space_group_name_H-M   'P 1'
_cell_length_a   14.92983745
_cell_length_b   14.87027620
_cell_length_c   14.88328231
_cell_angle_alpha   60.03577700
_cell_angle_beta   59.59405976
_cell_angle_gamma   59.88856166
_symmetry_Int_Tables_number   1
_chemical_formula_structural   Zr3H31C36NO16
_chemical_formula_sum   'Zr6 H62 C72 N2 O32'
_cell_volume   2327.87268108
_cell_formula_units_Z   2
loop_
 _symmetry_equiv_pos_site_id
 _symmetry_equiv_pos_as_xyz
  1  'x, y, z'
loop_
 _atom_site_type_symbol
 _atom_site_label
 _atom_site_symmetry_multiplicity
 _atom_site_fract_x
 _atom_site_fract_y
 _atom_site_fract_z
 _atom_site_occupancy
 _atom_site_pbe_bader_charge
 _atom_site_pbe_bader_spin_density
 _atom_site_pbe_cm5_charge
 _atom_site_pbe_ddec_charge
 _atom_site_pbe_ddec_spin_density
 _atom_site_pbe_ddec_sum_bond_order
 _atom_site_pbe_magmom
Zr  Zr0  1  0.88835151  0.37680732  0.61495274  1  2.631293  0  1.632843  2.366851  0  2.769737  0
Zr  Zr1  1  0.11651834  0.62339569  0.37700346  1  2.628604  0  1.618286  2.365798  0  2.737252  0
Zr  Zr2  1  0.12226785  0.38565149  0.61331608  1  2.635224  0  1.627962  2.36939  0  2.753405  0
Zr  Zr3  1  0.88300961  0.61638859  0.37778500  1  2.630774  0  1.623498  2.369779  0  2.729529  0
Zr  Zr4  1  0.87960259  0.61588927  0.61786926  1  2.631906  0  1.631993  2.361813  0  2.7768  0
Zr  Zr5  1  0.12388338  0.38087368  0.37703971  1  2.628683  0  1.627917  2.365313  0  2.748456  0
H  H6  1  0.91000944  0.40605750  0.77720997  1  0.584919  0  0.327047  0.413004  0  0.875587  0
H  H7  1  0.90080037  0.78080319  0.40516088  1  0.610421  0  0.328668  0.417853  0  0.869111  0
H  H8  1  0.28304384  0.41278857  0.40218302  1  0.621119  0  0.329821  0.418651  0  0.864597  0
H  H9  1  0.91587329  0.40144927  0.40084896  1  0.594265  0  0.331025  0.419964  0  0.862667  0
H  H10  1  0.57970473  0.72565455  0.88426012  1  0.054455  0  0.093999  0.106665  0  1.035444  0
H  H11  1  0.65437056  0.62316582  0.97521470  1  0.050446  0  0.097812  0.110024  0  0.983577  0
H  H12  1  0.47889291  0.63821481  0.13722665  1  0.051623  0  0.093576  0.103409  0  1.029462  0
H  H13  1  0.40182014  0.73712264  0.04777286  1  0.026165  0  0.093265  0.100677  0  0.998097  0
H  H14  1  0.24041412  0.04489862  0.31311938  1  0.037592  0  0.091502  0.098416  0  1.026872  0
H  H15  1  0.14499740  0.12600571  0.24140346  1  0.054876  0  0.094595  0.104204  0  1.029981  0
H  H16  1  0.13952154  0.95675760  0.25020515  1  0.042263  0  0.097202  0.109527  0  0.978732  0
H  H17  1  0.22929257  0.87321665  0.32870293  1  0.064465  0  0.09481  0.106521  0  1.024736  0
H  H18  1  0.52100190  0.85008264  0.36022247  1  0.04132  0  0.094412  0.1043  0  1.002424  0
H  H19  1  0.60510520  0.93536128  0.26550086  1  0.063189  0  0.097541  0.110073  0  0.994506  0
H  H20  1  0.43377345  0.10301046  0.26675816  1  0.056423  0  0.095342  0.109825  0  1.02556  0
H  H21  1  0.35110592  0.01801251  0.36763696  1  0.056706  0  0.09513  0.105566  0  1.011198  0
H  H22  1  0.90557812  0.76493069  0.00139630  1  0.05329  0  0.099027  0.113694  0  0.976612  0
H  H23  1  0.79002458  0.71843511  0.08124110  1  0.051803  0  0.095872  0.109173  0  1.001029  0
H  H24  1  0.79044874  0.72436573  0.90818898  1  0.039912  0  0.092987  0.099612  0  1.002302  0
H  H25  1  0.91013495  0.76456462  0.83014568  1  0.054323  0  0.097893  0.111424  0  0.986485  0
H  H26  1  0.82006410  0.27310512  0.93864119  1  0.05143  0  0.093474  0.091613  0  1.039408  0
H  H27  1  0.65823238  0.27622160  0.10793075  1  0.071431  0  0.09377  0.091537  0  1.030989  0
H  H28  1  0.80175453  0.92867914  0.25782062  1  0.07924  0  0.0945  0.098861  0  1.053858  0
H  H29  1  0.64771658  0.10148836  0.26784823  1  0.064722  0  0.094152  0.09251  0  1.01961  0
H  H30  1  0.51113446  0.37050276  0.75582272  1  0.038404  0  0.096215  0.108324  0  1.01706  0
H  H31  1  0.59230188  0.26433564  0.69524184  1  0.04717  0  0.094271  0.105956  0  1.006121  0
H  H32  1  0.42172622  0.27708053  0.68672033  1  0.030861  0  0.093517  0.104293  0  1.020723  0
H  H33  1  0.34135625  0.38032188  0.75104439  1  0.081334  0  0.097383  0.110333  0  0.98412  0
H  H34  1  0.36621435  0.30315456  0.10574309  1  0.044991  0  0.094281  0.132527  0  1.018714  0
H  H35  1  0.40565063  0.28006271  0.21035125  1  0.043886  0  0.094157  0.134855  0  1.03599  0
H  H36  1  0.50516739  0.22733937  0.10034760  1  0.051495  0  0.090706  0.124325  0  1.024062  0
H  H37  1  0.65788723  0.24672738  0.92960801  1  0.041166  0  0.096347  0.140911  0  1.000584  0
H  H38  1  0.61919836  0.35170050  0.81599409  1  0.097859  0  0.097619  0.143985  0  1.041374  0
H  H39  1  0.52158846  0.29070887  0.93355965  1  0.022118  0  0.089784  0.125498  0  1.012246  0
H  H40  1  0.78838792  0.91521601  0.75186263  1  0.029084  0  0.092685  0.127243  0  1.01804  0
H  H41  1  0.80113629  0.85900625  0.66403996  1  0.08137  0  0.09541  0.14282  0  1.069946  0
H  H42  1  0.72275975  0.99981309  0.65206505  1  0.025822  0  0.091451  0.127477  0  0.99779  0
H  H43  1  0.75011392  0.07787847  0.71624735  1  0.032156  0  0.085525  0.115242  0  1.049622  0
H  H44  1  0.78314603  0.20048288  0.63045884  1  0.076298  0  0.093553  0.133431  0  1.033959  0
H  H45  1  0.85084733  0.10014264  0.72529672  1  0.051628  0  0.098873  0.147122  0  0.982851  0
H  H46  1  0.35599855  0.09305791  0.73307163  1  0.060084  0  0.09214  0.131079  0  1.020369  0
H  H47  1  0.41097171  0.19038703  0.61232770  1  0.063043  0  0.095082  0.13801  0  1.025758  0
H  H48  1  0.49908871  0.07074210  0.68193105  1  0.016274  0  0.088428  0.12305  0  1.016495  0
H  H49  1  0.63219808  0.88522404  0.69504298  1  0.047335  0  0.094531  0.133288  0  1.030915  0
H  H50  1  0.57850025  0.78775566  0.72615824  1  0.066478  0  0.096638  0.141429  0  1.021221  0
H  H51  1  0.48943657  0.90586096  0.76906325  1  0.027703  0  0.086994  0.120106  0  1.017968  0
H  H52  1  0.19892330  0.27653882  0.89041946  1  0.047257  0  0.093774  0.13023  0  0.999501  0
H  H53  1  0.06652398  0.28770619  0.91456950  1  0.050537  0  0.090704  0.134272  0  1.030004  0
H  H54  1  0.11280206  0.22511573  0.02708999  1  0.020622  0  0.09007  0.125054  0  1.005429  0
H  H55  1  0.21144897  0.25087739  0.05792452  1  0.027473  0  0.088767  0.122035  0  1.03015  0
H  H56  1  0.13574297  0.27699819  0.18628439  1  0.085411  0  0.095217  0.137019  0  1.035953  0
H  H57  1  0.22644483  0.34787701  0.08085905  1  0.048284  0  0.095381  0.13738  0  1.011008  0
H  H58  1  0.42512606  0.76265636  0.31712219  1  0.035515  0  0.091944  0.127372  0  0.997907  0
H  H59  1  0.32673467  0.70993611  0.34323449  1  0.067525  0  0.096123  0.144981  0  1.052426  0
H  H60  1  0.45648915  0.68683758  0.23877253  1  0.000399  0  0.088601  0.119183  0  1.052705  0
H  H61  1  0.61360228  0.65143035  0.22506721  1  0.015055  0  0.086549  0.11696  0  1.023655  0
H  H62  1  0.72247812  0.58563593  0.27789314  1  0.070593  0  0.09384  0.135619  0  1.025861  0
H  H63  1  0.62453984  0.71227950  0.29399803  1  0.059072  0  0.094125  0.128025  0  1.019337  0
H  H64  1  0.20243339  0.76301638  0.07299258  1  0.456128  0  0.298493  0.30481  0  0.978004  0
H  H65  1  0.26648400  0.84241975  0.94831160  1  0.415364  0  0.297806  0.284636  0  0.978229  0
H  H66  1  0.20125137  0.07362508  0.75414150  1  0.466606  0  0.299428  0.301285  0  0.975284  0
H  H67  1  0.23979111  0.93437656  0.79591597  1  0.436401  0  0.305338  0.293141  0  0.944963  0
C  C68  1  0.69950944  0.49312587  0.79896931  1  1.533432  0  0.236339  0.645669  0  4.101704  0
C  C69  1  0.98753823  0.80603237  0.50317478  1  1.541504  0  0.240374  0.653324  0  4.077159  0
C  C70  1  0.30666006  0.50068172  0.19453380  1  1.526848  0  0.2347  0.64583  0  4.097165  0
C  C71  1  0.00973275  0.19250131  0.49661843  1  1.54724  0  0.235019  0.646744  0  4.095067  0
C  C72  1  0.00729319  0.19533787  0.80099584  1  1.538286  0  0.234572  0.653714  0  4.092402  0
C  C73  1  0.70246736  0.49149054  0.49842076  1  1.535707  0  0.235219  0.647086  0  4.089869  0
C  C74  1  0.00181576  0.80165770  0.18963982  1  1.540046  0  0.239651  0.672375  0  4.05709  0
C  C75  1  0.29691092  0.51693555  0.49571116  1  1.5319  0  0.238467  0.652077  0  4.078383  0
C  C76  1  0.99986540  0.50332764  0.79915055  1  1.528761  0  0.235036  0.64861  0  4.093194  0
C  C77  1  0.30455312  0.19555606  0.49885221  1  1.540139  0  0.234035  0.644164  0  4.099153  0
C  C78  1  0.01147179  0.50349638  0.18728398  1  1.539331  0  0.238195  0.650124  0  4.082278  0
C  C79  1  0.68737626  0.78948105  0.50803975  1  1.53042  0  0.237351  0.647862  0  4.087719  0
C  C80  1  0.60314177  0.48592628  0.90272666  1  -0.023617  0  -0.015548  -0.148671  0  3.944463  0
C  C81  1  0.41303453  0.48783195  0.10126109  1  -0.057734  0  -0.015678  -0.146039  0  3.94802  0
C  C82  1  0.56082942  0.56079690  0.95644011  1  -0.021322  0  -0.010507  0.056879  0  3.929953  0
C  C83  1  0.46431118  0.40055683  0.05765099  1  0.013329  0  0.002615  0.101159  0  3.865683  0
C  C84  1  0.46631094  0.56465683  0.04937106  1  -0.02288  0  -0.014166  0.050282  0  3.943287  0
C  C85  1  0.55234798  0.40441141  0.95507996  1  -0.003125  0  0.004888  0.105337  0  3.86946  0
C  C86  1  0.57975491  0.65154029  0.95713874  1  -0.013975  0  -0.155095  -0.20329  0  3.878345  0
C  C87  1  0.46982358  0.65889296  0.05988437  1  -0.002619  0  -0.154295  -0.193224  0  3.883002  0
C  C88  1  0.99435582  0.09938343  0.49922683  1  -0.109819  0  -0.015686  -0.148018  0  3.9329  0
C  C89  1  0.97933808  0.90980555  0.50470912  1  0.004362  0  -0.015143  -0.148385  0  3.932609  0
C  C90  1  0.06690452  0.04881783  0.41860169  1  0.025453  0  -0.011043  0.053157  0  3.930877  0
C  C91  1  0.89777886  0.96534475  0.58324780  1  -0.019269  0  0.001497  0.1019  0  3.855068  0
C  C92  1  0.06005807  0.95702337  0.42237563  1  -0.01572  0  -0.009612  0.060022  0  3.943147  0
C  C93  1  0.90600945  0.05761739  0.58158504  1  0.02615  0  0.003529  0.104407  0  3.843747  0
C  C94  1  0.16391753  0.05344368  0.31137436  1  -0.023169  0  -0.156701  -0.198322  0  3.884466  0
C  C95  1  0.15783686  0.94758498  0.31775575  1  -0.02596  0  -0.155962  -0.198859  0  3.886491  0
C  C96  1  0.58295518  0.88558232  0.51597219  1  0.049882  0  -0.013914  -0.141934  0  3.930814  0
C  C97  1  0.40075908  0.09143065  0.50583228  1  -0.017658  0  -0.019563  -0.155397  0  3.948646  0
C  C98  1  0.53306604  0.93674400  0.43682001  1  -0.080643  0  -0.009578  0.054276  0  3.930686  0
C  C99  1  0.45216587  0.04248318  0.58590474  1  -0.01095  0  -0.001536  0.099095  0  3.867928  0
C  C100  1  0.44217106  0.03308554  0.43524000  1  -0.031694  0  -0.011246  0.053138  0  3.93231  0
C  C101  1  0.53345547  0.93614450  0.59754221  1  -0.042654  0  0.000859  0.103581  0  3.869497  0
C  C102  1  0.53328801  0.92554311  0.34092467  1  -0.003057  0  -0.152816  -0.198006  0  3.876228  0
C  C103  1  0.42736652  0.03187338  0.34243381  1  -0.035819  0  -0.154929  -0.202304  0  3.8779  0
C  C104  1  0.01387279  0.50043155  0.08733495  1  -0.002763  0  -0.01696  -0.149248  0  3.938723  0
C  C105  1  0.00151157  0.49775434  0.90125147  1  -0.047985  0  -0.014585  -0.141692  0  3.945317  0
C  C106  1  0.94679462  0.58981303  0.02759789  1  -0.056853  0  -0.009685  0.057466  0  3.93253  0
C  C107  1  0.06497634  0.40221678  0.96518387  1  -0.001033  0  0.000339  0.095257  0  3.870897  0
C  C108  1  0.94431466  0.58999279  0.93521036  1  0.067171  0  -0.012115  0.049955  0  3.934101  0
C  C109  1  0.07850972  0.40715059  0.05031834  1  -0.007875  0  0.001314  0.103483  0  3.871177  0
C  C110  1  0.87028173  0.70797610  0.01479433  1  -0.014993  0  -0.152103  -0.19874  0  3.87257  0
C  C111  1  0.87058909  0.70929735  0.90774618  1  -0.034715  0  -0.153708  -0.19815  0  3.884773  0
C  C112  1  0.00663094  0.09800716  0.90465945  1  -0.005518  0  -0.029474  -0.197621  0  3.940674  0
C  C113  1  0.90902125  0.09949164  0.00064746  1  0.013619  0  -0.013166  0.053476  0  4.006517  0
C  C114  1  0.10141656  0.00579243  0.90601530  1  0.387325  0  0.092884  0.184951  0  4.045895  0
C  C115  1  0.81767241  0.19739580  0.00876059  1  -0.033151  0  -0.101059  -0.136293  0  4.006863  0
C  C116  1  0.72603714  0.19912249  0.10346839  1  -0.081971  0  -0.107078  -0.099967  0  4.067018  0
C  C117  1  0.00209710  0.90427380  0.09180316  1  0.051579  0  -0.034674  -0.214491  0  3.932313  0
C  C118  1  0.10025586  0.90849893  0.00261148  1  0.422287  0  0.099525  0.201339  0  4.055148  0
C  C119  1  0.90519273  0.00030302  0.09380013  1  -0.033331  0  -0.010149  0.064215  0  4.000535  0
C  C120  1  0.80773554  0.00400105  0.18814718  1  -0.039298  0  -0.106172  -0.150731  0  4.004225  0
C  C121  1  0.72052129  0.10108548  0.19338061  1  -0.075471  0  -0.105738  -0.094055  0  4.066485  0
C  C122  1  0.60353701  0.49604361  0.49152414  1  0.013044  0  -0.015491  -0.145735  0  3.934235  0
C  C123  1  0.39798793  0.51879955  0.49248834  1  -0.012064  0  -0.016987  -0.150681  0  3.931698  0
C  C124  1  0.53837913  0.43175207  0.57797668  1  -0.02198  0  -0.010772  0.053628  0  3.922772  0
C  C125  1  0.45927312  0.59028749  0.40660557  1  0.027944  0  0.000503  0.103257  0  3.865128  0
C  C126  1  0.44206195  0.44008300  0.57606109  1  -0.00288  0  -0.010972  0.056146  0  3.933737  0
C  C127  1  0.56482008  0.57204503  0.40106309  1  -0.038967  0  0.001679  0.10042  0  3.86006  0
C  C128  1  0.52600681  0.34428609  0.69117565  1  -0.013515  0  -0.155931  -0.200279  0  3.878572  0
C  C129  1  0.41861710  0.35193770  0.68754257  1  -0.040481  0  -0.155446  -0.199084  0  3.887676  0
C  C130  1  0.43350733  0.29752809  0.12164830  1  -0.044075  0  -0.247094  -0.421789  0  3.991217  0
C  C131  1  0.58923200  0.31907894  0.90580264  1  -0.0599  0  -0.248061  -0.426507  0  3.969848  0
C  C132  1  0.79749085  0.93209317  0.66751307  1  -0.051938  0  -0.251145  -0.432688  0  3.988858  0
C  C133  1  0.81753813  0.11133048  0.66796849  1  -0.067008  0  -0.249317  -0.416932  0  3.973778  0
C  C134  1  0.42801076  0.10216168  0.65736453  1  -0.055778  0  -0.248116  -0.421162  0  3.988175  0
C  C135  1  0.56003827  0.87600680  0.70241051  1  -0.040867  0  -0.248186  -0.422706  0  3.99318  0
C  C136  1  0.11360534  0.29247935  0.94829145  1  -0.038731  0  -0.244021  -0.408266  0  3.985916  0
C  C137  1  0.16694009  0.31450771  0.09659831  1  -0.075108  0  -0.246509  -0.419306  0  3.982513  0
C  C138  1  0.41375715  0.69243500  0.32220015  1  -0.03822  0  -0.246542  -0.420823  0  3.97952  0
C  C139  1  0.63481980  0.63356472  0.29422431  1  -0.074946  0  -0.246269  -0.413193  0  3.995463  0
N  N140  1  0.19776850  0.82053930  0.99845581  1  -1.199002  0  -0.601709  -0.609587  0  3.315936  0
N  N141  1  0.20163015  0.00226814  0.81915746  1  -1.226973  0  -0.598868  -0.61187  0  3.335545  0
O  O142  1  0.74360372  0.41977953  0.75400033  1  -1.184047  0  -0.359275  -0.612038  0  2.363342  0
O  O143  1  0.06529506  0.77134013  0.42338810  1  -1.170974  0  -0.341989  -0.608217  0  2.25343  0
O  O144  1  0.26759788  0.58157643  0.22836555  1  -1.180778  0  -0.345346  -0.614101  0  2.224741  0
O  O145  1  0.94386395  0.23061072  0.57659762  1  -1.191806  0  -0.364927  -0.617135  0  2.387024  0
O  O146  1  0.08527026  0.23464297  0.75684549  1  -1.184755  0  -0.351338  -0.62509  0  2.263373  0
O  O147  1  0.74173123  0.56962148  0.42796618  1  -1.182773  0  -0.357834  -0.613879  0  2.356991  0
O  O148  1  0.92500689  0.76280202  0.23080763  1  -1.180724  0  -0.342694  -0.609355  0  2.262478  0
O  O149  1  0.26313528  0.43613127  0.57072557  1  -1.17316  0  -0.345748  -0.611457  0  2.252753  0
O  O150  1  0.92015699  0.57764527  0.76452814  1  -1.177972  0  -0.344787  -0.607064  0  2.233994  0
O  O151  1  0.26952436  0.23445945  0.41952548  1  -1.182454  0  -0.346863  -0.611718  0  2.250918  0
O  O152  1  0.08637633  0.43017848  0.22913442  1  -1.184013  0  -0.352179  -0.606276  0  2.345534  0
O  O153  1  0.73241779  0.75061364  0.57945900  1  -1.185018  0  -0.356657  -0.612885  0  2.341551  0
O  O154  1  0.26143595  0.23880137  0.57360362  1  -1.187618  0  -0.355585  -0.616515  0  2.339703  0
O  O155  1  0.93097229  0.57863133  0.22788005  1  -1.180947  0  -0.352662  -0.61785  0  2.251264  0
O  O156  1  0.72879224  0.75582901  0.42659033  1  -1.171179  0  -0.344916  -0.606713  0  2.245831  0
O  O157  1  0.08030858  0.43395093  0.75106305  1  -1.190015  0  -0.360554  -0.620435  0  2.33099  0
O  O158  1  0.93164630  0.23224216  0.76247116  1  -1.174112  0  -0.342958  -0.604185  0  2.261476  0
O  O159  1  0.25228231  0.59117843  0.42268546  1  -1.188976  0  -0.356687  -0.61548  0  2.326351  0
O  O160  1  0.08055420  0.75868307  0.22737542  1  -1.191072  0  -0.362828  -0.640541  0  2.271404  0
O  O161  1  0.74070057  0.41265545  0.57467011  1  -1.183902  0  -0.341933  -0.610281  0  2.216704  0
O  O162  1  0.08642075  0.22998506  0.41586858  1  -1.18668  0  -0.343124  -0.612137  0  2.207897  0
O  O163  1  0.73425948  0.57243877  0.76179224  1  -1.177795  0  -0.348019  -0.608969  0  2.278046  0
O  O164  1  0.91877566  0.75648545  0.58066084  1  -1.186607  0  -0.362275  -0.612196  0  2.35602  0
O  O165  1  0.25931985  0.43095468  0.23360840  1  -1.176467  0  -0.359781  -0.605723  0  2.371664  0
O  O166  1  0.94009556  0.42914650  0.42850712  1  -1.221824  0  -0.694977  -1.071833  0  2.375268  0
O  O167  1  0.20327577  0.43756565  0.42828239  1  -1.248996  0  -0.69257  -1.068519  0  2.369427  0
O  O168  1  0.93006153  0.70103052  0.42976823  1  -1.239043  0  -0.692981  -1.068779  0  2.370413  0
O  O169  1  0.93699712  0.43179098  0.69726841  1  -1.216283  0  -0.697876  -1.069888  0  2.392372  0
O  O170  1  0.04827385  0.55260892  0.54502942  1  -1.196868  0  -0.793036  -1.146457  0  2.146769  0
O  O171  1  0.85511787  0.54496888  0.54624022  1  -1.1936  0  -0.792512  -1.149524  0  2.143921  0
O  O172  1  0.05091963  0.54953406  0.34961523  1  -1.192153  0  -0.789575  -1.144173  0  2.136811  0
O  O173  1  0.05556319  0.35228267  0.54471283  1  -1.195756  0  -0.794653  -1.150298  0  2.14797  0
