# generated using pymatgen
data_Zn4H6C24S4Br4N2O13
_symmetry_space_group_name_H-M   'P 1'
_cell_length_a   19.57020171
_cell_length_b   19.54342477
_cell_length_c   33.15157499
_cell_angle_alpha   79.51071548
_cell_angle_beta   79.39012030
_cell_angle_gamma   64.05169553
_symmetry_Int_Tables_number   1
_chemical_formula_structural   Zn4H6C24S4Br4N2O13
_chemical_formula_sum   'Zn16 H24 C96 S16 Br16 N8 O52'
_cell_volume   11132.17114919
_cell_formula_units_Z   4
loop_
 _symmetry_equiv_pos_site_id
 _symmetry_equiv_pos_as_xyz
  1  'x, y, z'
loop_
 _atom_site_type_symbol
 _atom_site_label
 _atom_site_symmetry_multiplicity
 _atom_site_fract_x
 _atom_site_fract_y
 _atom_site_fract_z
 _atom_site_occupancy
 _atom_site_pbe_bader_charge
 _atom_site_pbe_bader_spin_density
 _atom_site_pbe_cm5_charge
 _atom_site_pbe_ddec_charge
 _atom_site_pbe_ddec_spin_density
 _atom_site_pbe_ddec_sum_bond_order
 _atom_site_pbe_magmom
Zn  Zn0  1  0.05340751  0.39835106  0.48023646  1  1.324716  0  0.675277  0.981412  0  2.338475  0
Zn  Zn1  1  0.99092687  0.47625465  0.55898399  1  1.306553  0  0.663857  0.95149  0  2.37084  0
Zn  Zn2  1  0.05237849  0.56823995  0.48289167  1  1.316522  0  0.668638  0.964524  0  2.359717  0
Zn  Zn3  1  0.90395336  0.55888388  0.47487893  1  1.318558  0  0.670142  0.97071  0  2.349454  0
Zn  Zn4  1  0.69049441  0.35088847  0.27208702  1  1.320715  0  0.674274  0.979208  0  2.331154  0
Zn  Zn5  1  0.68208671  0.19842328  0.26658858  1  1.323098  0  0.675167  0.980355  0  2.343248  0
Zn  Zn6  1  0.77369645  0.26132069  0.18918420  1  1.313147  0  0.670264  0.970884  0  2.355434  0
Zn  Zn7  1  0.84812213  0.20103041  0.26960953  1  1.316058  0  0.668135  0.96123  0  2.364274  0
Zn  Zn8  1  0.27459088  0.75792213  0.68931890  1  1.316723  0  0.671855  0.970704  0  2.342453  0
Zn  Zn9  1  0.35138081  0.68994206  0.77054703  1  1.31542  0  0.669233  0.968615  0  2.362279  0
Zn  Zn10  1  0.19559110  0.84553933  0.77234991  1  1.323194  0  0.67655  0.984024  0  2.353143  0
Zn  Zn11  1  0.18509957  0.69362124  0.76597860  1  1.315484  0  0.666417  0.963895  0  2.352292  0
Zn  Zn12  1  0.55360233  0.06633179  0.98326040  1  1.318331  0  0.673008  0.970502  0  2.349636  0
Zn  Zn13  1  0.40020507  0.05319111  0.97909044  1  1.322071  0  0.676849  0.981119  0  2.345031  0
Zn  Zn14  1  0.55829271  0.89995334  0.97751783  1  1.321909  0  0.675464  0.983313  0  2.352619  0
Zn  Zn15  1  0.49268787  0.97685243  0.05986676  1  1.318062  0  0.672961  0.97156  0  2.347746  0
H  H16  1  0.45601664  0.24820717  0.33920406  1  0.116913  0  0.121711  0.147075  0  0.967844  0
H  H17  1  0.48504393  0.69557569  0.60168336  1  0.113137  0  0.121099  0.146628  0  0.969145  0
H  H18  1  0.19935238  0.97139224  0.59956664  1  0.104676  0  0.11987  0.145439  0  0.969834  0
H  H19  1  0.94195363  0.98253461  0.34926957  1  0.118716  0  0.118518  0.143412  0  0.972269  0
H  H20  1  0.55612551  0.76575455  0.14512931  1  0.09021  0  0.12046  0.145867  0  0.970065  0
H  H21  1  0.17562520  0.15538068  0.04485897  1  0.108129  0  0.121359  0.147224  0  0.968126  0
H  H22  1  0.30414729  0.26555666  0.88637037  1  0.111251  0  0.120847  0.14666  0  0.968928  0
H  H23  1  0.78508121  0.02085504  0.90809872  1  0.130984  0  0.120987  0.145768  0  0.968418  0
H  H24  1  0.32194694  0.54925397  0.41278309  1  0.449702  0  0.314352  0.310353  0  0.930681  0
H  H25  1  0.23448527  0.55054456  0.43713689  1  0.495043  0  0.300529  0.311851  0  0.975121  0
H  H26  1  0.77742277  0.52696226  0.68371593  1  0.448746  0  0.313922  0.310182  0  0.933884  0
H  H27  1  0.84508325  0.52135758  0.64043513  1  0.518862  0  0.300609  0.312601  0  0.975203  0
H  H28  1  0.06074813  0.25922273  0.68627665  1  0.447065  0  0.313091  0.308505  0  0.933933  0
H  H29  1  0.03270419  0.32865846  0.64425211  1  0.497735  0  0.301273  0.311445  0  0.971936  0
H  H30  1  0.74181787  0.80771558  0.38205250  1  0.458916  0  0.316155  0.31176  0  0.930763  0
H  H31  1  0.79473426  0.72970214  0.41545802  1  0.504587  0  0.306723  0.319572  0  0.96145  0
H  H32  1  0.70597487  0.47289023  0.06245782  1  0.434458  0  0.314059  0.309728  0  0.930503  0
H  H33  1  0.71922633  0.40557265  0.10590095  1  0.495345  0  0.301311  0.314743  0  0.965167  0
H  H34  1  0.14666784  0.07412088  0.23153725  1  0.446388  0  0.315861  0.310906  0  0.930435  0
H  H35  1  0.04758079  0.10588146  0.24173439  1  0.494755  0  0.304645  0.316601  0  0.965766  0
H  H36  1  0.49429902  0.44790184  0.86725834  1  0.470785  0  0.317333  0.314652  0  0.931051  0
H  H37  1  0.43705568  0.53239163  0.83856528  1  0.501193  0  0.308198  0.323674  0  0.960216  0
H  H38  1  0.93228686  0.69910892  0.85730677  1  0.449118  0  0.315069  0.310631  0  0.932153  0
H  H39  1  0.01938513  0.69678268  0.83132840  1  0.498729  0  0.306737  0.319838  0  0.960712  0
C  C40  1  0.06356001  0.30967518  0.56298497  1  1.497636  0  0.20511  0.61268  0  4.216158  0
C  C41  1  0.06737970  0.56840336  0.56793515  1  1.61308  0  0.218286  0.613235  0  4.157456  0
C  C42  1  0.17927008  0.44308014  0.44082547  1  1.515663  0  0.20706  0.622528  0  4.195269  0
C  C43  1  0.93546185  0.69184505  0.43634354  1  1.50696  0  0.206251  0.614769  0  4.212707  0
C  C44  1  0.93122826  0.43213393  0.43174418  1  1.615129  0  0.220829  0.619144  0  4.154942  0
C  C45  1  0.82220978  0.55980720  0.55983823  1  1.513735  0  0.206747  0.621151  0  4.195067  0
C  C46  1  0.55897971  0.31923850  0.31116612  1  1.573451  0  0.218074  0.610064  0  4.214428  0
C  C47  1  0.67902305  0.18595113  0.18123295  1  1.619523  0  0.217663  0.612591  0  4.193255  0
C  C48  1  0.69044282  0.42915028  0.18664296  1  1.488686  0  0.207042  0.619898  0  4.201303  0
C  C49  1  0.94078881  0.18608860  0.18939455  1  1.498737  0  0.204977  0.614347  0  4.213587  0
C  C50  1  0.81430129  0.32283976  0.31745688  1  1.591805  0  0.220478  0.618349  0  4.145281  0
C  C51  1  0.80552805  0.07575682  0.31093670  1  1.566209  0  0.218905  0.617483  0  4.195011  0
C  C52  1  0.44130568  0.68340570  0.68877219  1  1.575236  0  0.21828  0.611693  0  4.210998  0
C  C53  1  0.32169912  0.81171789  0.82018323  1  1.638001  0  0.21778  0.614142  0  4.220591  0
C  C54  1  0.19508367  0.92493495  0.68729354  1  1.560724  0  0.218968  0.615081  0  4.201741  0
C  C55  1  0.06430882  0.81333322  0.81269049  1  1.514069  0  0.205347  0.614391  0  4.214643  0
C  C56  1  0.18374277  0.68006992  0.68122297  1  1.609932  0  0.220269  0.619297  0  4.153185  0
C  C57  1  0.30592289  0.56359859  0.80779141  1  1.510598  0  0.20425  0.618164  0  4.204618  0
C  C58  1  0.43407828  0.17906933  0.93241532  1  1.576609  0  0.217272  0.607855  0  4.216543  0
C  C59  1  0.43278316  0.92788837  0.93165701  1  1.616087  0  0.217046  0.611484  0  4.227455  0
C  C60  1  0.68715000  0.94401011  0.94460842  1  1.581741  0  0.219099  0.613015  0  4.210388  0
C  C61  1  0.55819201  0.80983186  0.05849492  1  1.529385  0  0.217746  0.610455  0  4.216628  0
C  C62  1  0.56855673  0.07031438  0.06712831  1  1.592066  0  0.220744  0.615812  0  4.137006  0
C  C63  1  0.32622117  0.06684003  0.06585246  1  1.58203  0  0.218626  0.614355  0  4.208529  0
C  C64  1  0.90050785  0.40290071  0.40312883  1  0.087089  0  -0.014805  -0.086347  0  3.888548  0
C  C65  1  0.84347664  0.35029757  0.34769147  1  0.071718  0  -0.017137  -0.095182  0  3.882497  0
C  C66  1  0.82506213  0.44450878  0.39291889  1  -0.073754  0  -0.01399  0.051244  0  3.906876  0
C  C67  1  0.91612518  0.30494586  0.36132237  1  -0.010307  0  -0.011822  0.057532  0  3.897916  0
C  C68  1  0.79924712  0.42194875  0.36290880  1  -0.035423  0  -0.012537  0.053828  0  3.903325  0
C  C69  1  0.94670623  0.33381819  0.38583663  1  -0.010617  0  -0.014356  0.047789  0  3.910799  0
C  C70  1  0.09754000  0.59714671  0.59707074  1  0.02719  0  -0.014883  -0.088165  0  3.884536  0
C  C71  1  0.15452230  0.65071091  0.65194989  1  0.088539  0  -0.014891  -0.087636  0  3.891192  0
C  C72  1  0.14170268  0.63933370  0.58174313  1  0.004917  0  -0.012386  0.051889  0  3.904628  0
C  C73  1  0.11568578  0.60343725  0.66719340  1  -0.055559  0  -0.013722  0.050107  0  3.911211  0
C  C74  1  0.16483919  0.67054988  0.60888929  1  -0.026321  0  -0.012666  0.051607  0  3.910923  0
C  C75  1  0.08247791  0.58215805  0.64029863  1  0.000717  0  -0.012074  0.055606  0  3.899653  0
C  C76  1  0.29865038  0.46027199  0.40472150  1  0.499458  0  0.105444  0.284548  0  4.124569  0
C  C77  1  0.43915319  0.30460702  0.34831988  1  0.094126  0  -0.085985  -0.129646  0  3.956748  0
C  C78  1  0.25264695  0.41946709  0.41583284  1  -0.080297  0  -0.048988  -0.264136  0  3.956749  0
C  C79  1  0.48427860  0.34473341  0.33647210  1  -0.223088  0  -0.023763  -0.115461  0  3.982075  0
C  C80  1  0.37108894  0.34667000  0.37267741  1  -0.157344  0  -0.020573  0.010073  0  4.104372  0
C  C81  1  0.36629713  0.41773772  0.37943500  1  -0.180812  0  -0.030746  -0.12797  0  4.043045  0
C  C82  1  0.73513800  0.57629336  0.62821151  1  0.501901  0  0.104301  0.281096  0  4.129043  0
C  C83  1  0.53081198  0.66819052  0.62133756  1  0.139572  0  -0.085426  -0.129427  0  3.955743  0
C  C84  1  0.74867253  0.58513495  0.58479424  1  -0.058158  0  -0.048719  -0.261022  0  3.952916  0
C  C85  1  0.51664352  0.65898897  0.66400916  1  -0.207494  0  -0.024081  -0.115693  0  3.978671  0
C  C86  1  0.61007941  0.63743383  0.60806050  1  -0.194497  0  -0.021424  0.009357  0  4.101975  0
C  C87  1  0.65492913  0.60610563  0.64103074  1  -0.202432  0  -0.029695  -0.124279  0  4.040894  0
C  C88  1  0.08112497  0.21967091  0.63014626  1  0.557217  0  0.10337  0.278814  0  4.125729  0
C  C89  1  0.17430176  0.01611957  0.62000122  1  0.003158  0  -0.086476  -0.129429  0  3.958468  0
C  C90  1  0.08752546  0.23514595  0.58684068  1  -0.139315  0  -0.04728  -0.259499  0  3.956286  0
C  C91  1  0.16929294  0.00017071  0.66258381  1  -0.178651  0  -0.025444  -0.118399  0  3.983275  0
C  C92  1  0.14323083  0.09586743  0.60792433  1  -0.134799  0  -0.021403  0.007053  0  4.101727  0
C  C93  1  0.11424206  0.13907685  0.64171515  1  -0.112311  0  -0.030104  -0.12539  0  4.04543  0
C  C94  1  0.84021945  0.80705567  0.39589317  1  0.523322  0  0.105722  0.281592  0  4.133497  0
C  C95  1  0.89881764  0.96031404  0.35271653  1  0.075815  0  -0.086846  -0.128818  0  3.960798  0
C  C96  1  0.91025726  0.76638606  0.41256322  1  -0.068446  0  -0.047437  -0.260603  0  3.954024  0
C  C97  1  0.83059416  0.00052568  0.33571196  1  -0.208988  0  -0.025559  -0.118203  0  3.98251  0
C  C98  1  0.90329512  0.88938734  0.37411423  1  -0.14377  0  -0.021172  0.00748  0  4.104779  0
C  C99  1  0.83766210  0.87743845  0.37344418  1  -0.188557  0  -0.029684  -0.123951  0  4.040199  0
C  C100  1  0.64862648  0.15738684  0.15220226  1  0.025095  0  -0.013327  -0.073377  0  3.920598  0
C  C101  1  0.59527214  0.10131645  0.09676204  1  0.103428  0  -0.018503  -0.105291  0  3.862032  0
C  C102  1  0.63355924  0.19651714  0.11274265  1  -0.020398  0  -0.018172  0.041671  0  3.923611  0
C  C103  1  0.60390474  0.06647381  0.13823304  1  -0.043067  0  -0.010964  0.058801  0  3.886855  0
C  C104  1  0.61283469  0.16602491  0.08415109  1  -0.048665  0  -0.010839  0.059022  0  3.887433  0
C  C105  1  0.63571893  0.09106756  0.16432142  1  0.024451  0  -0.017481  0.042603  0  3.924448  0
C  C106  1  0.66459115  0.51557140  0.11833707  1  0.501069  0  0.103701  0.279446  0  4.121452  0
C  C107  1  0.57878223  0.72000095  0.12543412  1  0.013307  0  -0.085823  -0.127204  0  3.959893  0
C  C108  1  0.66227662  0.50238484  0.16164172  1  -0.080859  0  -0.047086  -0.260959  0  3.958288  0
C  C109  1  0.58204159  0.73425491  0.08283986  1  -0.152174  0  -0.025239  -0.116906  0  3.98209  0
C  C110  1  0.60880006  0.64072455  0.13850105  1  -0.097144  0  -0.021204  0.00618  0  4.109473  0
C  C111  1  0.63385646  0.59583274  0.10551501  1  -0.148014  0  -0.030257  -0.12373  0  4.037415  0
C  C112  1  0.08659324  0.11984635  0.18129910  1  0.508419  0  0.106179  0.281466  0  4.126721  0
C  C113  1  0.18134316  0.13467175  0.07732680  1  0.069814  0  -0.086482  -0.129294  0  3.961531  0
C  C114  1  0.01551060  0.16292871  0.16592387  1  -0.080022  0  -0.047908  -0.261349  0  3.95928  0
C  C115  1  0.25188183  0.09179292  0.09161601  1  -0.170957  0  -0.024818  -0.118174  0  3.980557  0
C  C116  1  0.12123591  0.14587297  0.10979254  1  -0.193681  0  -0.020905  0.008297  0  4.110478  0
C  C117  1  0.14704133  0.11087194  0.14842342  1  -0.185227  0  -0.029298  -0.123536  0  4.032341  0
C  C118  1  0.35089093  0.84134690  0.84918474  1  0.084413  0  -0.01841  -0.086065  0  3.944795  0
C  C119  1  0.40418990  0.89746153  0.90275749  1  0.120513  0  -0.01777  -0.085109  0  3.946509  0
C  C120  1  0.36407998  0.90734080  0.83610933  1  -0.056423  0  -0.017889  0.045652  0  3.941306  0
C  C121  1  0.39161479  0.83113465  0.91571262  1  -0.053812  0  -0.019183  0.044094  0  3.943475  0
C  C122  1  0.39050472  0.93554636  0.86299165  1  -0.057252  0  -0.01865  0.045479  0  3.943405  0
C  C123  1  0.36469239  0.80317351  0.88893880  1  0.004211  0  -0.018356  0.046114  0  3.942356  0
C  C124  1  0.39464029  0.45173641  0.85271169  1  0.526819  0  0.10586  0.284493  0  4.138813  0
C  C125  1  0.34416785  0.29048960  0.88618318  1  0.015668  0  -0.086975  -0.132601  0  3.954922  0
C  C126  1  0.32933271  0.48918900  0.83157246  1  -0.109199  0  -0.050465  -0.264861  0  3.955985  0
C  C127  1  0.40851616  0.25345702  0.90680206  1  -0.137108  0  -0.024141  -0.114247  0  3.981202  0
C  C128  1  0.33897444  0.36249748  0.86595328  1  -0.193994  0  -0.020462  0.012258  0  4.094823  0
C  C129  1  0.39939158  0.37875044  0.87197946  1  -0.120523  0  -0.030866  -0.127354  0  4.051962  0
C  C130  1  0.94956794  0.79609817  0.85541530  1  0.52911  0  0.105543  0.282947  0  4.133193  0
C  C131  1  0.80419679  0.96149031  0.90301864  1  0.004394  0  -0.085267  -0.128245  0  3.954433  0
C  C132  1  0.99206630  0.83913328  0.83863330  1  -0.12719  0  -0.048001  -0.261917  0  3.957536  0
C  C133  1  0.76199107  0.91950854  0.91943149  1  -0.156738  0  -0.024455  -0.11917  0  3.983763  0
C  C134  1  0.87248482  0.91717231  0.87944388  1  -0.111538  0  -0.021417  0.007616  0  4.10003  0
C  C135  1  0.88077477  0.84217805  0.87863762  1  -0.189719  0  -0.030601  -0.127063  0  4.051357  0
S  S136  1  0.29199277  0.33126533  0.39597829  1  0.246767  0  0.053954  0.095061  0  2.75206  0
S  S137  1  0.44438699  0.43376565  0.35479263  1  0.257227  0  0.073789  0.121327  0  2.753492  0
S  S138  1  0.66496633  0.63004016  0.56066831  1  0.243027  0  0.054049  0.094884  0  2.750686  0
S  S139  1  0.59956102  0.61341581  0.68826753  1  0.24198  0  0.07047  0.117029  0  2.751867  0
S  S140  1  0.13194016  0.15290058  0.56125897  1  0.245186  0  0.060338  0.102883  0  2.742734  0
S  S141  1  0.12623350  0.08178638  0.68823679  1  0.250833  0  0.072268  0.122029  0  2.766899  0
S  S142  1  0.97032962  0.81412425  0.40142717  1  0.26251  0  0.055144  0.096032  0  2.744337  0
S  S143  1  0.77113127  0.95278359  0.34593418  1  0.236432  0  0.071045  0.120181  0  2.761966  0
S  S144  1  0.62236995  0.58611623  0.18576514  1  0.247892  0  0.058252  0.101664  0  2.755463  0
S  S145  1  0.62092445  0.65142170  0.05838668  1  0.243159  0  0.071644  0.119065  0  2.750666  0
S  S146  1  0.02300726  0.19083833  0.11269214  1  0.274657  0  0.055809  0.096973  0  2.751208  0
S  S147  1  0.24551156  0.06468299  0.14469545  1  0.268702  0  0.072649  0.119485  0  2.742375  0
S  S148  1  0.27515085  0.43611218  0.83604710  1  0.232134  0  0.047902  0.086624  0  2.740893  0
S  S149  1  0.46296219  0.30561176  0.90187257  1  0.254781  0  0.072674  0.121389  0  2.779106  0
S  S150  1  0.94870102  0.93315312  0.85155450  1  0.24747  0  0.056549  0.097421  0  2.737388  0
S  S151  1  0.80490396  0.82613582  0.90653447  1  0.248933  0  0.072831  0.122182  0  2.776408  0
Br  Br152  1  0.75468541  0.52857379  0.42160566  1  -0.00593  0  0.038377  -0.030844  0  1.516163  0
Br  Br153  1  0.97277571  0.20154987  0.35016643  1  -0.00708  0  0.036319  -0.032719  0  1.520963  0
Br  Br154  1  0.70678885  0.49257608  0.34177614  1  0.011558  0  0.042317  -0.022965  0  1.516721  0
Br  Br155  1  0.05204590  0.28075211  0.39290265  1  0.008688  0  0.045723  -0.020228  0  1.512574  0
Br  Br156  1  0.17517981  0.65198105  0.52449974  1  -0.004804  0  0.042258  -0.026318  0  1.525021  0
Br  Br157  1  0.11248906  0.56275092  0.72368884  1  0.002077  0  0.040538  -0.02782  0  1.519052  0
Br  Br158  1  0.20535322  0.74354503  0.58665137  1  0.004073  0  0.04463  -0.022212  0  1.51112  0
Br  Br159  1  0.01232862  0.53845220  0.66393669  1  -0.011404  0  0.032075  -0.037485  0  1.517913  0
Br  Br160  1  0.63818284  0.29330056  0.09969386  1  -0.011098  0  0.038562  -0.036226  0  1.537222  0
Br  Br161  1  0.56955831  0.98965946  0.16265408  1  0.018674  0  0.044058  -0.015839  0  1.538185  0
Br  Br162  1  0.61459030  0.21343138  0.02890174  1  0.017177  0  0.040563  -0.021057  0  1.540595  0
Br  Br163  1  0.66457961  0.03385037  0.21594018  1  -0.005812  0  0.039713  -0.032201  0  1.508521  0
Br  Br164  1  0.34711533  0.95606290  0.78171393  1  -0.009056  0  0.041499  -0.027051  0  1.444361  0
Br  Br165  1  0.41100202  0.78126915  0.96968452  1  -0.007766  0  0.041726  -0.026732  0  1.447201  0
Br  Br166  1  0.40934402  0.02435790  0.84648602  1  -0.013496  0  0.04092  -0.026194  0  1.439916  0
Br  Br167  1  0.34509098  0.71484264  0.90580798  1  -0.013397  0  0.039466  -0.028038  0  1.440028  0
N  N168  1  0.28020467  0.53092523  0.41531251  1  -1.260484  0  -0.582309  -0.591548  0  3.334214  0
N  N169  1  0.79037626  0.54596994  0.65414113  1  -1.282731  0  -0.584006  -0.595072  0  3.344079  0
N  N170  1  0.04644337  0.27356185  0.65711245  1  -1.276327  0  -0.585297  -0.595445  0  3.329261  0
N  N171  1  0.78268168  0.78380316  0.40139464  1  -1.281253  0  -0.580651  -0.592091  0  3.337098  0
N  N172  1  0.69021314  0.45986535  0.09265506  1  -1.246935  0  -0.582531  -0.589706  0  3.329197  0
N  N173  1  0.09589186  0.08910248  0.22127486  1  -1.245297  0  -0.58112  -0.590833  0  3.332524  0
N  N174  1  0.44447997  0.48131668  0.85547628  1  -1.286759  0  -0.579274  -0.593463  0  3.35405  0
N  N175  1  0.97168509  0.72112832  0.85126016  1  -1.254926  0  -0.579716  -0.591594  0  3.336408  0
O  O176  1  0.99989534  0.50049152  0.49919636  1  -1.229075  0  -0.577167  -1.023801  0  2.538132  0
O  O177  1  0.08170646  0.31203667  0.52375132  1  -1.152741  0  -0.323356  -0.547231  0  2.334614  0
O  O178  1  0.06567222  0.50328559  0.57890619  1  -1.161323  0  -0.314632  -0.542218  0  2.367054  0
O  O179  1  0.15498474  0.50631406  0.45716472  1  -1.181916  0  -0.325212  -0.565014  0  2.327609  0
O  O180  1  0.02566811  0.36885079  0.58307953  1  -1.177931  0  -0.322276  -0.553811  0  2.320792  0
O  O181  1  0.14430645  0.39936243  0.44474323  1  -1.164119  0  -0.329688  -0.56099  0  2.337644  0
O  O182  1  0.04608359  0.61121094  0.53475601  1  -1.162277  0  -0.311712  -0.537875  0  2.360369  0
O  O183  1  0.00410229  0.66112616  0.44601246  1  -1.175904  0  -0.328577  -0.552529  0  2.333578  0
O  O184  1  0.91193838  0.50396826  0.42770168  1  -1.164049  0  -0.315232  -0.545579  0  2.358396  0
O  O185  1  0.88703296  0.66119597  0.44615511  1  -1.182771  0  -0.319949  -0.553386  0  2.318643  0
O  O186  1  0.97394728  0.38291441  0.45748100  1  -1.158665  0  -0.310142  -0.537683  0  2.36077  0
O  O187  1  0.88213874  0.52961487  0.57945525  1  -1.176881  0  -0.324224  -0.563551  0  2.329299  0
O  O188  1  0.82206876  0.56896353  0.52046847  1  -1.185979  0  -0.330326  -0.562024  0  2.340836  0
O  O189  1  0.74813453  0.25252187  0.24924072  1  -1.231095  0  -0.576879  -1.029455  0  2.53444  0
O  O190  1  0.58675123  0.36891585  0.29882892  1  -1.163849  0  -0.318889  -0.545146  0  2.321498  0
O  O191  1  0.63930126  0.20104580  0.21597752  1  -1.163697  0  -0.310308  -0.537632  0  2.337111  0
O  O192  1  0.71889360  0.36881749  0.16740125  1  -1.172217  0  -0.321864  -0.561255  0  2.337575  0
O  O193  1  0.58980526  0.24938990  0.30378046  1  -1.164314  0  -0.316049  -0.535883  0  2.30956  0
O  O194  1  0.68538428  0.43000167  0.22578711  1  -1.171343  0  -0.329634  -0.559667  0  2.332877  0
O  O195  1  0.74173968  0.19163857  0.16816185  1  -1.154971  0  -0.309733  -0.535897  0  2.327467  0
O  O196  1  0.88259249  0.22876264  0.16995131  1  -1.171189  0  -0.3284  -0.554335  0  2.329103  0
O  O197  1  0.86376775  0.28179777  0.29088001  1  -1.163517  0  -0.316441  -0.545926  0  2.367806  0
O  O198  1  0.93767635  0.16232378  0.22850628  1  -1.175464  0  -0.321206  -0.554315  0  2.321366  0
O  O199  1  0.74260955  0.34251500  0.32051264  1  -1.140684  0  -0.311251  -0.539006  0  2.367178  0
O  O200  1  0.74330828  0.09817827  0.29486470  1  -1.170866  0  -0.322548  -0.556119  0  2.341019  0
O  O201  1  0.84797996  0.11146527  0.30781537  1  -1.161044  0  -0.320529  -0.548774  0  2.317985  0
O  O202  1  0.25232045  0.74717737  0.74967331  1  -1.231705  0  -0.57549  -1.028388  0  2.531525  0
O  O203  1  0.38356261  0.72490908  0.66919253  1  -1.169226  0  -0.315872  -0.536813  0  2.313791  0
O  O204  1  0.37085010  0.75336449  0.80335640  1  -1.161311  0  -0.310498  -0.537485  0  2.334393  0
O  O205  1  0.18884461  0.92595658  0.72634840  1  -1.155233  0  -0.321508  -0.552899  0  2.348688  0
O  O206  1  0.44000671  0.66124293  0.72764102  1  -1.156869  0  -0.321739  -0.549407  0  2.318198  0
O  O207  1  0.22113049  0.86595490  0.66782719  1  -1.164236  0  -0.319951  -0.547874  0  2.310968  0
O  O208  1  0.25130786  0.84857974  0.81568178  1  -1.167325  0  -0.307189  -0.534123  0  2.33377  0
O  O209  1  0.09302951  0.86211606  0.79894144  1  -1.169077  0  -0.327351  -0.552824  0  2.329546  0
O  O210  1  0.14078562  0.70145025  0.71447934  1  -1.161675  0  -0.313308  -0.541921  0  2.347422  0
O  O211  1  0.09501915  0.74259454  0.80508458  1  -1.172707  0  -0.321852  -0.556894  0  2.319595  0
O  O212  1  0.24895488  0.68145970  0.67032578  1  -1.158872  0  -0.312921  -0.541621  0  2.350639  0
O  O213  1  0.34928094  0.59892734  0.80607175  1  -1.187649  0  -0.324505  -0.564992  0  2.337889  0
O  O214  1  0.24462021  0.58919983  0.79021171  1  -1.179549  0  -0.332581  -0.564478  0  2.334111  0
O  O215  1  0.50039598  0.99873531  0.99937517  1  -1.234623  0  -0.574505  -1.033576  0  2.529982  0
O  O216  1  0.49911553  0.15594545  0.94543902  1  -1.171809  0  -0.319677  -0.545003  0  2.347828  0
O  O217  1  0.38230750  0.98295644  0.95049452  1  -1.155059  0  -0.308386  -0.534841  0  2.323701  0
O  O218  1  0.65938692  0.89394145  0.95338603  1  -1.178527  0  -0.321205  -0.549131  0  2.348728  0
O  O219  1  0.38986366  0.14461955  0.93965751  1  -1.148145  0  -0.316895  -0.542786  0  2.310299  0
O  O220  1  0.65674013  0.01176546  0.95531652  1  -1.165305  0  -0.317396  -0.539983  0  2.300646  0
O  O221  1  0.50426860  0.89507073  0.93394104  1  -1.148658  0  -0.308169  -0.534604  0  2.328722  0
O  O222  1  0.57061274  0.81125183  0.01907588  1  -1.141407  0  -0.321234  -0.553237  0  2.33529  0
O  O223  1  0.56897357  0.00406571  0.07716931  1  -1.170511  0  -0.317061  -0.546618  0  2.405293  0
O  O224  1  0.52727810  0.86751027  0.07903153  1  -1.159883  0  -0.316317  -0.537254  0  2.324174  0
O  O225  1  0.54720477  0.11184282  0.03349108  1  -1.163466  0  -0.314934  -0.541731  0  2.408606  0
O  O226  1  0.32344005  0.08488209  0.02697039  1  -1.177253  0  -0.317265  -0.541952  0  2.32276  0
O  O227  1  0.38629977  0.02931327  0.08440017  1  -1.175315  0  -0.321667  -0.551692  0  2.319027  0
