# generated using pymatgen
data_Zn2H19C31IN8O
_symmetry_space_group_name_H-M   'P 1'
_cell_length_a   14.82184004
_cell_length_b   14.95509428
_cell_length_c   14.89654140
_cell_angle_alpha   110.22968521
_cell_angle_beta   106.97863071
_cell_angle_gamma   110.10802612
_symmetry_Int_Tables_number   1
_chemical_formula_structural   Zn2H19C31IN8O
_chemical_formula_sum   'Zn4 H38 C62 I2 N16 O2'
_cell_volume   2573.73667441
_cell_formula_units_Z   2
loop_
 _symmetry_equiv_pos_site_id
 _symmetry_equiv_pos_as_xyz
  1  'x, y, z'
loop_
 _atom_site_type_symbol
 _atom_site_label
 _atom_site_symmetry_multiplicity
 _atom_site_fract_x
 _atom_site_fract_y
 _atom_site_fract_z
 _atom_site_occupancy
 _atom_site_pbe_bader_charge
 _atom_site_pbe_bader_spin_density
 _atom_site_pbe_cm5_charge
 _atom_site_pbe_ddec_charge
 _atom_site_pbe_ddec_spin_density
 _atom_site_pbe_ddec_sum_bond_order
 _atom_site_pbe_magmom
Zn  Zn0  1  0.01538304  0.64359369  0.15153477  1  1.186729  0  0.740019  0.611201  0  2.441474  0
Zn  Zn1  1  0.00241926  0.37131115  0.86823997  1  1.178126  0  0.737999  0.588901  0  2.519512  0
Zn  Zn2  1  0.13915574  0.63524215  0.99733058  1  1.190241  0  0.724881  0.605547  0  2.446977  0
Zn  Zn3  1  0.87303462  0.36996965  0.01188890  1  1.191165  0  0.738853  0.618576  0  2.440308  0
H  H4  1  0.95435437  0.81704857  0.54370347  1  0.028246  0  0.097985  0.09281  0  0.996777  0
H  H5  1  0.53013602  0.33266581  0.04664359  1  0.019983  0  0.088905  0.090658  0  1.044117  0
H  H6  1  0.69492993  0.14588445  0.53120556  1  0.058985  0  0.09828  0.098675  0  1.001353  0
H  H7  1  0.33163986  0.11302595  0.44435521  1  0.063969  0  0.099814  0.10072  0  0.99605  0
H  H8  1  0.53622532  0.98997490  0.36130695  1  0.055598  0  0.08976  0.093665  0  1.02953  0
H  H9  1  0.49116001  0.27013926  0.61441005  1  0.067783  0  0.09475  0.100205  0  1.015349  0
H  H10  1  0.04955181  0.31623031  0.33003678  1  0.037773  0  0.09823  0.097489  0  1.005135  0
H  H11  1  0.26766941  0.66648073  0.67805830  1  0.033915  0  0.096933  0.097198  0  1.004595  0
H  H12  1  0.05333490  0.31616443  0.49487377  1  0.056408  0  0.096271  0.094959  0  1.008543  0
H  H13  1  0.26325571  0.66672407  0.51263619  1  0.059479  0  0.099298  0.099853  0  1.001515  0
H  H14  1  0.99997104  0.82870535  0.82306828  1  0.027888  0  0.095592  0.091376  0  1.017362  0
H  H15  1  0.17354455  0.19467984  0.70341226  1  0.050656  0  0.096947  0.093425  0  1.000631  0
H  H16  1  0.71343119  0.90762663  0.87086212  1  0.056354  0  0.099458  0.097208  0  1.000745  0
H  H17  1  0.84376284  0.35361898  0.66602162  1  0.10039  0  0.11954  0.110609  0  0.997986  0
H  H18  1  0.20964021  0.89998525  0.37074372  1  0.099094  0  0.121417  0.111575  0  0.990063  0
H  H19  1  0.97907718  0.97371305  0.79375497  1  0.0756  0  0.097867  0.099835  0  1.051982  0
H  H20  1  0.73325049  0.76148992  0.89896728  1  0.119508  0  0.103542  0.113891  0  1.018536  0
H  H21  1  0.21393630  0.67398956  0.81398537  1  0.097703  0  0.110123  0.093827  0  1.025658  0
H  H22  1  0.01392249  0.31959705  0.16933217  1  0.072824  0  0.114448  0.100576  0  1.008847  0
H  H23  1  0.68280645  0.32977753  0.08680588  1  0.049022  0  0.109083  0.095485  0  1.020288  0
H  H24  1  0.36717850  0.66916698  0.15216713  1  0.088683  0  0.107458  0.094258  0  1.034559  0
H  H25  1  0.04253659  0.31866816  0.64896055  1  0.084612  0  0.114096  0.099839  0  1.015939  0
H  H26  1  0.77602525  0.64523397  0.42537742  1  0.049385  0  0.102427  0.104855  0  0.990906  0
H  H27  1  0.19321755  0.67501690  0.35312241  1  0.107161  0  0.115351  0.101391  0  1.009835  0
H  H28  1  0.84669433  0.68387767  0.24332558  1  0.10296  0  0.111294  0.097944  0  1.065627  0
H  H29  1  0.17448297  0.31514723  0.99609085  1  0.109116  0  0.116207  0.10881  0  1.014029  0
H  H30  1  0.98777687  0.66337852  0.81590044  1  0.08887  0  0.11994  0.111436  0  0.998184  0
H  H31  1  0.80028429  0.10998552  0.97246425  1  0.072464  0  0.122114  0.111797  0  0.993208  0
H  H32  1  0.99918499  0.96623608  0.49749847  1  0.063315  0  0.095016  0.08922  0  1.009957  0
H  H33  1  0.10614176  0.01872193  0.70537190  1  0.051494  0  0.099565  0.10023  0  1.01562  0
H  H34  1  0.89991114  0.74416036  0.14929861  1  0.023282  0  0.090704  0.012864  0  1.038199  0
H  H35  1  0.96673786  0.18473413  0.71439015  1  0.017278  0  0.086947  0.008427  0  1.006832  0
H  H36  1  0.31733577  0.36882644  0.87245127  1  0.073249  0  0.103168  0.109419  0  0.989435  0
H  H37  1  0.68225770  0.77519061  0.22024182  1  0.053554  0  0.099377  0.101681  0  1.003269  0
H  H38  1  0.32848302  0.19198034  0.04631703  1  0.034138  0  0.100337  0.103231  0  0.99704  0
H  H39  1  0.86129772  0.94563102  0.33617643  1  0.047491  0  0.098233  0.09575  0  0.995884  0
H  H40  1  0.18429026  0.01753620  0.87766015  1  0.034564  0  0.097286  0.094063  0  1.005762  0
H  H41  1  0.51006717  0.65413715  0.25939164  1  0.054619  0  0.09987  0.105627  0  1.006209  0
C  C42  1  0.89785528  0.70488310  0.99565766  1  0.409109  0  0.076029  0.046287  0  3.967986  0
C  C43  1  0.20755116  0.19372445  0.77847637  1  -0.055429  0  -0.101149  -0.094455  0  4.060369  0
C  C44  1  0.79435105  0.71207604  0.40717894  1  -0.014424  0  -0.090574  -0.135125  0  3.982422  0
C  C45  1  0.28806068  0.29154370  0.87318228  1  -0.051453  0  -0.0942  -0.141935  0  3.993089  0
C  C46  1  0.71680036  0.69915822  0.31549888  1  -0.089012  0  -0.010457  0.071176  0  4.003143  0
C  C47  1  0.33264393  0.29176461  0.97056691  1  0.016055  0  -0.007644  0.078971  0  4.005617  0
C  C48  1  0.74110968  0.78553433  0.29262854  1  0.020562  0  -0.093317  -0.138112  0  3.981206  0
C  C49  1  0.29451036  0.19219423  0.97081194  1  -0.088425  0  -0.096974  -0.14394  0  3.989545  0
C  C50  1  0.84259130  0.88084390  0.35723103  1  -0.075336  0  -0.098069  -0.088489  0  4.048533  0
C  C51  1  0.21365580  0.09419428  0.87579447  1  -0.051262  0  -0.100253  -0.091496  0  4.057484  0
C  C52  1  0.92011669  0.89169641  0.44665667  1  -0.047336  0  -0.098723  -0.092439  0  4.052539  0
C  C53  1  0.90361528  0.12666712  0.80789031  1  0.375452  0  0.075089  0.039553  0  4.010147  0
C  C54  1  0.17021034  0.09462339  0.77936468  1  -0.005721  0  -0.101975  -0.099625  0  4.041333  0
C  C55  1  0.51392159  0.58267477  0.21163488  1  -0.006187  0  -0.092682  -0.177836  0  3.96491  0
C  C56  1  0.52654627  0.40308758  0.09682552  1  -0.023923  0  -0.097367  -0.180784  0  3.994184  0
C  C57  1  0.80837260  0.34784770  0.71965049  1  0.330795  0  0.006046  -0.045645  0  3.970608  0
C  C58  1  0.22909692  0.87802235  0.30415972  1  0.400477  0  0.011199  -0.047633  0  3.988669  0
C  C59  1  0.41678793  0.48729260  0.12676404  1  -0.042474  0  -0.008691  0.044098  0  4.017885  0
C  C60  1  0.62400525  0.50073994  0.17527611  1  -0.038021  0  -0.009779  0.04522  0  4.008615  0
C  C61  1  0.42464611  0.39492762  0.06925279  1  -0.020175  0  -0.012266  0.019294  0  3.985188  0
C  C62  1  0.61638667  0.59210163  0.23572338  1  0.042628  0  -0.008342  0.025808  0  3.983314  0
C  C63  1  0.61561104  0.14049816  0.51120032  1  -0.09221  0  -0.093458  -0.120705  0  3.981758  0
C  C64  1  0.69851986  0.29663853  0.69474824  1  0.061968  0  -0.035705  -0.064039  0  4.057625  0
C  C65  1  0.41152100  0.12004639  0.46356378  1  -0.049692  0  -0.095495  -0.129976  0  3.989283  0
C  C66  1  0.52589689  0.05220537  0.41531099  1  0.003268  0  -0.100134  -0.13564  0  4.006623  0
C  C67  1  0.50152101  0.20867197  0.55957847  1  -0.032044  0  -0.098789  -0.135195  0  4.0142  0
C  C68  1  0.42130588  0.03810612  0.39157159  1  -0.020555  0  -0.015287  0.086731  0  4.052195  0
C  C69  1  0.60483895  0.21833703  0.58718644  1  0.010015  0  -0.014254  0.087403  0  4.034936  0
C  C70  1  0.09848808  0.39380292  0.40619114  1  -0.006586  0  -0.097456  -0.132801  0  4.004511  0
C  C71  1  0.21896307  0.58902758  0.60169480  1  -0.025919  0  -0.099264  -0.135735  0  4.008348  0
C  C72  1  0.10052826  0.39378295  0.50004266  1  -0.057642  0  -0.099178  -0.136588  0  4.013965  0
C  C73  1  0.21671372  0.58908332  0.50772639  1  -0.04797  0  -0.09562  -0.133451  0  4.002654  0
C  C74  1  0.15589932  0.49227974  0.59920208  1  0.011022  0  -0.017586  0.075475  0  4.059856  0
C  C75  1  0.32461366  0.93631713  0.30111292  1  0.0526  0  -0.037124  -0.06701  0  4.079216  0
C  C76  1  0.15112511  0.49229667  0.40639565  1  -0.036886  0  -0.011973  0.082765  0  4.044845  0
C  C77  1  0.93529035  0.84404377  0.83164287  1  -0.01379  0  -0.094119  -0.132326  0  3.997564  0
C  C78  1  0.77652509  0.89043598  0.86002112  1  -0.058242  0  -0.09148  -0.12803  0  3.988359  0
C  C79  1  0.92445186  0.92665694  0.81582009  1  -0.026379  0  -0.091592  -0.122097  0  3.985011  0
C  C80  1  0.78681806  0.80700151  0.87507596  1  -0.01199  0  -0.089765  -0.119302  0  3.973804  0
C  C81  1  0.16860454  0.58726890  0.78723651  1  0.382098  0  0.00242  -0.059737  0  3.998054  0
C  C82  1  0.05075956  0.40736832  0.19939057  1  0.392021  0  0.00627  -0.048351  0  3.959584  0
C  C83  1  0.84870509  0.95572403  0.83584220  1  -0.0374  0  -0.010808  0.080148  0  4.03708  0
C  C84  1  0.87083086  0.78637554  0.86743350  1  0.013853  0  -0.009559  0.08287  0  4.026996  0
C  C85  1  0.73681525  0.41679094  0.12176714  1  0.451608  0  0.000133  -0.057513  0  4.029543  0
C  C86  1  0.13995903  0.49499848  0.69220951  1  0.045579  0  -0.039055  -0.038911  0  4.08869  0
C  C87  1  0.30461901  0.58340506  0.10770109  1  0.411493  0  0.007493  -0.044278  0  3.952923  0
C  C88  1  0.08108152  0.40637187  0.70307152  1  0.361815  0  0.002884  -0.063627  0  4.000342  0
C  C89  1  0.14265734  0.58841095  0.29295686  1  0.353874  0  0.006646  -0.046881  0  3.953397  0
C  C90  1  0.82031633  0.59715286  0.20117450  1  0.428448  0  0.008094  -0.043527  0  3.974475  0
C  C91  1  0.20671858  0.40257039  0.02692338  1  0.42175  0  0.009246  -0.042228  0  3.951364  0
C  C92  1  0.70377718  0.31847252  0.79686895  1  0.264977  0  0.041649  0.077716  0  3.937194  0
C  C93  1  0.30393132  0.86690089  0.19651031  1  0.219294  0  0.037762  0.07064  0  3.969483  0
C  C94  1  0.96378784  0.67177628  0.87930348  1  0.417268  0  0.009799  -0.058003  0  3.945393  0
C  C95  1  0.83472326  0.12667972  0.92115024  1  0.426508  0  0.012552  -0.06461  0  3.968969  0
C  C96  1  0.90167425  0.71868619  0.90650775  1  -0.001998  0  -0.011109  -0.026171  0  3.982224  0
C  C97  1  0.12392860  0.49553612  0.30532322  1  0.046145  0  -0.035219  -0.037121  0  4.064506  0
C  C98  1  0.85664503  0.05980555  0.84809685  1  0.024906  0  -0.009776  -0.021293  0  3.992874  0
C  C99  1  0.86374336  0.74877149  0.07497136  1  0.953172  0  0.09168  0.255174  0  4.025594  0
C  C100  1  0.93369275  0.10882215  0.72142382  1  0.954098  0  0.092491  0.247983  0  4.056324  0
C  C101  1  0.72466642  0.50657666  0.17480137  1  0.001402  0  -0.036482  -0.031329  0  4.051642  0
C  C102  1  0.31471078  0.48967679  0.09319439  1  -0.022223  0  -0.035285  -0.034471  0  4.056587  0
C  C103  1  0.89501272  0.80781326  0.47242116  1  -0.020741  0  -0.09318  -0.073813  0  4.034436  0
I  I104  1  0.57497467  0.26650050  0.83095065  1  0.146941  0  0.112021  -0.002793  0  1.500089  0
I  I105  1  0.39442620  0.88518975  0.11401990  1  0.131679  0  0.103164  -0.01457  0  1.409378  0
N  N106  1  0.95564341  0.65401028  0.01702288  1  -0.743848  0  -0.258132  -0.196958  0  3.571795  0
N  N107  1  0.08266463  0.55703436  0.18877179  1  -0.763497  0  -0.284165  -0.18355  0  3.607344  0
N  N108  1  0.88175594  0.56329073  0.16404433  1  -0.810943  0  -0.278222  -0.186063  0  3.561297  0
N  N109  1  0.13968705  0.44224522  0.00252894  1  -0.79838  0  -0.286921  -0.178255  0  3.635618  0
N  N110  1  0.80824908  0.37593545  0.87501000  1  -0.770591  0  -0.281011  -0.21927  0  3.556264  0
N  N111  1  0.20548996  0.77620446  0.14279456  1  -0.748565  0  -0.27217  -0.209924  0  3.532521  0
N  N112  1  0.99554808  0.63461317  0.94694199  1  -0.749023  0  -0.258445  -0.146323  0  3.615344  0
N  N113  1  0.86736048  0.22527875  0.92580851  1  -0.74819  0  -0.247795  -0.136239  0  3.551933  0
N  N114  1  0.91015683  0.22583773  0.85756757  1  -0.728506  0  -0.250893  -0.189713  0  3.526003  0
N  N115  1  0.87279596  0.39396663  0.82661088  1  -0.76806  0  -0.284597  -0.184497  0  3.595746  0
N  N116  1  0.15919992  0.78311617  0.21051024  1  -0.776779  0  -0.263787  -0.158887  0  3.535418  0
N  N117  1  0.12964336  0.55576710  0.84864269  1  -0.777947  0  -0.270923  -0.175715  0  3.55001  0
N  N118  1  0.02603621  0.44549021  0.13117222  1  -0.809772  0  -0.284651  -0.191435  0  3.619239  0
N  N119  1  0.82955333  0.45053618  0.11456385  1  -0.804869  0  -0.283792  -0.180586  0  3.584972  0
N  N120  1  0.19984693  0.55344623  0.05238028  1  -0.774514  0  -0.285502  -0.178955  0  3.626267  0
N  N121  1  0.07529768  0.44327018  0.79630504  1  -0.802837  0  -0.274335  -0.17303  0  3.563557  0
O  O122  1  0.80566002  0.79078991  0.06991636  1  -1.084514  0  -0.266977  -0.356751  0  2.133509  0
O  O123  1  0.92398103  0.02347843  0.65825396  1  -1.08427  0  -0.248519  -0.340633  0  2.211492  0
