# generated using pymatgen
data_AgH33C30N4O3
_symmetry_space_group_name_H-M   'P 1'
_cell_length_a   8.46045007
_cell_length_b   10.62553288
_cell_length_c   17.38730062
_cell_angle_alpha   83.66603298
_cell_angle_beta   81.85801313
_cell_angle_gamma   84.10901375
_symmetry_Int_Tables_number   1
_chemical_formula_structural   AgH33C30N4O3
_chemical_formula_sum   'Ag2 H66 C60 N8 O6'
_cell_volume   1531.83616951
_cell_formula_units_Z   2
loop_
 _symmetry_equiv_pos_site_id
 _symmetry_equiv_pos_as_xyz
  1  'x, y, z'
loop_
 _atom_site_type_symbol
 _atom_site_label
 _atom_site_symmetry_multiplicity
 _atom_site_fract_x
 _atom_site_fract_y
 _atom_site_fract_z
 _atom_site_occupancy
 _atom_site_hle17_bader_spin_density
 _atom_site_hle17_ddec_charge
 _atom_site_hle17_ddec_spin_density
 _atom_site_hle17_ddec_sum_bond_order
 _atom_site_hle17_magmom
 _atom_site_hse06_10hf_bader_spin_density
 _atom_site_hse06_10hf_ddec_charge
 _atom_site_hse06_10hf_ddec_spin_density
 _atom_site_hse06_10hf_ddec_sum_bond_order
 _atom_site_hse06_10hf_magmom
 _atom_site_hse06_bader_spin_density
 _atom_site_hse06_ddec_charge
 _atom_site_hse06_ddec_spin_density
 _atom_site_hse06_ddec_sum_bond_order
 _atom_site_hse06_magmom
 _atom_site_pbe_bader_spin_density
 _atom_site_pbe_cm5_charge
 _atom_site_pbe_ddec_charge
 _atom_site_pbe_ddec_spin_density
 _atom_site_pbe_ddec_sum_bond_order
 _atom_site_pbe_magmom
Ag  Ag0  1  0.77513979  0.98311876  0.25792153  1  0  0.529379  0  1.438677  0  0  0.388725  0  1.884927  0  0  0.422067  0  1.836583  0  0  0.448247  0.365108  0  1.918663  0
Ag  Ag1  1  0.22485525  0.01687706  0.74207651  1  0  0.529343  0  1.438667  0  0  0.388715  0  1.88488  0  0  0.422058  0  1.836536  0  0  0.448226  0.365096  0  1.918612  0
H  H2  1  0.32315842  0.77039576  0.57198293  1  0  0.116839  0  0.969568  0  0  0.123595  0  1.035483  0  0  0.126604  0  1.034492  0  0  0.105525  0.121457  0  1.036296  0
H  H3  1  0.67683796  0.22961040  0.42801956  1  0  0.116814  0  0.969531  0  0  0.123559  0  1.035481  0  0  0.126569  0  1.034488  0  0  0.105511  0.121417  0  1.036302  0
H  H4  1  0.72957138  0.54091960  0.46334939  1  0  0.087971  0  0.963646  0  0  0.099088  0  1.024801  0  0  0.101093  0  1.02506  0  0  0.097539  0.097567  0  1.025024  0
H  H5  1  0.27041548  0.45907606  0.53665560  1  0  0.088073  0  0.963533  0  0  0.09915  0  1.024727  0  0  0.10115  0  1.024991  0  0  0.097608  0.097624  0  1.024958  0
H  H6  1  0.51230340  0.57265914  0.57220365  1  0  0.091478  0  0.946502  0  0  0.105414  0  0.998853  0  0  0.107961  0  0.998564  0  0  0.100893  0.103545  0  0.999226  0
H  H7  1  0.48768947  0.42734696  0.42780141  1  0  0.091417  0  0.946451  0  0  0.105422  0  0.998741  0  0  0.10797  0  0.998451  0  0  0.100905  0.103551  0  0.999121  0
H  H8  1  0.77355986  0.70735182  0.35176781  1  0  0.09054  0  0.984602  0  0  0.098728  0  1.055275  0  0  0.101367  0  1.053994  0  0  0.093975  0.096787  0  1.05631  0
H  H9  1  0.22643017  0.29263630  0.64823451  1  0  0.090576  0  0.984565  0  0  0.098726  0  1.055312  0  0  0.101377  0  1.053999  0  0  0.093957  0.096783  0  1.056353  0
H  H10  1  0.33116914  0.20771980  0.37507863  1  0  0.08631  0  0.954376  0  0  0.100229  0  1.018187  0  0  0.10138  0  1.019205  0  0  0.097318  0.099339  0  1.017619  0
H  H11  1  0.66882356  0.79227597  0.62492131  1  0  0.086284  0  0.95443  0  0  0.100251  0  1.018165  0  0  0.101417  0  1.019184  0  0  0.097342  0.099338  0  1.01762  0
H  H12  1  0.51096763  0.18932432  0.31029365  1  0  0.101825  0  0.918052  0  0  0.119789  0  0.972592  0  0  0.121603  0  0.971607  0  0  0.104649  0.118366  0  0.973547  0
H  H13  1  0.48902663  0.81067902  0.68970745  1  0  0.101865  0  0.918102  0  0  0.119803  0  0.972657  0  0  0.121629  0  0.971677  0  0  0.104636  0.118384  0  0.973607  0
H  H14  1  0.37242512  0.07239189  0.22445883  1  0  0.085264  0  0.965422  0  0  0.105857  0  1.031487  0  0  0.107121  0  1.03133  0  0  0.081815  0.104878  0  1.031689  0
H  H15  1  0.62757712  0.92760390  0.77554039  1  0  0.085249  0  0.965328  0  0  0.105832  0  1.031414  0  0  0.107101  0  1.03125  0  0  0.081806  0.104854  0  1.031619  0
H  H16  1  0.27540507  0.22771687  0.23619378  1  0  0.101783  0  0.938239  0  0  0.126138  0  0.990389  0  0  0.127213  0  0.991378  0  0  0.089551  0.125252  0  0.989848  0
H  H17  1  0.72459319  0.77228184  0.76380269  1  0  0.101803  0  0.938299  0  0  0.12617  0  0.99042  0  0  0.127245  0  0.991407  0  0  0.089566  0.125285  0  0.989873  0
H  H18  1  0.18925729  0.09307495  0.28846988  1  0  0.100313  0  0.966086  0  0  0.119187  0  1.031189  0  0  0.120597  0  1.031654  0  0  0.086606  0.11799  0  1.031109  0
H  H19  1  0.81074125  0.90692180  0.71152899  1  0  0.100335  0  0.966081  0  0  0.119207  0  1.031186  0  0  0.120618  0  1.03165  0  0  0.086607  0.118009  0  1.031111  0
H  H20  1  0.11171012  0.07300897  0.16612206  1  0  0.112405  0  0.962869  0  0  0.121809  0  1.026682  0  0  0.124721  0  1.02507  0  0  0.10665  0.119663  0  1.027957  0
H  H21  1  0.88829617  0.92698387  0.83388164  1  0  0.112458  0  0.962994  0  0  0.121876  0  1.026773  0  0  0.124785  0  1.025165  0  0  0.10666  0.119731  0  1.028053  0
H  H22  1  0.34462392  0.10103520  0.06066421  1  0  0.076207  0  0.96166  0  0  0.090052  0  1.020288  0  0  0.09255  0  1.019424  0  0  0.095696  0.088222  0  1.021087  0
H  H23  1  0.65538258  0.89896619  0.93933896  1  0  0.07614  0  0.961711  0  0  0.089999  0  1.020332  0  0  0.092496  0  1.019468  0  0  0.095697  0.088171  0  1.021131  0
H  H24  1  0.38558098  0.97274554  0.94809174  1  0  0.078358  0  0.976428  0  0  0.09141  0  1.0387  0  0  0.09328  0  1.038514  0  0  0.096148  0.090024  0  1.038961  0
H  H25  1  0.61442538  0.02725683  0.05191024  1  0  0.07826  0  0.976438  0  0  0.091356  0  1.038669  0  0  0.093227  0  1.038482  0  0  0.096123  0.089979  0  1.038918  0
H  H26  1  0.19981650  0.81163623  0.93530366  1  0  0.124354  0  0.944523  0  0  0.13548  0  1.0022  0  0  0.139079  0  0.999611  0  0  0.109991  0.132848  0  1.004099  0
H  H27  1  0.80019863  0.18836236  0.06469730  1  0  0.12438  0  0.944496  0  0  0.135558  0  1.002113  0  0  0.13916  0  0.999517  0  0  0.109995  0.132926  0  1.004011  0
H  H28  1  0.68959136  0.72438467  0.22609142  1  0  0.099124  0  0.932194  0  0  0.114657  0  0.994875  0  0  0.116451  0  0.993925  0  0  0.103967  0.113325  0  0.995579  0
H  H29  1  0.31041199  0.27562252  0.77390762  1  0  0.09908  0  0.93213  0  0  0.11462  0  0.994821  0  0  0.11641  0  0.993876  0  0  0.103952  0.113289  0  0.995523  0
H  H30  1  0.71888902  0.62550235  0.14941519  1  0  0.09073  0  0.923824  0  0  0.110306  0  0.975058  0  0  0.111767  0  0.974603  0  0  0.10314  0.10918  0  0.975467  0
H  H31  1  0.28111132  0.37450005  0.85058551  1  0  0.090725  0  0.923743  0  0  0.110268  0  0.975036  0  0  0.111726  0  0.974584  0  0  0.103138  0.109142  0  0.975449  0
H  H32  1  0.51251667  0.88186018  0.15447723  1  0  0.094662  0  0.963086  0  0  0.112342  0  1.034584  0  0  0.114112  0  1.033803  0  0  0.086226  0.111022  0  1.03522  0
H  H33  1  0.48748473  0.11814320  0.84552218  1  0  0.094651  0  0.963093  0  0  0.112309  0  1.034618  0  0  0.114079  0  1.033837  0  0  0.086216  0.110987  0  1.035256  0
H  H34  1  0.44274079  0.72880114  0.15975958  1  0  0.100699  0  0.949059  0  0  0.124297  0  1.003527  0  0  0.126186  0  1.003163  0  0  0.089953  0.122821  0  1.00393  0
H  H35  1  0.55725822  0.27120224  0.84024001  1  0  0.100656  0  0.949134  0  0  0.124246  0  1.003611  0  0  0.126132  0  1.003249  0  0  0.089953  0.122771  0  1.004011  0
H  H36  1  0.54674307  0.79498239  0.07118695  1  0  0.089925  0  0.96642  0  0  0.108821  0  1.03229  0  0  0.109968  0  1.033052  0  0  0.082805  0.107977  0  1.031797  0
H  H37  1  0.45325605  0.20502004  0.92881269  1  0  0.089899  0  0.966438  0  0  0.108808  0  1.032288  0  0  0.109955  0  1.033048  0  0  0.082815  0.107963  0  1.031794  0
H  H38  1  0.98654614  0.25774183  0.41480549  1  0  0.093041  0  0.963785  0  0  0.102684  0  1.027348  0  0  0.105994  0  1.024801  0  0  0.101425  0.100315  0  1.029176  0
H  H39  1  0.01345713  0.74225582  0.58519527  1  0  0.09308  0  0.963788  0  0  0.102718  0  1.027351  0  0  0.106027  0  1.024805  0  0  0.101436  0.100352  0  1.029174  0
H  H40  1  0.10801496  0.44471551  0.44984795  1  0  0.106818  0  0.971584  0  0  0.115163  0  1.037889  0  0  0.118832  0  1.036181  0  0  0.101611  0.11258  0  1.039208  0
H  H41  1  0.89198659  0.55528603  0.55014925  1  0  0.106827  0  0.971527  0  0  0.115169  0  1.037833  0  0  0.118838  0  1.036127  0  0  0.101602  0.11259  0  1.039143  0
H  H42  1  0.02853306  0.64536662  0.22716835  1  0  0.096226  0  0.990949  0  0  0.104282  0  1.058762  0  0  0.107083  0  1.058714  0  0  0.094328  0.102435  0  1.058623  0
H  H43  1  0.97146576  0.35462732  0.77282893  1  0  0.096234  0  0.990969  0  0  0.10429  0  1.058777  0  0  0.107091  0  1.058729  0  0  0.09433  0.102445  0  1.058642  0
H  H44  1  0.90666046  0.45604545  0.19471102  1  0  0.079741  0  0.986224  0  0  0.087887  0  1.054461  0  0  0.091753  0  1.050442  0  0  0.090692  0.085236  0  1.05711  0
H  H45  1  0.09334222  0.54394654  0.80528839  1  0  0.079735  0  0.98618  0  0  0.087877  0  1.054425  0  0  0.091742  0  1.050407  0  0  0.090709  0.085228  0  1.057072  0
H  H46  1  0.23986747  0.73773244  0.25483287  1  0  0.072605  0  0.951076  0  0  0.090313  0  1.015312  0  0  0.090712  0  1.015093  0  0  0.094054  0.090235  0  1.015236  0
H  H47  1  0.76013413  0.26226905  0.74516606  1  0  0.072601  0  0.951118  0  0  0.090308  0  1.01535  0  0  0.090707  0  1.015132  0  0  0.09407  0.090233  0  1.015275  0
H  H48  1  0.24292104  0.82195346  0.33821463  1  0  0.098872  0  0.945837  0  0  0.114636  0  1.008235  0  0  0.114861  0  1.009793  0  0  0.105261  0.11443  0  1.00713  0
H  H49  1  0.75707496  0.17804513  0.66178662  1  0  0.098845  0  0.945866  0  0  0.114612  0  1.008266  0  0  0.114837  0  1.009823  0  0  0.105273  0.114411  0  1.007156  0
H  H50  1  0.05764797  0.81579371  0.30001961  1  0  0.0721  0  0.958284  0  0  0.082586  0  1.042086  0  0  0.084157  0  1.039013  0  0  0.089887  0.081271  0  1.044623  0
H  H51  1  0.94235144  0.18420590  0.69997902  1  0  0.072098  0  0.958299  0  0  0.082579  0  1.042114  0  0  0.084145  0  1.039048  0  0  0.08988  0.081265  0  1.044654  0
H  H52  1  0.22563965  0.12463877  0.48314575  1  0  0.070345  0  0.93714  0  0  0.087704  0  0.998503  0  0  0.087399  0  1.000225  0  0  0.109337  0.087784  0  0.99755  0
H  H53  1  0.77436211  0.87536259  0.51685893  1  0  0.070326  0  0.93715  0  0  0.087691  0  0.998538  0  0  0.08737  0  1.00025  0  0  0.109342  0.08777  0  0.997583  0
H  H54  1  0.23985257  0.98995491  0.55231220  1  0  0.09381  0  0.934452  0  0  0.107145  0  0.999181  0  0  0.108257  0  0.998689  0  0  0.114088  0.10629  0  0.999594  0
H  H55  1  0.76015186  0.01004278  0.44768732  1  0  0.093761  0  0.934358  0  0  0.107113  0  0.999101  0  0  0.108209  0  0.998599  0  0  0.114084  0.106257  0  0.999517  0
H  H56  1  0.08257071  0.87286232  0.47417821  1  0  0.07106  0  0.932253  0  0  0.091538  0  0.989815  0  0  0.092217  0  0.990242  0  0  0.093744  0.090961  0  0.989614  0
H  H57  1  0.91742959  0.12714098  0.52582474  1  0  0.071042  0  0.932203  0  0  0.091556  0  0.989744  0  0  0.092234  0  0.990172  0  0  0.09373  0.090973  0  0.989553  0
H  H58  1  0.05188907  0.01435618  0.41155253  1  0  0.079288  0  0.957623  0  0  0.09706  0  1.020643  0  0  0.098305  0  1.020637  0  0  0.092155  0.096036  0  1.020858  0
H  H59  1  0.94811031  0.98564431  0.58844893  1  0  0.079232  0  0.957635  0  0  0.096993  0  1.020679  0  0  0.098235  0  1.020676  0  0  0.092134  0.095988  0  1.020873  0
H  H60  1  0.94507470  0.71532686  0.94749047  1  0  0.088122  0  0.910835  0  0  0.105199  0  0.97108  0  0  0.105904  0  0.971046  0  0  0.118546  0.104553  0  0.971193  0
H  H61  1  0.05492239  0.28467183  0.05250667  1  0  0.088115  0  0.910797  0  0  0.105186  0  0.971082  0  0  0.10589  0  0.971049  0  0  0.118511  0.104551  0  0.971197  0
H  H62  1  0.78607665  0.65835931  0.01555232  1  0  0.069683  0  0.91987  0  0  0.090762  0  0.975421  0  0  0.09098  0  0.975581  0  0  0.1137  0.090476  0  0.97541  0
H  H63  1  0.21392115  0.34164408  0.98444679  1  0  0.069677  0  0.919851  0  0  0.090768  0  0.975411  0  0  0.090987  0  0.975571  0  0  0.113717  0.090495  0  0.975402  0
H  H64  1  0.99197574  0.51690397  0.08707055  1  0  0.071946  0  0.95515  0  0  0.091498  0  1.014474  0  0  0.091877  0  1.015106  0  0  0.094852  0.091122  0  1.01399  0
H  H65  1  0.00801838  0.48310035  0.91292935  1  0  0.071901  0  0.955217  0  0  0.091479  0  1.014474  0  0  0.091868  0  1.015094  0  0  0.094844  0.091072  0  1.014037  0
H  H66  1  0.14372249  0.56893197  0.01353709  1  0  0.073372  0  0.91818  0  0  0.094937  0  0.970824  0  0  0.095866  0  0.97105  0  0  0.097007  0.094263  0  0.97064  0
H  H67  1  0.85627434  0.43106950  0.98646277  1  0  0.073366  0  0.91819  0  0  0.094928  0  0.97081  0  0  0.095857  0  0.971037  0  0  0.097007  0.094258  0  0.970612  0
C  C68  1  0.56977365  0.83093561  0.39831120  1  0  0.134252  0  3.887985  0  0  0.13166  0  4.134013  0  0  0.135306  0  4.158016  0  0  0.075342  0.128847  0  4.117911  0
C  C69  1  0.43022211  0.16906491  0.60168880  1  0  0.134243  0  3.888019  0  0  0.131703  0  4.133994  0  0  0.135346  0  4.158002  0  0  0.075351  0.128885  0  4.117891  0
C  C70  1  0.44393738  0.84693356  0.46023173  1  0  0.099204  0  3.79086  0  0  0.085937  0  4.040505  0  0  0.08999  0  4.062287  0  0  0.086594  0.08333  0  4.025721  0
C  C71  1  0.55606073  0.15306699  0.53976694  1  0  0.099166  0  3.790893  0  0  0.085813  0  4.040569  0  0  0.089868  0  4.062355  0  0  0.086613  0.083211  0  4.025776  0
C  C72  1  0.41918562  0.75574905  0.52400855  1  0  -0.146344  0  3.739612  0  0  -0.164731  0  3.995977  0  0  -0.167399  0  4.015596  0  0  -0.0957  -0.162618  0  3.982346  0
C  C73  1  0.58080961  0.24425621  0.47599179  1  0  -0.146176  0  3.739536  0  0  -0.164561  0  3.99595  0  0  -0.167231  0  4.01557  0  0  -0.09562  -0.162444  0  3.982316  0
C  C74  1  0.65083923  0.62882118  0.46193114  1  0  -0.085386  0  3.806767  0  0  -0.101326  0  4.060274  0  0  -0.103558  0  4.083501  0  0  -0.101861  -0.100455  0  4.04524  0
C  C75  1  0.34914969  0.37117733  0.53807353  1  0  -0.085497  0  3.806512  0  0  -0.101397  0  4.06003  0  0  -0.103628  0  4.083256  0  0  -0.101901  -0.10052  0  4.044999  0
C  C76  1  0.52590349  0.64666645  0.52372863  1  0  -0.075101  0  3.787436  0  0  -0.090763  0  4.042379  0  0  -0.093086  0  4.064751  0  0  -0.097348  -0.088309  0  4.026743  0
C  C77  1  0.47408943  0.35333874  0.47627476  1  0  -0.07509  0  3.787137  0  0  -0.090809  0  4.042087  0  0  -0.093132  0  4.064456  0  0  -0.097411  -0.088354  0  4.026454  0
C  C78  1  0.67508678  0.72047472  0.39873474  1  0  -0.155859  0  3.776388  0  0  -0.170528  0  4.020432  0  0  -0.173545  0  4.041112  0  0  -0.102145  -0.168466  0  4.006932  0
C  C79  1  0.32490728  0.27952005  0.60126746  1  0  -0.155904  0  3.7765  0  0  -0.170571  0  4.020508  0  0  -0.173586  0  4.041195  0  0  -0.102173  -0.168508  0  4.007012  0
C  C80  1  0.39955173  0.14538533  0.33355586  1  0  -0.164021  0  3.726489  0  0  -0.200146  0  3.980118  0  0  -0.202985  0  3.99065  0  0  -0.154324  -0.198337  0  3.973318  0
C  C81  1  0.60044803  0.85461139  0.66644407  1  0  -0.164048  0  3.726568  0  0  -0.200156  0  3.980129  0  0  -0.203053  0  3.990743  0  0  -0.154334  -0.198336  0  3.97336  0
C  C82  1  0.30332758  0.13357682  0.26659845  1  0  -0.270953  0  3.696706  0  0  -0.3419  0  3.932978  0  0  -0.344411  0  3.944014  0  0  -0.242746  -0.339965  0  3.925508  0
C  C83  1  0.69667564  0.86642087  0.73340059  1  0  -0.270924  0  3.696667  0  0  -0.341891  0  3.932941  0  0  -0.344389  0  3.943988  0  0  -0.242723  -0.339957  0  3.925472  0
C  C84  1  0.05892155  0.84759204  0.04752115  1  0  0.104324  0  3.796373  0  0  0.094856  0  4.037918  0  0  0.098329  0  4.061512  0  0  0.090781  0.092524  0  4.022059  0
C  C85  1  0.94107858  0.15241139  0.95247605  1  0  0.104416  0  3.796472  0  0  0.095006  0  4.037866  0  0  0.098477  0  4.061459  0  0  0.090798  0.092682  0  4.022002  0
C  C86  1  0.03389386  0.92058187  0.11210045  1  0  0.145473  0  3.86416  0  0  0.143249  0  4.107249  0  0  0.146552  0  4.131876  0  0  0.082257  0.140921  0  4.090559  0
C  C87  1  0.96610989  0.07942154  0.88789763  1  0  0.145387  0  3.864146  0  0  0.143218  0  4.107124  0  0  0.146524  0  4.131749  0  0  0.082228  0.14089  0  4.090434  0
C  C88  1  0.13558354  0.01372385  0.11783215  1  0  -0.138141  0  3.738377  0  0  -0.156445  0  3.987538  0  0  -0.158829  0  4.007887  0  0  -0.092098  -0.154802  0  3.973892  0
C  C89  1  0.86441742  0.98627288  0.88216769  1  0  -0.138287  0  3.738335  0  0  -0.156636  0  3.987494  0  0  -0.15902  0  4.007843  0  0  -0.092072  -0.154996  0  3.973858  0
C  C90  1  0.26278900  0.02897564  0.05831926  1  0  -0.089885  0  3.808266  0  0  -0.108407  0  4.06973  0  0  -0.111261  0  4.093492  0  0  -0.104218  -0.106564  0  4.053833  0
C  C91  1  0.73721262  0.97102670  0.94168422  1  0  -0.089692  0  3.808306  0  0  -0.108227  0  4.069779  0  0  -0.111081  0  4.093552  0  0  -0.1042  -0.106388  0  4.053888  0
C  C92  1  0.28676387  0.95543693  0.99421544  1  0  -0.073673  0  3.791442  0  0  -0.091553  0  4.050116  0  0  -0.093821  0  4.074106  0  0  -0.100767  -0.089952  0  4.033761  0
C  C93  1  0.71324499  0.04456449  0.00578640  1  0  -0.073615  0  3.791586  0  0  -0.091548  0  4.05031  0  0  -0.093817  0  4.074296  0  0  -0.100744  -0.089944  0  4.033944  0
C  C94  1  0.18463026  0.86371553  0.98693217  1  0  -0.153275  0  3.751994  0  0  -0.172183  0  4.004503  0  0  -0.174871  0  4.024137  0  0  -0.096582  -0.170092  0  3.990967  0
C  C95  1  0.81537974  0.13628593  0.01306785  1  0  -0.1533  0  3.752011  0  0  -0.172277  0  4.004482  0  0  -0.174966  0  4.02412  0  0  -0.096587  -0.170194  0  3.990952  0
C  C96  1  0.69892169  0.72525544  0.16238463  1  0  -0.164522  0  3.729837  0  0  -0.202035  0  3.987157  0  0  -0.204436  0  3.997388  0  0  -0.153664  -0.200246  0  3.980032  0
C  C97  1  0.30107851  0.27474794  0.83761486  1  0  -0.164387  0  3.729688  0  0  -0.201899  0  3.987059  0  0  -0.204297  0  3.997301  0  0  -0.153633  -0.200114  0  3.979931  0
C  C98  1  0.54164629  0.78640244  0.13498185  1  0  -0.268121  0  3.700602  0  0  -0.3426  0  3.943202  0  0  -0.345046  0  3.953398  0  0  -0.240659  -0.340675  0  3.936203  0
C  C99  1  0.45835760  0.21359999  0.86501743  1  0  -0.268042  0  3.700602  0  0  -0.342488  0  3.943205  0  0  -0.344929  0  3.953399  0  0  -0.240633  -0.340557  0  3.936198  0
C  C100  1  0.94073047  0.34484148  0.30147277  1  0  -0.089261  0  3.780927  0  0  -0.067847  0  4.012184  0  0  -0.077944  0  4.037326  0  0  -0.036003  -0.06122  0  3.995153  0
C  C101  1  0.05927306  0.65515338  0.69852583  1  0  -0.089128  0  3.780801  0  0  -0.067731  0  4.012103  0  0  -0.077827  0  4.037243  0  0  -0.035982  -0.061097  0  3.995073  0
C  C102  1  0.87548551  0.23021147  0.27780312  1  0  0.614162  0  3.991153  0  0  0.570492  0  4.278605  0  0  0.603848  0  4.274002  0  0  0.174793  0.547699  0  4.281056  0
C  C103  1  0.12451923  0.76978337  0.72219597  1  0  0.61416  0  3.991274  0  0  0.570473  0  4.278771  0  0  0.603829  0  4.274168  0  0  0.174751  0.547675  0  4.281225  0
C  C104  1  0.99635299  0.34300541  0.37406595  1  0  -0.047117  0  3.756306  0  0  -0.068505  0  4.004383  0  0  -0.065168  0  4.02285  0  0  -0.085689  -0.070518  0  3.991817  0
C  C105  1  0.00365035  0.65699133  0.62593314  1  0  -0.047246  0  3.756505  0  0  -0.06863  0  4.004584  0  0  -0.065293  0  4.02305  0  0  -0.085758  -0.070651  0  3.992018  0
C  C106  1  0.06380643  0.44672369  0.39383733  1  0  -0.193166  0  3.748594  0  0  -0.213135  0  4.001943  0  0  -0.219723  0  4.020124  0  0  -0.107278  -0.208807  0  3.989755  0
C  C107  1  0.93619786  0.55327497  0.60616100  1  0  -0.193198  0  3.748589  0  0  -0.213134  0  4.001941  0  0  -0.219724  0  4.020127  0  0  -0.10719  -0.208803  0  3.98975  0
C  C108  1  0.07845914  0.55601841  0.34072820  1  0  0.273936  0  3.818957  0  0  0.268607  0  4.067953  0  0  0.281201  0  4.084059  0  0  0.082101  0.259917  0  4.056801  0
C  C109  1  0.92154167  0.44397931  0.65926987  1  0  0.274146  0  3.818847  0  0  0.268741  0  4.067906  0  0  0.281325  0  4.084018  0  0  0.08216  0.260046  0  4.056754  0
C  C110  1  0.02097799  0.56064143  0.26846119  1  0  -0.233617  0  3.800502  0  0  -0.247321  0  4.047756  0  0  -0.255546  0  4.06978  0  0  -0.122542  -0.241575  0  4.032313  0
C  C111  1  0.97902530  0.43935534  0.73153674  1  0  -0.233711  0  3.800742  0  0  -0.247385  0  4.047999  0  0  -0.255611  0  4.070027  0  0  -0.122534  -0.24164  0  4.032561  0
C  C112  1  0.84215415  0.79329205  0.12844649  1  0  0.342765  0  3.682652  0  0  0.312484  0  3.958131  0  0  0.330351  0  3.971972  0  0  0.227975  0.300464  0  3.94852  0
C  C113  1  0.15784601  0.20671137  0.87155128  1  0  0.342638  0  3.682577  0  0  0.312335  0  3.958086  0  0  0.33019  0  3.97194  0  0  0.227946  0.300324  0  3.948469  0
C  C114  1  0.44581169  0.01910173  0.37421608  1  0  0.356205  0  3.665275  0  0  0.323498  0  3.942199  0  0  0.342173  0  3.954712  0  0  0.22969  0.310839  0  3.933902  0
C  C115  1  0.55418578  0.98089405  0.62578350  1  0  0.356207  0  3.66505  0  0  0.32344  0  3.941977  0  0  0.342127  0  3.95451  0  0  0.229631  0.310758  0  3.933711  0
C  C116  1  0.95275398  0.45531267  0.25019428  1  0  -0.059955  0  3.801547  0  0  -0.082683  0  4.048718  0  0  -0.080391  0  4.069182  0  0  -0.095029  -0.083724  0  4.034251  0
C  C117  1  0.04724848  0.54468122  0.74980504  1  0  -0.059965  0  3.801517  0  0  -0.082686  0  4.048691  0  0  -0.080393  0  4.069154  0  0  -0.095047  -0.083722  0  4.034222  0
C  C118  1  0.17273665  0.76284820  0.31083208  1  0  -0.066687  0  3.639696  0  0  -0.157276  0  3.899399  0  0  -0.150912  0  3.903839  0  0  -0.139072  -0.161546  0  3.89595  0
C  C119  1  0.82726156  0.23715139  0.68916664  1  0  -0.066681  0  3.639782  0  0  -0.157277  0  3.899478  0  0  -0.150919  0  3.903919  0  0  -0.1391  -0.16155  0  3.896026  0
C  C120  1  0.22637353  0.02062076  0.49097351  1  0  0.008449  0  3.623488  0  0  -0.052696  0  3.88126  0  0  -0.0483  0  3.892838  0  0  -0.054022  -0.055541  0  3.873356  0
C  C121  1  0.77362583  0.97937974  0.50902738  1  0  0.008609  0  3.623225  0  0  -0.052638  0  3.881069  0  0  -0.048161  0  3.89254  0  0  -0.054009  -0.055484  0  3.87317  0
C  C122  1  0.07146778  0.97746345  0.47146545  1  0  -0.128987  0  3.677693  0  0  -0.170477  0  3.937942  0  0  -0.17226  0  3.951355  0  0  -0.165088  -0.169046  0  3.928532  0
C  C123  1  0.92853629  0.02253798  0.52853618  1  0  -0.128931  0  3.677496  0  0  -0.170384  0  3.9377  0  0  -0.172194  0  3.95111  0  0  -0.165062  -0.16896  0  3.928276  0
C  C124  1  0.91370084  0.67466988  0.00805696  1  0  0.015252  0  3.649111  0  0  -0.050083  0  3.91674  0  0  -0.045406  0  3.928419  0  0  -0.047184  -0.052936  0  3.908488  0
C  C125  1  0.08629693  0.32533353  0.99194099  1  0  0.015323  0  3.649137  0  0  -0.050101  0  3.91682  0  0  -0.045428  0  3.928503  0  0  -0.047233  -0.053001  0  3.908615  0
C  C126  1  0.01623744  0.55065302  0.02479507  1  0  -0.124122  0  3.694344  0  0  -0.166727  0  3.960393  0  0  -0.168126  0  3.974272  0  0  -0.161317  -0.165452  0  3.950351  0
C  C127  1  0.98375809  0.44934940  0.97520484  1  0  -0.124172  0  3.694473  0  0  -0.16669  0  3.960462  0  0  -0.168093  0  3.974341  0  0  -0.161291  -0.165394  0  3.950449  0
N  N128  1  0.56762472  0.93958681  0.34612939  1  0  -0.473788  0  3.246792  0  0  -0.407687  0  3.55248  0  0  -0.429922  0  3.563194  0  0  -0.375085  -0.392289  0  3.544821  0
N  N129  1  0.43237242  0.06041182  0.65387004  1  0  -0.473816  0  3.246647  0  0  -0.40773  0  3.552332  0  0  -0.429969  0  3.563054  0  0  -0.375079  -0.392322  0  3.544679  0
N  N130  1  0.36756939  0.96689745  0.44320030  1  0  -0.169561  0  3.477966  0  0  -0.08432  0  3.703476  0  0  -0.101566  0  3.726765  0  0  -0.241501  -0.072652  0  3.687604  0
N  N131  1  0.63242861  0.03310405  0.55679833  1  0  -0.169616  0  3.47798  0  0  -0.084223  0  3.703387  0  0  -0.10149  0  3.726657  0  0  -0.2415  -0.072548  0  3.68752  0
N  N132  1  0.93463766  0.76905315  0.05933082  1  0  -0.170122  0  3.50548  0  0  -0.085044  0  3.728524  0  0  -0.102895  0  3.753612  0  0  -0.243701  -0.073252  0  3.711593  0
N  N133  1  0.06536593  0.23095125  0.94066549  1  0  -0.170304  0  3.505525  0  0  -0.085198  0  3.728557  0  0  -0.10304  0  3.753637  0  0  -0.243737  -0.073395  0  3.711638  0
N  N134  1  0.89854938  0.88452006  0.16111328  1  0  -0.462899  0  3.293097  0  0  -0.396944  0  3.605182  0  0  -0.419196  0  3.616503  0  0  -0.372549  -0.382072  0  3.597215  0
N  N135  1  0.10144996  0.11548047  0.83888646  1  0  -0.462696  0  3.292975  0  0  -0.396774  0  3.605071  0  0  -0.41902  0  3.616394  0  0  -0.372488  -0.381907  0  3.597105  0
O  O136  1  0.14942234  0.65219801  0.36458473  1  0  -0.252703  0  2.316225  0  0  -0.179128  0  2.545727  0  0  -0.196211  0  2.547414  0  0  -0.190687  -0.166474  0  2.543657  0
O  O137  1  0.85057604  0.34779972  0.63541237  1  0  -0.252741  0  2.316152  0  0  -0.17913  0  2.545674  0  0  -0.196193  0  2.547349  0  0  -0.190734  -0.166473  0  2.543599  0
O  O138  1  0.86939734  0.13263224  0.32865354  1  0  -0.662782  0  2.007151  0  0  -0.597806  0  2.26754  0  0  -0.626157  0  2.256085  0  0  -0.35211  -0.577551  0  2.274807  0
O  O139  1  0.13060527  0.86735980  0.67134358  1  0  -0.66284  0  2.007289  0  0  -0.597851  0  2.267652  0  0  -0.626201  0  2.256197  0  0  -0.352124  -0.577599  0  2.274923  0
O  O140  1  0.83354305  0.23424105  0.21038747  1  0  -0.669162  0  1.873619  0  0  -0.619834  0  2.09596  0  0  -0.644122  0  2.084361  0  0  -0.369961  -0.602794  0  2.103406  0
O  O141  1  0.16646039  0.76575474  0.78961167  1  0  -0.669151  0  1.87364  0  0  -0.619821  0  2.095983  0  0  -0.644113  0  2.084395  0  0  -0.369944  -0.602775  0  2.103426  0
