# generated using pymatgen
data_CdH10C12S2(BrN3)2
_symmetry_space_group_name_H-M   'P 1'
_cell_length_a   3.86938970
_cell_length_b   13.04155321
_cell_length_c   16.03935201
_cell_angle_alpha   84.84799996
_cell_angle_beta   83.03524984
_cell_angle_gamma   81.47791432
_symmetry_Int_Tables_number   1
_chemical_formula_structural   CdH10C12S2(BrN3)2
_chemical_formula_sum   'Cd2 H20 C24 S4 Br4 N12'
_cell_volume   792.41835501
_cell_formula_units_Z   2
loop_
 _symmetry_equiv_pos_site_id
 _symmetry_equiv_pos_as_xyz
  1  'x, y, z'
loop_
 _atom_site_type_symbol
 _atom_site_label
 _atom_site_symmetry_multiplicity
 _atom_site_fract_x
 _atom_site_fract_y
 _atom_site_fract_z
 _atom_site_occupancy
 _atom_site_hle17_bader_spin_density
 _atom_site_hle17_ddec_charge
 _atom_site_hle17_ddec_spin_density
 _atom_site_hle17_ddec_sum_bond_order
 _atom_site_hle17_magmom
 _atom_site_hse06_10hf_bader_spin_density
 _atom_site_hse06_10hf_ddec_charge
 _atom_site_hse06_10hf_ddec_spin_density
 _atom_site_hse06_10hf_ddec_sum_bond_order
 _atom_site_hse06_10hf_magmom
 _atom_site_hse06_bader_spin_density
 _atom_site_hse06_ddec_charge
 _atom_site_hse06_ddec_spin_density
 _atom_site_hse06_ddec_sum_bond_order
 _atom_site_hse06_magmom
 _atom_site_pbe_bader_spin_density
 _atom_site_pbe_cm5_charge
 _atom_site_pbe_ddec_charge
 _atom_site_pbe_ddec_spin_density
 _atom_site_pbe_ddec_sum_bond_order
 _atom_site_pbe_magmom
Cd  Cd0  1  0.88487684  0.25001054  0.25012523  1  0  0.887548  0  1.979534  0  0  0.731441  0  2.42811  0  0  0.779557  0  2.389596  0  0  0.529825  0.697325  0  2.455094  0
Cd  Cd1  1  0.11512596  0.74998458  0.74987457  1  0  0.887531  0  1.979512  0  0  0.731426  0  2.428088  0  0  0.779551  0  2.389555  0  0  0.52983  0.697321  0  2.455044  0
H  H2  1  0.49409421  0.08720894  0.83548851  1  0  0.313194  0  0.908709  0  0  0.293433  0  0.98358  0  0  0.299429  0  0.978623  0  0  0.28981  0.289246  0  0.986917  0
H  H3  1  0.91725088  0.41322958  0.66448124  1  0  0.312813  0  0.910692  0  0  0.293053  0  0.985367  0  0  0.299004  0  0.980557  0  0  0.289525  0.288862  0  0.988706  0
H  H4  1  0.50590980  0.91279162  0.16450979  1  0  0.313144  0  0.908751  0  0  0.293377  0  0.983629  0  0  0.299372  0  0.978678  0  0  0.289776  0.289191  0  0.986957  0
H  H5  1  0.08274417  0.58677798  0.33551712  1  0  0.312726  0  0.910621  0  0  0.293015  0  0.98526  0  0  0.298966  0  0.98045  0  0  0.289538  0.288821  0  0.988603  0
H  H6  1  0.69156197  0.18069738  0.77459247  1  0  0.313067  0  0.902968  0  0  0.303682  0  0.959117  0  0  0.308995  0  0.956055  0  0  0.30246  0.299924  0  0.961296  0
H  H7  1  0.14642702  0.31978658  0.72549599  1  0  0.313984  0  0.902497  0  0  0.30448  0  0.958759  0  0  0.309805  0  0.955666  0  0  0.302757  0.300716  0  0.960939  0
H  H8  1  0.30844241  0.81930240  0.22540588  1  0  0.313103  0  0.902961  0  0  0.303707  0  0.959133  0  0  0.309017  0  0.956077  0  0  0.302479  0.299944  0  0.961313  0
H  H9  1  0.85357067  0.68021943  0.27450316  1  0  0.313942  0  0.902566  0  0  0.304439  0  0.958825  0  0  0.309766  0  0.95573  0  0  0.302765  0.300674  0  0.961006  0
H  H10  1  0.43271384  0.47957737  0.93009415  1  0  0.086428  0  0.9728  0  0  0.097733  0  1.036102  0  0  0.099944  0  1.034663  0  0  0.095067  0.096108  0  1.037179  0
H  H11  1  0.34017323  0.02044468  0.57052495  1  0  0.086505  0  0.972084  0  0  0.09812  0  1.035113  0  0  0.100341  0  1.033665  0  0  0.09492  0.096529  0  1.036124  0
H  H12  1  0.56730536  0.52041931  0.06990927  1  0  0.086394  0  0.972827  0  0  0.097709  0  1.036127  0  0  0.09992  0  1.03468  0  0  0.095078  0.096083  0  1.037216  0
H  H13  1  0.65979157  0.97955355  0.42948001  1  0  0.086411  0  0.972248  0  0  0.098111  0  1.035173  0  0  0.100286  0  1.033842  0  0  0.094898  0.096516  0  1.036178  0
H  H14  1  0.61068670  0.36377606  0.81694155  1  0  0.100887  0  0.994248  0  0  0.106327  0  1.066545  0  0  0.110558  0  1.064625  0  0  0.088812  0.103321  0  1.068068  0
H  H15  1  0.29086527  0.13666425  0.68335302  1  0  0.100887  0  0.993463  0  0  0.106675  0  1.065484  0  0  0.110834  0  1.063634  0  0  0.089213  0.103695  0  1.066981  0
H  H16  1  0.38933011  0.63622296  0.18306041  1  0  0.100827  0  0.99427  0  0  0.106269  0  1.066566  0  0  0.110501  0  1.064646  0  0  0.088761  0.103264  0  1.068091  0
H  H17  1  0.70910626  0.86334098  0.31664668  1  0  0.100932  0  0.993312  0  0  0.106707  0  1.065362  0  0  0.110867  0  1.063501  0  0  0.089206  0.103728  0  1.066854  0
H  H18  1  0.13284339  0.42088723  0.06940200  1  0  0.11071  0  0.98863  0  0  0.118177  0  1.056322  0  0  0.121638  0  1.054895  0  0  0.091722  0.115691  0  1.057467  0
H  H19  1  0.12031577  0.07877220  0.43132070  1  0  0.110744  0  0.988744  0  0  0.118474  0  1.056121  0  0  0.121904  0  1.054742  0  0  0.092035  0.116047  0  1.05721  0
H  H20  1  0.86716525  0.57910633  0.93060061  1  0  0.110731  0  0.988559  0  0  0.118134  0  1.056327  0  0  0.121656  0  1.054832  0  0  0.091718  0.11565  0  1.057458  0
H  H21  1  0.87966449  0.92123070  0.56868193  1  0  0.110701  0  0.988783  0  0  0.118453  0  1.056125  0  0  0.121875  0  1.054758  0  0  0.092038  0.116024  0  1.057212  0
C  C22  1  0.13155627  0.26592774  0.02947383  1  0  0.212448  0  3.794557  0  0  0.207371  0  4.040006  0  0  0.2161  0  4.060415  0  0  0.103804  0.20163  0  4.026067  0
C  C23  1  0.92644104  0.23406899  0.47086253  1  0  0.212824  0  3.796563  0  0  0.207659  0  4.042142  0  0  0.216209  0  4.062789  0  0  0.103698  0.202054  0  4.028037  0
C  C24  1  0.86845855  0.73406738  0.97052697  1  0  0.212518  0  3.794368  0  0  0.207411  0  4.039861  0  0  0.216112  0  4.060314  0  0  0.1038  0.201675  0  4.025912  0
C  C25  1  0.07355879  0.76593235  0.52913433  1  0  0.212884  0  3.796397  0  0  0.207731  0  4.041904  0  0  0.216279  0  4.062552  0  0  0.103733  0.202124  0  4.027801  0
C  C26  1  0.22651069  0.19725438  0.96173574  1  0  0.072903  0  3.758334  0  0  0.076199  0  4.001272  0  0  0.076141  0  4.021295  0  0  0.102762  0.076046  0  3.987817  0
C  C27  1  0.88603755  0.30294845  0.53841482  1  0  0.07216  0  3.758737  0  0  0.075366  0  4.002086  0  0  0.075436  0  4.022034  0  0  0.101788  0.075126  0  3.988663  0
C  C28  1  0.77349958  0.80274229  0.03826357  1  0  0.07289  0  3.758264  0  0  0.076198  0  4.00119  0  0  0.076149  0  4.021215  0  0  0.102748  0.076045  0  3.987729  0
C  C29  1  0.11395767  0.69705600  0.46158240  1  0  0.072096  0  3.759151  0  0  0.075375  0  4.002356  0  0  0.075443  0  4.022309  0  0  0.101745  0.07513  0  3.988944  0
C  C30  1  0.40767819  0.23116005  0.88312197  1  0  0.263712  0  3.838233  0  0  0.253554  0  4.092299  0  0  0.264213  0  4.111054  0  0  0.098497  0.246335  0  4.0795  0
C  C31  1  0.02190719  0.26916470  0.61704948  1  0  0.260075  0  3.839395  0  0  0.249895  0  4.093874  0  0  0.260495  0  4.112699  0  0  0.097529  0.242727  0  4.080997  0
C  C32  1  0.59233301  0.76883741  0.11687861  1  0  0.263549  0  3.838326  0  0  0.253415  0  4.092355  0  0  0.264068  0  4.111116  0  0  0.098397  0.246197  0  4.079551  0
C  C33  1  0.97809109  0.73083742  0.38295115  1  0  0.259963  0  3.839335  0  0  0.24977  0  4.093773  0  0  0.260367  0  4.112598  0  0  0.0975  0.242602  0  4.080898  0
C  C34  1  0.47397488  0.33364317  0.87535624  1  0  -0.221199  0  3.73742  0  0  -0.241862  0  3.997342  0  0  -0.250866  0  4.017298  0  0  -0.120231  -0.236013  0  3.983985  0
C  C35  1  0.18233841  0.16663612  0.62496354  1  0  -0.219505  0  3.735653  0  0  -0.240635  0  3.995952  0  0  -0.249539  0  4.015994  0  0  -0.119872  -0.23483  0  3.982546  0
C  C36  1  0.52604076  0.66635429  0.12464511  1  0  -0.221095  0  3.737451  0  0  -0.241751  0  3.997352  0  0  -0.250753  0  4.017309  0  0  -0.120139  -0.235905  0  3.984012  0
C  C37  1  0.81764685  0.83336834  0.37504109  1  0  -0.219604  0  3.735697  0  0  -0.240717  0  3.996014  0  0  -0.249605  0  4.016039  0  0  -0.119912  -0.234916  0  3.982605  0
C  C38  1  0.37182699  0.40024851  0.94158966  1  0  -0.006356  0  3.775445  0  0  -0.024306  0  4.031162  0  0  -0.019476  0  4.050253  0  0  -0.085967  -0.027085  0  4.017828  0
C  C39  1  0.21203696  0.09982024  0.55891196  1  0  -0.005432  0  3.773436  0  0  -0.023617  0  4.02922  0  0  -0.018756  0  4.048157  0  0  -0.085629  -0.026453  0  4.016071  0
C  C40  1  0.62819041  0.59974661  0.05841378  1  0  -0.006279  0  3.775477  0  0  -0.024229  0  4.031197  0  0  -0.019398  0  4.050297  0  0  -0.08599  -0.027028  0  4.017894  0
C  C41  1  0.78793476  0.90018732  0.44108892  1  0  -0.005292  0  3.773888  0  0  -0.023551  0  4.029663  0  0  -0.018699  0  4.048586  0  0  -0.08557  -0.026379  0  4.016506  0
C  C42  1  0.20381689  0.36938494  0.01864514  1  0  -0.187466  0  3.736464  0  0  -0.210676  0  3.996408  0  0  -0.219318  0  4.017563  0  0  -0.116287  -0.205011  0  3.982109  0
C  C43  1  0.08989360  0.13050267  0.48190176  1  0  -0.188831  0  3.737173  0  0  -0.212198  0  3.997328  0  0  -0.22075  0  4.018487  0  0  -0.116706  -0.206646  0  3.983001  0
C  C44  1  0.79619293  0.63061018  0.98135807  1  0  -0.187486  0  3.736156  0  0  -0.210666  0  3.99622  0  0  -0.219351  0  4.017339  0  0  -0.116209  -0.204998  0  3.981921  0
C  C45  1  0.91009254  0.86950101  0.51809716  1  0  -0.188811  0  3.73709  0  0  -0.2122  0  3.99728  0  0  -0.220748  0  4.018448  0  0  -0.116754  -0.206641  0  3.982945  0
S  S46  1  0.94603395  0.09840892  0.07701565  1  0  0.454446  0  3.06725  0  0  0.422835  0  3.476599  0  0  0.435536  0  3.48115  0  0  0.356857  0.413223  0  3.474144  0
S  S47  1  0.62365665  0.40177191  0.42300145  1  0  0.453181  0  3.068437  0  0  0.421397  0  3.478024  0  0  0.4341  0  3.482542  0  0  0.356542  0.411776  0  3.475585  0
S  S48  1  0.05397711  0.90158465  0.92298190  1  0  0.454375  0  3.067169  0  0  0.422758  0  3.47651  0  0  0.435457  0  3.481058  0  0  0.356786  0.413134  0  3.474068  0
S  S49  1  0.37634492  0.59823254  0.57699724  1  0  0.453092  0  3.068507  0  0  0.421296  0  3.478108  0  0  0.434001  0  3.482627  0  0  0.356478  0.411679  0  3.475668  0
Br  Br50  1  0.45353702  0.09641101  0.26648563  1  0  -0.497571  0  1.107919  0  0  -0.433183  0  1.422416  0  0  -0.454432  0  1.401751  0  0  -0.244208  -0.417803  0  1.437708  0
Br  Br51  1  0.31676741  0.40371184  0.23394258  1  0  -0.497962  0  1.108966  0  0  -0.433223  0  1.422911  0  0  -0.454417  0  1.402102  0  0  -0.24399  -0.417846  0  1.438245  0
Br  Br52  1  0.54645927  0.90358566  0.73350942  1  0  -0.49752  0  1.107854  0  0  -0.43313  0  1.422341  0  0  -0.454392  0  1.40167  0  0  -0.244204  -0.417757  0  1.437632  0
Br  Br53  1  0.68324525  0.59628251  0.76605819  1  0  -0.497978  0  1.108959  0  0  -0.43322  0  1.422865  0  0  -0.454422  0  1.402066  0  0  -0.244007  -0.417867  0  1.438222  0
N  N54  1  0.97254604  0.21714808  0.09866325  1  0  -0.445897  0  3.051878  0  0  -0.382627  0  3.336345  0  0  -0.40065  0  3.350528  0  0  -0.331222  -0.370163  0  3.326483  0
N  N55  1  0.78870918  0.28280354  0.40159614  1  0  -0.445469  0  3.052216  0  0  -0.381988  0  3.336472  0  0  -0.399959  0  3.350707  0  0  -0.330492  -0.369552  0  3.326556  0
N  N56  1  0.02746280  0.78284627  0.90133612  1  0  -0.445954  0  3.051899  0  0  -0.382683  0  3.336416  0  0  -0.400694  0  3.350597  0  0  -0.331259  -0.370214  0  3.326547  0
N  N57  1  0.21130210  0.71719781  0.59840491  1  0  -0.445511  0  3.052258  0  0  -0.382042  0  3.336524  0  0  -0.400015  0  3.350762  0  0  -0.330481  -0.369605  0  3.326603  0
N  N58  1  0.13361808  0.10189583  0.98114828  1  0  -0.373148  0  2.969207  0  0  -0.348056  0  3.273051  0  0  -0.355164  0  3.283989  0  0  -0.30976  -0.342674  0  3.265662  0
N  N59  1  0.71871019  0.39841122  0.51881832  1  0  -0.370579  0  2.969347  0  0  -0.345313  0  3.273038  0  0  -0.352441  0  3.283967  0  0  -0.30905  -0.339908  0  3.265641  0
N  N60  1  0.86639571  0.89810006  0.01885053  1  0  -0.373083  0  2.969141  0  0  -0.347981  0  3.272977  0  0  -0.355088  0  3.283913  0  0  -0.309673  -0.342592  0  3.26558  0
N  N61  1  0.28128419  0.60159634  0.48117810  1  0  -0.370383  0  2.969359  0  0  -0.345143  0  3.273005  0  0  -0.352268  0  3.283932  0  0  -0.308947  -0.339735  0  3.265607  0
N  N62  1  0.49494982  0.16443448  0.81960474  1  0  -0.63975  0  3.109835  0  0  -0.604391  0  3.340476  0  0  -0.62253  0  3.340251  0  0  -0.586981  -0.591481  0  3.340274  0
N  N63  1  0.97886720  0.33600691  0.68046825  1  0  -0.639353  0  3.112506  0  0  -0.603809  0  3.343166  0  0  -0.621928  0  3.342937  0  0  -0.587217  -0.590915  0  3.342939  0
N  N64  1  0.50505203  0.83556530  0.18039354  1  0  -0.639678  0  3.109865  0  0  -0.604336  0  3.340527  0  0  -0.622475  0  3.340302  0  0  -0.586949  -0.591426  0  3.340315  0
N  N65  1  0.02112363  0.66399754  0.31953077  1  0  -0.63913  0  3.112423  0  0  -0.603638  0  3.342998  0  0  -0.621758  0  3.342772  0  0  -0.587192  -0.590738  0  3.34277  0
