# generated using pymatgen
data_Zn2H17C24N8Cl
_symmetry_space_group_name_H-M   'P 1'
_cell_length_a   15.57192136
_cell_length_b   15.57255407
_cell_length_c   16.01668456
_cell_angle_alpha   129.32578132
_cell_angle_beta   112.28249902
_cell_angle_gamma   87.60498448
_symmetry_Int_Tables_number   1
_chemical_formula_structural   Zn2H17C24N8Cl
_chemical_formula_sum   'Zn4 H34 C48 N16 Cl2'
_cell_volume   2671.05665919
_cell_formula_units_Z   2
loop_
 _symmetry_equiv_pos_site_id
 _symmetry_equiv_pos_as_xyz
  1  'x, y, z'
loop_
 _atom_site_type_symbol
 _atom_site_label
 _atom_site_symmetry_multiplicity
 _atom_site_fract_x
 _atom_site_fract_y
 _atom_site_fract_z
 _atom_site_occupancy
 _atom_site_pbe_bader_charge
 _atom_site_pbe_bader_spin_density
 _atom_site_pbe_cm5_charge
 _atom_site_pbe_ddec_charge
 _atom_site_pbe_ddec_spin_density
 _atom_site_pbe_ddec_sum_bond_order
 _atom_site_pbe_magmom
C  C0  1  0.75538310  0.27627496  0.23415627  1  0.387761  0  0.007201  -0.043207  0  3.9384  0
C  C1  1  0.31894178  0.51234730  0.48604601  1  0.055456  0  -0.035889  -0.033992  0  4.096783  0
C  C2  1  0.02630040  0.83289901  0.51397648  1  -0.002786  0  -0.035851  -0.033711  0  4.096993  0
C  C3  1  0.01228945  0.45094066  0.14122399  1  -0.009903  0  -0.043443  0.003006  0  4.135749  0
C  C4  1  0.30968666  0.87104003  0.85872932  1  0.011792  0  -0.043154  0.003577  0  4.135052  0
C  C5  1  0.58771535  0.61443417  0.59883341  1  -0.071128  0  -0.023385  -0.042849  0  3.900429  0
C  C6  1  0.01559610  0.98887542  0.40118776  1  0.006336  0  -0.023461  -0.042669  0  3.899895  0
C  C7  1  0.04208623  0.52122259  0.76583366  1  0.372273  0  0.007342  -0.043166  0  3.939082  0
C  C8  1  0.59801582  0.56573585  0.49489630  1  0.03023  0  -0.00657  0.059423  0  4.049078  0
C  C9  1  0.07084921  0.10311972  0.50512891  1  0.032004  0  -0.00645  0.059415  0  4.048512  0
C  C10  1  0.50859674  0.50606826  0.38861367  1  0.010335  0  -0.098822  -0.141731  0  4.009231  0
C  C11  1  0.11745427  0.12000270  0.61142850  1  -0.054108  0  -0.098799  -0.141848  0  4.008768  0
C  C12  1  0.41981581  0.49334773  0.38718260  1  -0.075768  0  -0.095843  -0.136052  0  4.01996  0
C  C13  1  0.10614947  0.03265760  0.61286932  1  -0.078259  0  -0.095693  -0.135766  0  4.019687  0
C  C14  1  0.41078496  0.53963222  0.49212869  1  0.057883  0  -0.011982  0.036288  0  4.056667  0
C  C15  1  0.04748910  0.91867607  0.50791169  1  0.059593  0  -0.011992  0.036055  0  4.057192  0
C  C16  1  0.49870727  0.60297261  0.59765989  1  -0.098202  0  -0.010385  0.047306  0  3.897823  0
C  C17  1  0.00529347  0.90104884  0.40236723  1  -0.064226  0  -0.010349  0.04725  0  3.89771  0
C  C18  1  0.54257134  0.67282021  0.73307829  1  0.025146  0  -0.155257  -0.245763  0  3.870495  0
C  C19  1  0.93975315  0.80946064  0.26692916  1  -0.010305  0  -0.155181  -0.245712  0  3.869567  0
C  C20  1  0.02657185  0.20372853  0.41992931  1  0.459027  0  0.004271  -0.037832  0  3.954948  0
C  C21  1  0.78382416  0.60660521  0.58007085  1  0.427386  0  0.004129  -0.037086  0  3.955562  0
C  C22  1  0.64259334  0.68854984  0.73486126  1  0.117944  0  -0.038417  0.076983  0  3.794846  0
C  C23  1  0.01601289  0.85467885  0.60878951  1  0.36993  0  0.008771  -0.051367  0  4.000398  0
C  C24  1  0.95370701  0.90770808  0.26514976  1  0.082179  0  -0.038502  0.076885  0  3.793932  0
C  C25  1  0.97955657  0.57793485  0.91807445  1  -0.029578  0  -0.09968  -0.127859  0  4.03692  0
C  C26  1  0.65984107  0.06148692  0.08192836  1  -0.056049  0  -0.099555  -0.127667  0  4.036519  0
C  C27  1  0.02428713  0.52646347  0.95964413  1  -0.025963  0  -0.108549  -0.104921  0  4.099564  0
C  C28  1  0.56679606  0.06464823  0.04035841  1  0.019661  0  -0.108527  -0.104949  0  4.099775  0
C  C29  1  0.24590775  0.40724082  0.39121085  1  0.397362  0  0.008801  -0.051267  0  4.000095  0
C  C30  1  0.04308821  0.46787580  0.07692384  1  -0.104913  0  -0.102875  -0.134921  0  4.049716  0
C  C31  1  0.39091155  0.96616295  0.92304465  1  -0.039298  0  -0.102698  -0.135067  0  4.050725  0
C  C32  1  0.99796599  0.51373149  0.02861027  1  0.018189  0  -0.108658  -0.105105  0  4.112012  0
C  C33  1  0.48508279  0.96936287  0.97137552  1  -0.032157  0  -0.108896  -0.105262  0  4.112454  0
C  C34  1  0.14741565  0.30845378  0.60499226  1  0.419448  0  0.006898  -0.053892  0  3.999621  0
C  C35  1  0.70346771  0.54240839  0.39501466  1  0.414204  0  0.006969  -0.05371  0  3.999481  0
C  C36  1  0.97994264  0.66968638  0.83098145  1  0.404173  0  0.007295  -0.052729  0  3.977407  0
C  C37  1  0.83870411  0.14897322  0.16903007  1  0.416235  0  0.007303  -0.052908  0  3.977422  0
C  C38  1  0.74497487  0.15636200  0.15701922  1  0.030394  0  -0.040715  0.011532  0  4.12443  0
C  C39  1  0.99932288  0.58795820  0.84297229  1  0.048426  0  -0.040599  0.011592  0  4.125077  0
C  C40  1  0.08088734  0.19820949  0.50889476  1  -0.028957  0  -0.03827  -0.038898  0  4.088948  0
C  C41  1  0.68933497  0.57196909  0.49112127  1  0.01155  0  -0.0382  -0.038657  0  4.088702  0
C  C42  1  0.00239488  0.71174378  0.42599504  1  0.43273  0  0.00725  -0.038322  0  3.944166  0
C  C43  1  0.28576708  0.57641170  0.57404031  1  0.359406  0  0.00728  -0.038234  0  3.944065  0
C  C44  1  0.06306012  0.42297635  0.21131466  1  0.427039  0  0.002606  -0.050425  0  3.971108  0
C  C45  1  0.21162195  0.85167190  0.78861177  1  0.397941  0  0.002415  -0.050748  0  3.971213  0
C  C46  1  0.30878399  0.77504988  0.84984413  1  0.424604  0  0.00684  -0.05507  0  3.982144  0
C  C47  1  0.92520356  0.45893885  0.15014224  1  0.399077  0  0.00698  -0.054637  0  3.982126  0
Cl  Cl48  1  0.72689584  0.63214278  0.78952699  1  -0.282115  0  -0.071096  -0.173912  0  1.353681  0
Cl  Cl49  1  0.84263059  0.93731785  0.21039119  1  -0.282303  0  -0.071226  -0.17422  0  1.353622  0
H  H50  1  0.70217797  0.32233700  0.25640729  1  0.094861  0  0.11354  0.101447  0  1.028849  0
H  H51  1  0.96794856  0.73723506  0.21399611  1  0.043152  0  0.094227  0.109631  0  1.006395  0
H  H52  1  0.52331221  0.75396292  0.78603718  1  0.044217  0  0.094152  0.109495  0  1.006491  0
H  H53  1  0.53565652  0.62455410  0.75971137  1  0.033235  0  0.095305  0.113732  0  0.986574  0
H  H54  1  0.86484294  0.77587820  0.24023657  1  0.042094  0  0.095316  0.113755  0  0.986509  0
H  H55  1  0.68201841  0.77768747  0.78825315  1  0.086807  0  0.103984  0.083725  0  0.959201  0
H  H56  1  0.98943063  0.89375725  0.21174238  1  0.091285  0  0.104004  0.083777  0  0.95907  0
H  H57  1  0.06588754  0.44577448  0.74361986  1  0.093561  0  0.113441  0.101379  0  1.028968  0
H  H58  1  0.93518133  0.54294295  0.04137764  1  0.026861  0  0.094572  0.088867  0  1.009722  0
H  H59  1  0.50149216  0.89378490  0.95856508  1  0.011998  0  0.094514  0.088816  0  1.009754  0
H  H60  1  0.08352173  0.49222494  0.93998141  1  0.022966  0  0.095885  0.095624  0  0.992064  0
H  H61  1  0.55224844  0.14355504  0.06003019  1  0.029508  0  0.095845  0.095624  0  0.992033  0
H  H62  1  0.10756025  0.44179294  0.06749920  1  0.031594  0  0.095196  0.096407  0  0.996381  0
H  H63  1  0.37425415  0.04007087  0.93249034  1  0.025292  0  0.095203  0.0965  0  0.996749  0
H  H64  1  0.92358748  0.61619318  0.94366578  1  0.034121  0  0.092253  0.095009  0  1.007742  0
H  H65  1  0.67248482  0.97992041  0.05634764  1  0.02759  0  0.092237  0.094974  0  1.00748  0
H  H66  1  0.96526457  0.13861179  0.33172729  1  0.101421  0  0.101975  0.090869  0  1.075419  0
H  H67  1  0.80697512  0.63351614  0.66828052  1  0.081656  0  0.102136  0.089903  0  1.076391  0
H  H68  1  0.94556709  0.73752828  0.87284047  1  0.0836  0  0.11282  0.100628  0  1.008917  0
H  H69  1  0.86469614  0.07274541  0.12719773  1  0.085375  0  0.112827  0.100644  0  1.00899  0
H  H70  1  0.00132260  0.65696505  0.33788858  1  0.106506  0  0.113325  0.104833  0  1.045897  0
H  H71  1  0.31905015  0.66345730  0.66215050  1  0.115721  0  0.113333  0.104809  0  1.045984  0
H  H72  1  0.13473138  0.41024413  0.23113154  1  0.096307  0  0.108618  0.095058  0  1.041872  0
H  H73  1  0.35438769  0.44486160  0.30089203  1  0.051776  0  0.095535  0.094385  0  1.008102  0
H  H74  1  0.17901161  0.90347277  0.76875962  1  0.089966  0  0.108604  0.095075  0  1.041731  0
H  H75  1  0.36799384  0.75247642  0.88890912  1  0.080257  0  0.118861  0.106734  0  0.991771  0
H  H76  1  0.86358771  0.47909477  0.11106795  1  0.089791  0  0.118832  0.106621  0  0.99188  0
H  H77  1  0.02503008  0.93655936  0.69443320  1  0.093567  0  0.119221  0.105335  0  0.991879  0
H  H78  1  0.24209747  0.33060266  0.30554062  1  0.086078  0  0.119221  0.105362  0  0.991827  0
H  H79  1  0.14392868  0.05348942  0.69914689  1  0.052335  0  0.095554  0.094384  0  1.008113  0
H  H80  1  0.50875589  0.46626189  0.30298629  1  0.023678  0  0.095723  0.094952  0  1.012063  0
H  H81  1  0.16327787  0.20581644  0.69702060  1  0.041839  0  0.095588  0.094903  0  1.012065  0
H  H82  1  0.20383307  0.34431329  0.69319456  1  0.061731  0  0.117281  0.10255  0  1.000533  0
H  H83  1  0.65115080  0.51064611  0.30680982  1  0.08667  0  0.117234  0.102407  0  1.000523  0
N  N84  1  0.84735350  0.33480688  0.28611766  1  -0.778242  0  -0.271826  -0.198725  0  3.529919  0
N  N85  1  0.79827048  0.55994379  0.42599481  1  -0.811956  0  -0.28612  -0.173285  0  3.625331  0
N  N86  1  0.13396047  0.37226784  0.57400251  1  -0.809838  0  -0.286088  -0.173167  0  3.624864  0
N  N87  1  0.01124448  0.65396435  0.75585428  1  -0.797816  0  -0.28511  -0.172907  0  3.63155  0
N  N88  1  0.89811471  0.25539717  0.24415497  1  -0.812718  0  -0.285078  -0.172754  0  3.631131  0
N  N89  1  0.97916500  0.66502565  0.46518188  1  -0.791569  0  -0.272468  -0.20635  0  3.512451  0
N  N90  1  0.19986489  0.51397758  0.53483391  1  -0.792499  0  -0.272432  -0.206161  0  3.51287  0
N  N91  1  0.04867017  0.56122266  0.71387189  1  -0.780729  0  -0.271843  -0.198624  0  3.530185  0
N  N92  1  0.01087915  0.41528671  0.25797909  1  -0.792542  0  -0.267756  -0.21439  0  3.496864  0
N  N93  1  0.15728635  0.75284426  0.74198261  1  -0.796199  0  -0.267695  -0.214176  0  3.497197  0
N  N94  1  0.21807678  0.70610247  0.78087969  1  -0.818754  0  -0.289298  -0.181889  0  3.610928  0
N  N95  1  0.92523896  0.43720250  0.21911840  1  -0.799499  0  -0.289232  -0.181956  0  3.610498  0
N  N96  1  0.98715523  0.75431319  0.57811612  1  -0.79101  0  -0.287061  -0.176447  0  3.630891  0
N  N97  1  0.17621728  0.40905175  0.42189253  1  -0.796174  0  -0.287075  -0.176638  0  3.631405  0
N  N98  1  0.05860966  0.30821552  0.45974555  1  -0.776926  0  -0.268535  -0.208627  0  3.495434  0
N  N99  1  0.84848274  0.59883223  0.54023907  1  -0.785941  0  -0.268456  -0.2084  0  3.495596  0
Zn  Zn100  1  0.88117614  0.49922639  0.34387509  1  1.191986  0  0.744784  0.622745  0  2.412181  0
Zn  Zn101  1  0.15534761  0.53731230  0.65614603  1  1.193484  0  0.744817  0.622722  0  2.412093  0
Zn  Zn102  1  0.03654501  0.33637339  0.33748233  1  1.200554  0  0.753356  0.663875  0  2.27524  0
Zn  Zn103  1  0.99886756  0.69902308  0.66249603  1  1.199279  0  0.753378  0.663755  0  2.27574  0
