# generated using pymatgen
data_Zn2H24C41O8
_symmetry_space_group_name_H-M   'P 1'
_cell_length_a   16.50152955
_cell_length_b   16.67014949
_cell_length_c   28.83932021
_cell_angle_alpha   90.38557076
_cell_angle_beta   90.63578677
_cell_angle_gamma   90.71467027
_symmetry_Int_Tables_number   1
_chemical_formula_structural   Zn2H24C41O8
_chemical_formula_sum   'Zn4 H48 C82 O16'
_cell_volume   7931.91305759
_cell_formula_units_Z   2
loop_
 _symmetry_equiv_pos_site_id
 _symmetry_equiv_pos_as_xyz
  1  'x, y, z'
loop_
 _atom_site_type_symbol
 _atom_site_label
 _atom_site_symmetry_multiplicity
 _atom_site_fract_x
 _atom_site_fract_y
 _atom_site_fract_z
 _atom_site_occupancy
 _atom_site_pbe_bader_charge
 _atom_site_pbe_bader_spin_density
 _atom_site_pbe_cm5_charge
 _atom_site_pbe_ddec_charge
 _atom_site_pbe_ddec_spin_density
 _atom_site_pbe_ddec_sum_bond_order
 _atom_site_pbe_magmom
Zn  Zn0  1  0.50056754  0.07655741  0.50059917  1  1.289341  0  0.730538  0.970391  0  2.088779  0
Zn  Zn1  1  0.49942672  0.92344095  0.49940011  1  1.309362  0  0.730564  0.970425  0  2.088785  0
Zn  Zn2  1  0.07732887  0.50175064  0.00120048  1  1.290021  0  0.730308  0.969941  0  2.089153  0
Zn  Zn3  1  0.92266852  0.49825612  0.99880197  1  1.301245  0  0.730195  0.969849  0  2.089199  0
H  H4  1  0.31615855  0.12993125  0.39779126  1  0.12047  0  0.108391  0.114199  0  0.992914  0
H  H5  1  0.13021077  0.79520765  0.84242893  1  0.071253  0  0.106862  0.110223  0  0.987385  0
H  H6  1  0.19796678  0.87195510  0.33918883  1  0.079558  0  0.108669  0.112472  0  0.984739  0
H  H7  1  0.80202815  0.12804866  0.66080978  1  0.079345  0  0.108683  0.112466  0  0.984687  0
H  H8  1  0.68659004  0.87416636  0.40005892  1  0.078925  0  0.107049  0.11524  0  0.995034  0
H  H9  1  0.31379317  0.12584652  0.60018715  1  0.083695  0  0.107209  0.115501  0  0.995531  0
H  H10  1  0.12950878  0.33005779  0.10882298  1  0.090821  0  0.104697  0.112945  0  1.022383  0
H  H11  1  0.87052290  0.66966282  0.89099654  1  0.087694  0  0.104635  0.112938  0  1.022593  0
H  H12  1  0.86264154  0.68990798  0.09517324  1  0.082851  0  0.108789  0.115099  0  0.992014  0
H  H13  1  0.13735316  0.31012397  0.90480883  1  0.083302  0  0.108755  0.115012  0  0.992182  0
H  H14  1  0.12281889  0.69497902  0.09813478  1  0.085168  0  0.108226  0.114301  0  0.992354  0
H  H15  1  0.68384791  0.87007311  0.60219946  1  0.12047  0  0.108416  0.114274  0  0.992918  0
H  H16  1  0.87717605  0.30497914  0.90189590  1  0.085353  0  0.108442  0.11442  0  0.992339  0
H  H17  1  0.87004433  0.31792852  0.10074114  1  0.119879  0  0.106958  0.114825  0  0.994689  0
H  H18  1  0.12994143  0.68233139  0.89942311  1  0.118544  0  0.106958  0.114992  0  0.994969  0
H  H19  1  0.31179485  0.87238987  0.39720972  1  0.10295  0  0.108595  0.11468  0  0.991402  0
H  H20  1  0.68819768  0.12761509  0.60279026  1  0.10201  0  0.108605  0.114758  0  0.991513  0
H  H21  1  0.67787152  0.13096959  0.39593351  1  0.068215  0  0.104147  0.112072  0  1.023798  0
H  H22  1  0.32172183  0.86897705  0.60380695  1  0.109976  0  0.104086  0.111991  0  1.023906  0
H  H23  1  0.20247534  0.13067001  0.33969132  1  0.097365  0  0.107694  0.111076  0  0.986648  0
H  H24  1  0.79754082  0.86933375  0.66029426  1  0.097362  0  0.107697  0.110901  0  0.986982  0
H  H25  1  0.24005177  0.24388917  0.12041712  1  -0.01113  0  0.087931  0.114229  0  1.000433  0
H  H26  1  0.79848022  0.87587659  0.34203876  1  0.079393  0  0.107523  0.11155  0  0.985617  0
H  H27  1  0.23149536  0.31376393  0.16684720  1  -0.008479  0  0.086909  0.112696  0  1.001193  0
H  H28  1  0.28315879  0.22229415  0.17546927  1  0.033636  0  0.089335  0.116376  0  0.998051  0
H  H29  1  0.14785786  0.21102351  0.21117879  1  0.046165  0  0.096148  0.09314  0  0.967295  0
H  H30  1  0.15550655  0.14332135  0.16518658  1  0.063244  0  0.097691  0.096302  0  0.964708  0
H  H31  1  0.76873936  0.68574739  0.83283418  1  0.03765  0  0.087269  0.112851  0  1.002028  0
H  H32  1  0.75983911  0.75560283  0.87924591  1  -0.00516  0  0.087829  0.113744  0  1.001616  0
H  H33  1  0.71690492  0.77710252  0.82413630  1  0.047404  0  0.089503  0.116765  0  0.998607  0
H  H34  1  0.84435729  0.85634881  0.83459243  1  0.068279  0  0.097924  0.096281  0  0.965251  0
H  H35  1  0.85234250  0.78866177  0.78861468  1  0.040655  0  0.096207  0.092985  0  0.967924  0
H  H36  1  0.69388958  0.23326448  0.33991335  1  0.044826  0  0.087113  0.112447  0  1.001331  0
H  H37  1  0.20193073  0.12412670  0.65822515  1  0.075229  0  0.107504  0.11154  0  0.98551  0
H  H38  1  0.76668653  0.24115311  0.38564428  1  0.006583  0  0.087559  0.113257  0  1.000803  0
H  H39  1  0.78681901  0.28522351  0.33110557  1  0.043772  0  0.089508  0.116361  0  0.998173  0
H  H40  1  0.86471979  0.15939739  0.33799106  1  0.016898  0  0.0977  0.096082  0  0.964814  0
H  H41  1  0.79390760  0.15215557  0.29283677  1  0.027102  0  0.096604  0.093936  0  0.966215  0
H  H42  1  0.23231027  0.75908850  0.61377464  1  -0.007931  0  0.087395  0.113199  0  1.00118  0
H  H43  1  0.30525274  0.76628846  0.65946052  1  -0.000899  0  0.086984  0.112695  0  1.001295  0
H  H44  1  0.21213202  0.71463653  0.66820440  1  -0.001254  0  0.089586  0.116627  0  0.998575  0
H  H45  1  0.20576525  0.84744913  0.70684776  1  0.037779  0  0.096796  0.094191  0  0.966202  0
H  H46  1  0.13473818  0.84082816  0.66177663  1  0.071927  0  0.097373  0.095598  0  0.965276  0
H  H47  1  0.86035039  0.80432520  0.15168329  1  0.064232  0  0.10879  0.112219  0  0.984261  0
H  H48  1  0.13964730  0.19570376  0.84830087  1  0.064684  0  0.108696  0.112056  0  0.984557  0
H  H49  1  0.12171980  0.80944346  0.15464649  1  0.065157  0  0.108515  0.112511  0  0.985348  0
H  H50  1  0.87827881  0.19051770  0.84538561  1  0.064442  0  0.108482  0.112464  0  0.985415  0
H  H51  1  0.86976733  0.20507085  0.15774540  1  0.06768  0  0.106589  0.109943  0  0.987463  0
C  C52  1  0.61311732  0.99893648  0.56355978  1  1.532443  0  0.220258  0.599193  0  4.159739  0
C  C53  1  0.07356189  0.76693021  0.85308364  1  -0.032494  0  -0.083256  -0.122724  0  3.980569  0
C  C54  1  0.92643839  0.29563173  0.11542176  1  -0.027497  0  -0.08629  -0.098297  0  4.007181  0
C  C55  1  0.07356050  0.70450520  0.88466305  1  -0.028659  0  -0.08635  -0.098733  0  4.007276  0
C  C56  1  0.22424171  0.92827952  0.35197900  1  -0.050862  0  -0.080963  -0.128723  0  3.948057  0
C  C57  1  0.77575809  0.07172484  0.64801549  1  -0.050706  0  -0.080825  -0.128418  0  3.947977  0
C  C58  1  0.28741848  0.92844618  0.38420072  1  -0.004287  0  -0.078827  -0.0838  0  3.982247  0
C  C59  1  0.71257828  0.07155818  0.61579548  1  -0.00353  0  -0.078879  -0.084039  0  3.982642  0
C  C60  1  0.76677421  0.07862331  0.35081508  1  -0.027566  0  0.002189  0.080219  0  3.895102  0
C  C61  1  0.23296559  0.92131617  0.64903141  1  -0.001217  0  0.002367  0.080492  0  3.895522  0
C  C62  1  0.70506756  0.07585780  0.38340052  1  -0.01013  0  -0.085031  -0.150201  0  3.943157  0
C  C63  1  0.38687825  0.00106907  0.43643815  1  1.532705  0  0.220216  0.598872  0  4.160353  0
C  C64  1  0.29469177  0.92409369  0.61645343  1  -0.025079  0  -0.084931  -0.150058  0  3.943766  0
C  C65  1  0.99473221  0.00482467  0.24811650  1  0.326004  0  0.067351  0.319974  0  4.10139  0
C  C66  1  0.00526391  0.99517669  0.75188384  1  0.325594  0  0.067451  0.320168  0  4.101386  0
C  C67  1  0.61124366  0.00234845  0.43674120  1  1.533549  0  0.218872  0.598202  0  4.152806  0
C  C68  1  0.38874561  0.99763791  0.56325661  1  1.532523  0  0.21896  0.598586  0  4.152797  0
C  C69  1  0.19269334  0.00132658  0.33577211  1  0.11687  0  0.005929  0.148133  0  4.106948  0
C  C70  1  0.80731254  0.99867898  0.66421860  1  0.117151  0  0.005829  0.147914  0  4.106947  0
C  C71  1  0.32049236  0.00114503  0.40090503  1  -0.046264  0  -0.016841  -0.035812  0  3.969761  0
C  C72  1  0.67950924  0.99885813  0.59909016  1  -0.046273  0  -0.016905  -0.035792  0  3.969591  0
C  C73  1  0.80077675  0.00479501  0.33625151  1  0.032085  0  0.002464  0.0827  0  4.081617  0
C  C74  1  0.91885990  0.71655554  0.10857119  1  -0.033473  0  -0.079678  -0.085948  0  3.984567  0
C  C75  1  0.19922500  0.99517215  0.66375359  1  0.029035  0  0.002381  0.082809  0  4.082296  0
C  C76  1  0.67634381  0.00286623  0.40124926  1  -0.000112  0  -0.018367  -0.027833  0  3.988417  0
C  C77  1  0.32365021  0.99711293  0.59874994  1  -0.031106  0  -0.01871  -0.028578  0  3.988789  0
C  C78  1  0.99989366  0.20428844  0.16529186  1  0.079121  0  0.002034  0.082527  0  4.082056  0
C  C79  1  0.00010910  0.79571112  0.83470470  1  0.047225  0  0.002345  0.082648  0  4.082334  0
C  C80  1  0.00019304  0.32986378  0.10158680  1  -0.038048  0  -0.019183  -0.030268  0  3.989359  0
C  C81  1  0.99981679  0.67011838  0.89840073  1  -0.041783  0  -0.019309  -0.030522  0  3.988926  0
C  C82  1  0.99095939  0.81410852  0.15695661  1  0.045504  0  0.006078  0.147342  0  4.103912  0
C  C83  1  0.00903910  0.18588864  0.84304720  1  0.045149  0  0.006137  0.147201  0  4.103886  0
C  C84  1  0.99282547  0.68562076  0.09351444  1  -0.078027  0  -0.016698  -0.035419  0  3.968468  0
C  C85  1  0.08113705  0.28346322  0.89142229  1  -0.033435  0  -0.079807  -0.086126  0  3.984648  0
C  C86  1  0.00716335  0.31437879  0.90649105  1  -0.078084  0  -0.016511  -0.035156  0  3.968488  0
C  C87  1  0.06801546  0.00227131  0.27805077  1  -0.024476  0  -0.035395  -0.103968  0  3.951974  0
C  C88  1  0.93198677  0.99773365  0.72194546  1  -0.02445  0  -0.035501  -0.104126  0  3.952087  0
C  C89  1  0.99640166  0.07876037  0.22012463  1  -0.281177  0  -0.035338  -0.112166  0  3.948937  0
C  C90  1  0.00358903  0.92124279  0.77987706  1  -0.280745  0  -0.035299  -0.112153  0  3.949044  0
C  C91  1  0.22679404  0.07426755  0.35227763  1  -0.083556  0  -0.081662  -0.129919  0  3.950666  0
C  C92  1  0.77321907  0.92573502  0.64771035  1  -0.083398  0  -0.081769  -0.12963  0  3.95107  0
C  C93  1  0.92287287  0.00420399  0.27826434  1  0.039759  0  -0.035749  -0.112301  0  3.947029  0
C  C94  1  0.07712804  0.99579317  0.72173879  1  0.034616  0  -0.035812  -0.11247  0  3.946958  0
C  C95  1  0.99223928  0.93497794  0.21621026  1  0.226853  0  -0.036209  -0.106166  0  3.951339  0
C  C96  1  0.06518143  0.78292835  0.14159468  1  -0.015449  0  -0.081444  -0.129932  0  3.94883  0
C  C97  1  0.00775319  0.06502222  0.78379075  1  0.227057  0  -0.036233  -0.106075  0  3.951285  0
C  C98  1  0.12624413  0.00163504  0.30416952  1  -0.238664  0  -0.037301  -0.094246  0  4.123412  0
C  C99  1  0.87375994  0.99837111  0.69582292  1  -0.238454  0  -0.037198  -0.094181  0  4.123567  0
C  C100  1  0.99075247  0.87914696  0.18891943  1  -0.51339  0  -0.036739  -0.091694  0  4.121042  0
C  C101  1  0.00924118  0.12085140  0.81108401  1  -0.513545  0  -0.036759  -0.091775  0  4.121063  0
C  C102  1  0.99815659  0.13775095  0.19562741  1  -0.001281  0  -0.033741  -0.0823  0  4.14763  0
C  C103  1  0.00183047  0.86225281  0.80437288  1  -0.001541  0  -0.03387  -0.082405  0  4.147807  0
C  C104  1  0.86585656  0.00439644  0.30456039  1  -0.300402  0  -0.032964  -0.080839  0  4.146027  0
C  C105  1  0.13414666  0.99559172  0.69544515  1  -0.295487  0  -0.032878  -0.080761  0  4.146049  0
C  C106  1  0.99410738  0.61743558  0.05977056  1  1.537548  0  0.22  0.598994  0  4.158888  0
C  C107  1  0.93481620  0.21705021  0.85842361  1  -0.015087  0  -0.081392  -0.129831  0  3.948502  0
C  C108  1  0.00589301  0.38256818  0.94023225  1  1.537621  0  0.219862  0.598969  0  4.158964  0
C  C109  1  0.00084508  0.39447123  0.06605005  1  1.520982  0  0.219949  0.599912  0  4.151721  0
C  C110  1  0.99916614  0.60552653  0.93394622  1  1.520862  0  0.220125  0.60064  0  4.150781  0
C  C111  1  0.28990896  0.07394223  0.38452822  1  -0.030973  0  -0.079647  -0.084311  0  3.985321  0
C  C112  1  0.71010049  0.92605853  0.61546354  1  -0.030885  0  -0.079564  -0.084506  0  3.985421  0
C  C113  1  0.77138344  0.93154819  0.35389394  1  -0.012006  0  -0.08339  -0.123076  0  3.979071  0
C  C114  1  0.22886747  0.06844125  0.64626308  1  -0.006913  0  -0.083164  -0.122714  0  3.978888  0
C  C115  1  0.70951054  0.93044866  0.38608670  1  -0.008767  0  -0.086092  -0.099705  0  4.006535  0
C  C116  1  0.29071988  0.06954858  0.61405981  1  -0.013274  0  -0.086076  -0.100011  0  4.007132  0
C  C117  1  0.07505982  0.23969682  0.15234866  1  -0.007151  0  0.002292  0.080178  0  3.894374  0
C  C118  1  0.06585413  0.71940607  0.11023041  1  0.049011  0  -0.079315  -0.083618  0  3.983375  0
C  C119  1  0.92496047  0.76014017  0.84754440  1  0.027912  0  0.001977  0.080191  0  3.894494  0
C  C120  1  0.07338601  0.30197306  0.12034715  1  -0.016577  0  -0.084686  -0.149857  0  3.941765  0
C  C121  1  0.92664023  0.69785434  0.87954106  1  -0.009566  0  -0.084741  -0.150022  0  3.94174  0
C  C122  1  0.91768141  0.78010103  0.13996126  1  0.04043  0  -0.080451  -0.127367  0  3.946865  0
C  C123  1  0.08231366  0.21991353  0.86003254  1  0.039823  0  -0.080353  -0.127082  0  3.947287  0
C  C124  1  0.15269069  0.20805739  0.17308491  1  -0.022419  0  -0.156608  -0.138713  0  3.993055  0
C  C125  1  0.23090315  0.24949886  0.15800044  1  -0.000218  0  -0.242199  -0.351704  0  3.989977  0
C  C126  1  0.84734601  0.79162543  0.82670260  1  -0.027029  0  -0.156631  -0.138059  0  3.993599  0
C  C127  1  0.76914798  0.75001479  0.84167485  1  -0.061146  0  -0.242801  -0.352131  0  3.992427  0
C  C128  1  0.79891290  0.15617214  0.33096038  1  0.05333  0  -0.156762  -0.139019  0  3.991385  0
C  C129  1  0.93414284  0.28056768  0.88979063  1  0.049034  0  -0.079588  -0.083733  0  3.983537  0
C  C130  1  0.75915963  0.23291447  0.34797638  1  -0.086732  0  -0.242403  -0.350362  0  3.988685  0
C  C131  1  0.20057648  0.84374087  0.66872065  1  -0.036638  0  -0.15699  -0.138566  0  3.991222  0
C  C132  1  0.23996619  0.76697862  0.65145869  1  0.022483  0  -0.241975  -0.351159  0  3.989753  0
C  C133  1  0.92642996  0.23322652  0.14701298  1  -0.028563  0  -0.083237  -0.12276  0  3.980399  0
O  O134  1  0.58779706  0.06726656  0.55001084  1  -1.148466  0  -0.31792  -0.55495  0  2.285972  0
O  O135  1  0.93631685  0.40785769  0.95245031  1  -1.148584  0  -0.318306  -0.557704  0  2.289865  0
O  O136  1  0.93203842  0.41799055  0.05067420  1  -1.153534  0  -0.318709  -0.556291  0  2.286526  0
O  O137  1  0.06795914  0.58203120  0.94933803  1  -1.154023  0  -0.318716  -0.556485  0  2.28677  0
O  O138  1  0.06996665  0.42119532  0.05302038  1  -1.152718  0  -0.318541  -0.552135  0  2.282616  0
O  O139  1  0.93003229  0.57878864  0.94696813  1  -1.152449  0  -0.318667  -0.552493  0  2.28173  0
O  O140  1  0.92569403  0.58935102  0.04541868  1  -1.144216  0  -0.317587  -0.551786  0  2.278621  0
O  O141  1  0.07429384  0.41066893  0.95457267  1  -1.144067  0  -0.317617  -0.55182  0  2.279046  0
O  O142  1  0.41221974  0.93273900  0.44997474  1  -1.14878  0  -0.317917  -0.554843  0  2.285984  0
O  O143  1  0.58538214  0.93379044  0.45040388  1  -1.149228  0  -0.318261  -0.555636  0  2.285943  0
O  O144  1  0.41463681  0.06619653  0.54961389  1  -1.149279  0  -0.318334  -0.555753  0  2.286092  0
O  O145  1  0.58611238  0.07035522  0.45121096  1  -1.152778  0  -0.318375  -0.552164  0  2.283705  0
O  O146  1  0.41385393  0.92963533  0.54876660  1  -1.151476  0  -0.318435  -0.552279  0  2.283542  0
O  O147  1  0.58672585  0.93065487  0.54903033  1  -1.156243  0  -0.318269  -0.554577  0  2.28417  0
O  O148  1  0.41324664  0.06934888  0.45098165  1  -1.156294  0  -0.318296  -0.554438  0  2.284628  0
O  O149  1  0.06367433  0.59213706  0.04756038  1  -1.14861  0  -0.318457  -0.557685  0  2.290107  0
