# generated using pymatgen
data_Al3H32C42(BrO7)2
_symmetry_space_group_name_H-M   'P 1'
_cell_length_a   13.19349418
_cell_length_b   12.95186660
_cell_length_c   28.33553473
_cell_angle_alpha   89.95393888
_cell_angle_beta   89.78410980
_cell_angle_gamma   60.20863241
_symmetry_Int_Tables_number   1
_chemical_formula_structural   Al3H32C42(BrO7)2
_chemical_formula_sum   'Al6 H64 C84 Br4 O28'
_cell_volume   4202.03839966
_cell_formula_units_Z   2
loop_
 _symmetry_equiv_pos_site_id
 _symmetry_equiv_pos_as_xyz
  1  'x, y, z'
loop_
 _atom_site_type_symbol
 _atom_site_label
 _atom_site_symmetry_multiplicity
 _atom_site_fract_x
 _atom_site_fract_y
 _atom_site_fract_z
 _atom_site_occupancy
 _atom_site_pbe_bader_charge
 _atom_site_pbe_bader_spin_density
 _atom_site_pbe_cm5_charge
 _atom_site_pbe_ddec_charge
 _atom_site_pbe_ddec_spin_density
 _atom_site_pbe_ddec_sum_bond_order
 _atom_site_pbe_magmom
Al  Al0  1  0.41388410  0.17810766  0.49686587  1  2.491538  0  0.39804  1.683609  0  2.556103  0
Al  Al1  1  0.41951713  0.92700188  0.49928837  1  2.481242  0  0.507843  1.657948  0  2.512317  0
Al  Al2  1  0.64827007  0.92390472  0.50012395  1  2.479536  0  0.505804  1.656466  0  2.519894  0
Al  Al3  1  0.92474176  0.15554518  0.99772231  1  2.496483  0  0.398424  1.684967  0  2.552408  0
Al  Al4  1  0.68335388  0.40396807  0.00015027  1  2.479357  0  0.506919  1.660199  0  2.514076  0
Al  Al5  1  0.90677263  0.41252471  0.99951915  1  2.481832  0  0.508422  1.660188  0  2.507785  0
H  H6  1  0.48158987  0.70867082  0.22332477  1  0.122311  0  0.114424  0.120259  0  0.965245  0
H  H7  1  0.58675154  0.52394371  0.29115367  1  0.085384  0  0.109807  0.104451  0  0.982768  0
H  H8  1  0.76828177  0.74047397  0.22159627  1  0.078095  0  0.11449  0.122118  0  0.964321  0
H  H9  1  0.87409037  0.55566183  0.28940457  1  0.052807  0  0.108742  0.102568  0  0.984247  0
H  H10  1  0.79662626  0.42042112  0.23788917  1  0.060074  0  0.102346  0.093918  0  1.042498  0
H  H11  1  0.78632767  0.99029292  0.19635176  1  0.040509  0  0.095196  0.096866  0  0.97604  0
H  H12  1  0.82350966  0.97630490  0.27847497  1  0.017316  0  0.092312  0.093185  0  0.972713  0
H  H13  1  0.71633174  0.29545069  0.29984623  1  0.033531  0  0.091429  0.08795  0  0.993923  0
H  H14  1  0.84170441  0.15308536  0.30474555  1  0.047016  0  0.093682  0.09191  0  0.989062  0
H  H15  1  0.86470369  0.12795531  0.22215172  1  0.042435  0  0.09413  0.093792  0  0.979548  0
H  H16  1  0.77119599  0.28368137  0.21970157  1  0.018775  0  0.088676  0.078864  0  1.029252  0
H  H17  1  0.50367576  0.18974378  0.27946562  1  0.027514  0  0.088143  0.089245  0  1.001748  0
H  H18  1  0.51094045  0.31348985  0.30144074  1  0.039525  0  0.096346  0.097743  0  0.973341  0
H  H19  1  0.49405520  0.27407368  0.20511824  1  0.070565  0  0.082072  0.08427  0  1.037835  0
H  H20  1  0.68803968  0.98015942  0.28303524  1  0.05121  0  0.078067  0.074297  0  1.058165  0
H  H21  1  0.63509470  0.04505810  0.20496068  1  0.028853  0  0.083845  0.08477  0  1.017251  0
H  H22  1  0.55357752  0.36147834  0.22576362  1  0.026243  0  0.089407  0.089068  0  0.978735  0
H  H23  1  0.19302402  0.32279371  0.21210673  1  0.076809  0  0.105757  0.08889  0  0.95763  0
H  H24  1  0.24774867  0.27833212  0.29128816  1  0.029965  0  0.104788  0.11896  0  0.957725  0
H  H25  1  0.98532914  0.23760348  0.30315060  1  0.02943  0  0.096282  0.098866  0  0.984119  0
H  H26  1  0.03207728  0.34383132  0.30111597  1  0.026463  0  0.094301  0.091797  0  0.987988  0
H  H27  1  0.99205773  0.36416903  0.21980577  1  0.072182  0  0.094991  0.093009  0  0.989459  0
H  H28  1  0.96119424  0.24635707  0.22106397  1  0.016003  0  0.095841  0.09395  0  1.01329  0
H  H29  1  0.27751787  0.97155629  0.28196411  1  0.070008  0  0.083397  0.082283  0  1.03115  0
H  H30  1  0.12570380  0.02527603  0.28557586  1  0.016958  0  0.094253  0.096055  0  0.971875  0
H  H31  1  0.26887172  0.00343634  0.20051738  1  0.041771  0  0.087632  0.089559  0  1.008238  0
H  H32  1  0.34641876  0.12865924  0.27716570  1  0.061267  0  0.083416  0.099925  0  1.047151  0
H  H33  1  0.12304893  0.03308954  0.20253760  1  0.025396  0  0.097738  0.10372  0  0.969261  0
H  H34  1  0.76716376  0.74345221  0.79874478  1  0.049581  0  0.098766  0.101349  0  0.972736  0
H  H35  1  0.75727220  0.76818702  0.71683956  1  0.027267  0  0.097604  0.099647  0  0.97608  0
H  H36  1  0.72596947  0.49956755  0.69866040  1  0.021286  0  0.094665  0.097012  0  0.97474  0
H  H37  1  0.82742035  0.55081044  0.69908023  1  0.049452  0  0.085298  0.086756  0  1.026469  0
H  H38  1  0.84988753  0.52567425  0.78035386  1  0.036204  0  0.093543  0.091721  0  0.990884  0
H  H39  1  0.75820393  0.46230250  0.77956450  1  0.019926  0  0.093266  0.091075  0  1.002945  0
H  H40  1  0.46075204  0.79589256  0.72063116  1  0.028457  0  0.092371  0.090266  0  1.00307  0
H  H41  1  0.50875116  0.64548532  0.70769639  1  0.026931  0  0.096745  0.097108  0  0.975305  0
H  H42  1  0.47906778  0.74910456  0.80108140  1  0.023086  0  0.09666  0.097639  0  0.976069  0
H  H43  1  0.60633539  0.87089852  0.72245995  1  0.042394  0  0.089976  0.083569  0  0.999205  0
H  H44  1  0.61445708  0.83742982  0.80391068  1  0.035475  0  0.092722  0.0898  0  0.983255  0
H  H45  1  0.53804501  0.59689914  0.78803046  1  0.012497  0  0.094782  0.093284  0  0.982281  0
H  H46  1  0.48837912  0.28984752  0.79460006  1  0.0524  0  0.101401  0.106152  0  0.968855  0
H  H47  1  0.47775189  0.27574863  0.71232233  1  0.020654  0  0.099005  0.102011  0  0.971107  0
H  H48  1  0.78510136  0.21407987  0.69747770  1  0.067386  0  0.097345  0.102338  0  0.974367  0
H  H49  1  0.63701688  0.32740320  0.69571774  1  0.010837  0  0.096671  0.096313  0  0.97821  0
H  H50  1  0.63609573  0.35444213  0.77764921  1  0.030421  0  0.095048  0.094974  0  0.984487  0
H  H51  1  0.78708494  0.25012015  0.77816458  1  0.057045  0  0.090386  0.092629  0  1.016786  0
H  H52  1  0.73049210  0.96213735  0.71975505  1  0.041148  0  0.097172  0.104403  0  1.002392  0
H  H53  1  0.83903280  0.00131775  0.70965051  1  0.072494  0  0.098556  0.111945  0  0.988389  0
H  H54  1  0.74137218  0.98681849  0.80066557  1  0.079144  0  0.104569  0.088259  0  0.966451  0
H  H55  1  0.51390198  0.12580668  0.71909575  1  0.01906  0  0.090767  0.085912  0  0.998685  0
H  H56  1  0.53332372  0.13766346  0.80092122  1  0.03815  0  0.094046  0.092184  0  0.98214  0
H  H57  1  0.20745681  0.00389617  0.79247165  1  0.012993  0  0.098987  0.105452  0  0.968442  0
H  H58  1  0.27602836  0.97347558  0.71398384  1  0.035821  0  0.100833  0.104079  0  0.978972  0
H  H59  1  0.99511040  0.25572350  0.69203017  1  0.05809  0  0.090456  0.095881  0  0.998121  0
H  H60  1  0.05747769  0.10340106  0.70685167  1  0.045852  0  0.095039  0.098029  0  0.978983  0
H  H61  1  0.99603306  0.16933874  0.78424085  1  0.066326  0  0.083387  0.082664  0  1.046081  0
H  H62  1  0.96969358  0.31433423  0.77136465  1  0.034637  0  0.090555  0.09182  0  1.008192  0
H  H63  1  0.28321260  0.25443791  0.70754707  1  0.090611  0  0.102573  0.083822  0  0.983625  0
H  H64  1  0.27396484  0.25343925  0.78972699  1  0.028911  0  0.099189  0.110239  0  0.969185  0
H  H65  1  0.36119810  0.04157901  0.72447084  1  0.020135  0  0.089915  0.083527  0  0.997693  0
H  H66  1  0.31842996  0.03820927  0.80501151  1  0.052001  0  0.09455  0.093719  0  0.980576  0
H  H67  1  0.12769460  0.36876741  0.78534737  1  0.077137  0  0.098663  0.113282  0  0.988208  0
H  H68  1  0.30402780  0.37444795  0.52372833  1  0.59452  0  0.293021  0.384303  0  0.921533  0
H  H69  1  0.03948465  0.96024698  0.02489396  1  0.589716  0  0.29264  0.382969  0  0.922871  0
C  C70  1  0.29004685  0.09572365  0.43088402  1  1.67122  0  0.279826  0.717913  0  4.155229  0
C  C71  1  0.60536732  0.77442775  0.43795141  1  1.672488  0  0.286308  0.721327  0  4.146668  0
C  C72  1  0.62516045  0.08889007  0.43328968  1  1.651072  0  0.281251  0.720455  0  4.156099  0
C  C73  1  0.28357246  0.09987552  0.56407064  1  1.631693  0  0.277984  0.719637  0  4.154831  0
C  C74  1  0.59958493  0.79005766  0.56687905  1  1.612163  0  0.282939  0.728417  0  4.143026  0
C  C75  1  0.61257142  0.09704570  0.56615612  1  1.698644  0  0.276905  0.71855  0  4.158928  0
C  C76  1  0.62749472  0.57146219  0.27538487  1  -0.027955  0  -0.065235  -0.069229  0  3.622315  0
C  C77  1  0.56883988  0.67356218  0.23820433  1  -0.037937  0  -0.066841  -0.111487  0  3.620969  0
C  C78  1  0.70421612  0.58159147  0.11582194  1  0.296436  0  -0.035926  -0.194014  0  3.946463  0
C  C79  1  0.63759993  0.71010387  0.39407033  1  0.223499  0  -0.033307  -0.189756  0  3.947734  0
C  C80  1  0.74377952  0.51450157  0.24650534  1  0.001627  0  -0.066318  -0.072164  0  3.603757  0
C  C81  1  0.68555535  0.61679750  0.20789164  1  0.135333  0  0.013241  0.1284  0  3.777307  0
C  C82  1  0.78712260  0.58905414  0.27439954  1  0.002956  0  -0.065374  -0.068183  0  3.619057  0
C  C83  1  0.67107653  0.64560292  0.30494889  1  0.102606  0  0.008478  0.089081  0  3.794484  0
C  C84  1  0.72911585  0.69137642  0.23725628  1  0.000562  0  -0.06644  -0.110295  0  3.615389  0
C  C85  1  0.61299189  0.74706714  0.26592467  1  0.002501  0  0.004217  0.092718  0  3.626709  0
C  C86  1  0.69498466  0.59907855  0.15834063  1  -0.56352  0  -0.017355  -0.02523  0  4.044302  0
C  C87  1  0.65675760  0.67314954  0.35360487  1  -0.465797  0  -0.019317  -0.020258  0  4.067975  0
C  C88  1  0.72995995  0.02981779  0.27024664  1  -0.021453  0  -0.159925  -0.191453  0  3.861283  0
C  C89  1  0.75822609  0.20388993  0.28615765  1  -0.074628  0  -0.153928  -0.192132  0  3.863154  0
C  C90  1  0.77759715  0.20044306  0.23222811  1  -0.037997  0  -0.154125  -0.191067  0  3.860264  0
C  C91  1  0.69937145  0.21176552  0.11422480  1  0.162719  0  -0.052856  -0.225888  0  3.975997  0
C  C92  1  0.67916694  0.14982164  0.29717497  1  0.1388  0  0.001298  0.170979  0  3.886211  0
C  C93  1  0.70969929  0.05380548  0.21687209  1  -0.033571  0  -0.156588  -0.189794  0  3.851258  0
C  C94  1  0.68420552  0.18207358  0.20636889  1  0.164186  0  0.000598  0.171331  0  3.889913  0
C  C95  1  0.56329770  0.27205669  0.22710427  1  -0.066856  0  -0.159995  -0.191917  0  3.861864  0
C  C96  1  0.55481417  0.23567932  0.27809717  1  -0.017378  0  -0.154752  -0.184728  0  3.840815  0
C  C97  1  0.69046001  0.19890085  0.15621759  1  -0.464332  0  -0.014137  -0.012157  0  4.010661  0
C  C98  1  0.67250415  0.13057843  0.34713782  1  -0.343104  0  -0.01339  -0.012962  0  4.008919  0
C  C99  1  0.65864739  0.11329116  0.38819597  1  0.086533  0  -0.0509  -0.225987  0  3.977119  0
C  C100  1  0.25619072  0.20029705  0.27248909  1  -0.010936  0  -0.157929  -0.237447  0  3.835227  0
C  C101  1  0.04612338  0.26006812  0.28549363  1  -0.023441  0  -0.153597  -0.191803  0  3.851037  0
C  C102  1  0.02558008  0.27203170  0.23155661  1  -0.040679  0  -0.152049  -0.190135  0  3.83903  0
C  C103  1  0.09083255  0.22385495  0.11218189  1  -0.290908  0  -0.043334  -0.201538  0  3.961817  0
C  C104  1  0.17289928  0.16129593  0.29518973  1  0.135096  0  0.003092  0.179938  0  3.886712  0
C  C105  1  0.22844086  0.22816410  0.21985378  1  -0.002949  0  -0.058208  0.036521  0  3.674702  0
C  C106  1  0.14025134  0.19028593  0.20381933  1  0.143699  0  -0.003483  0.137869  0  3.911912  0
C  C107  1  0.18360120  0.05934732  0.21744135  1  -0.000168  0  -0.158109  -0.18867  0  3.850168  0
C  C108  1  0.19196404  0.04510297  0.27154810  1  -0.047401  0  -0.158826  -0.189056  0  3.849216  0
C  C109  1  0.11623954  0.20886778  0.15371885  1  0.040095  0  -0.02262  -0.031003  0  4.043826  0
C  C110  1  0.19931508  0.14185441  0.34515362  1  -0.095092  0  -0.017781  -0.025875  0  4.005201  0
C  C111  1  0.23222606  0.12123904  0.38583066  1  -0.190814  0  -0.045879  -0.211272  0  3.962172  0
C  C112  1  0.67469154  0.77985474  0.73112848  1  -0.034508  0  -0.152734  -0.187543  0  3.840087  0
C  C113  1  0.74670920  0.56314461  0.71558193  1  -0.018778  0  -0.154576  -0.187479  0  3.834099  0
C  C114  1  0.76349305  0.54134539  0.76944253  1  -0.022771  0  -0.15203  -0.185565  0  3.830603  0
C  C115  1  0.69633732  0.60134632  0.88922855  1  0.065207  0  -0.047421  -0.226399  0  3.954045  0
C  C116  1  0.64614461  0.69108987  0.70580503  1  0.156651  0  0.002799  0.168122  0  3.891208  0
C  C117  1  0.68271538  0.75929193  0.78517030  1  -0.040087  0  -0.152461  -0.188961  0  3.846148  0
C  C118  1  0.66850886  0.65034584  0.79705521  1  0.125066  0  0.002975  0.166167  0  3.892905  0
C  C119  1  0.54672458  0.67532219  0.78028390  1  0.013384  0  -0.152483  -0.185719  0  3.843009  0
C  C120  1  0.53167841  0.70462874  0.72690748  1  -0.011017  0  -0.154532  -0.189298  0  3.8457  0
C  C121  1  0.68298720  0.62512438  0.84734080  1  -0.317263  0  -0.002654  0.000461  0  3.98086  0
C  C122  1  0.63375778  0.71604231  0.65548647  1  -0.535906  0  -0.003721  -0.000663  0  3.982192  0
C  C123  1  0.62196796  0.74085838  0.61368859  1  0.291079  0  -0.049484  -0.226945  0  3.957608  0
C  C124  1  0.54216136  0.19032437  0.72780144  1  0.014212  0  -0.154169  -0.191498  0  3.851502  0
C  C125  1  0.69886721  0.24443465  0.71352408  1  -0.017902  0  -0.152739  -0.188185  0  3.840118  0
C  C126  1  0.70165547  0.26362144  0.76721621  1  -0.048477  0  -0.155863  -0.188116  0  3.843262  0
C  C127  1  0.69009492  0.21132604  0.88679746  1  -0.248871  0  -0.041508  -0.198858  0  3.961422  0
C  C128  1  0.66236749  0.14965873  0.70411924  1  0.150727  0  0.002789  0.17967  0  3.898713  0
C  C129  1  0.55152066  0.20054761  0.78173091  1  -0.059317  0  -0.151029  -0.187568  0  3.848765  0
C  C130  1  0.67577721  0.17617304  0.79514308  1  0.137559  0  -0.001496  0.13825  0  3.907882  0
C  C131  1  0.76131346  0.04637504  0.78018452  1  -0.020131  0  -0.059097  0.032713  0  3.670393  0
C  C132  1  0.75423377  0.03081951  0.72668964  1  -0.037346  0  -0.159411  -0.241634  0  3.849573  0
C  C133  1  0.68223137  0.19392472  0.84524159  1  -0.008278  0  -0.023351  -0.035779  0  4.047015  0
C  C134  1  0.65407478  0.13356693  0.65398291  1  -0.612074  0  -0.017757  -0.027424  0  4.015757  0
C  C135  1  0.64237206  0.11879287  0.61247680  1  0.292824  0  -0.046933  -0.211708  0  3.967996  0
C  C136  1  0.27405098  0.05169847  0.72990046  1  -0.011309  0  -0.150408  -0.185963  0  3.846519  0
C  C137  1  0.05966402  0.18532355  0.71477719  1  -0.053591  0  -0.158527  -0.188933  0  3.85632  0
C  C138  1  0.03322856  0.21934922  0.76729205  1  -0.038537  0  -0.158967  -0.19162  0  3.832781  0
C  C139  1  0.09310208  0.22662038  0.88494208  1  0.33816  0  -0.045877  -0.211573  0  3.964047  0
C  C140  1  0.18293696  0.16375353  0.70228753  1  0.135968  0  -0.001508  0.137764  0  3.901885  0
C  C141  1  0.24163877  0.06298336  0.78277875  1  -0.020887  0  -0.152982  -0.19112  0  3.850747  0
C  C142  1  0.14683313  0.19293777  0.79355655  1  0.139319  0  0.001795  0.179661  0  3.892473  0
C  C143  1  0.18867860  0.27727692  0.77426138  1  0.01012  0  -0.157693  -0.241043  0  3.853409  0
C  C144  1  0.19903167  0.26757026  0.72012871  1  -0.056494  0  -0.058813  0.032805  0  3.668061  0
C  C145  1  0.12131895  0.21112530  0.84358401  1  -0.619957  0  -0.016391  -0.021638  0  4.006376  0
C  C146  1  0.20716708  0.14409882  0.65217212  1  -0.407889  0  -0.021184  -0.029262  0  4.033313  0
C  C147  1  0.23318331  0.12499978  0.61067072  1  0.164951  0  -0.044589  -0.203597  0  3.956768  0
C  C148  1  0.72626885  0.23119915  0.06706132  1  1.667368  0  0.277399  0.724338  0  4.154871  0
C  C149  1  0.72455219  0.54090945  0.06762190  1  1.642656  0  0.283734  0.721045  0  4.150972  0
C  C150  1  0.04427799  0.24470383  0.06515622  1  1.63338  0  0.277893  0.720673  0  4.153144  0
C  C151  1  0.71753436  0.23591502  0.93306409  1  1.689717  0  0.282644  0.715776  0  4.156016  0
C  C152  1  0.72326776  0.55125276  0.93585154  1  1.641462  0  0.286832  0.73417  0  4.134375  0
C  C153  1  0.04045993  0.24623386  0.93102621  1  1.656859  0  0.279396  0.717331  0  4.158939  0
Br  Br154  1  0.37180356  0.15183385  0.18043361  1  -0.146481  0  0.003575  -0.12329  0  1.368215  0
Br  Br155  1  0.51946644  0.91145787  0.28165514  1  -0.080283  0  0.060189  -0.061917  0  1.541974  0
Br  Br156  1  0.92351088  0.99530966  0.79971299  1  -0.142747  0  -0.003832  -0.117886  0  1.289528  0
Br  Br157  1  0.08669732  0.41976625  0.68940800  1  -0.156487  0  -0.0179  -0.134878  0  1.275299  0
O  O158  1  0.52784024  0.16614733  0.44995584  1  -1.221551  0  -0.201562  -0.539558  0  2.280357  0
O  O159  1  0.32140450  0.16788835  0.44496991  1  -1.210225  0  -0.20264  -0.543079  0  2.289467  0
O  O160  1  0.30864536  0.99941519  0.45191215  1  -1.253565  0  -0.243377  -0.60872  0  2.230395  0
O  O161  1  0.50343295  0.80572462  0.45417961  1  -1.244658  0  -0.223761  -0.581797  0  2.242802  0
O  O162  1  0.67839764  0.80041023  0.45608348  1  -1.236703  0  -0.22314  -0.581129  0  2.248705  0
O  O163  1  0.69588231  0.98704396  0.45198254  1  -1.257954  0  -0.243106  -0.608554  0  2.232959  0
O  O164  1  0.51259326  0.17080758  0.55092367  1  -1.221837  0  -0.209026  -0.560525  0  2.297694  0
O  O165  1  0.30655946  0.17493577  0.54598222  1  -1.210304  0  -0.209957  -0.564348  0  2.29186  0
O  O166  1  0.30575544  0.99958426  0.54562867  1  -1.250046  0  -0.241961  -0.602744  0  2.226476  0
O  O167  1  0.50350428  0.81247122  0.54742442  1  -1.247332  0  -0.226838  -0.588236  0  2.245565  0
O  O168  1  0.67551513  0.81301705  0.54901559  1  -1.245112  0  -0.228052  -0.588592  0  2.243728  0
O  O169  1  0.68899267  0.00120331  0.54513506  1  -1.2569  0  -0.24327  -0.606232  0  2.232211  0
O  O170  1  0.49462654  0.00755903  0.49904772  1  -1.612453  0  -0.391536  -1.273364  0  2.297805  0
O  O171  1  0.02765586  0.16560834  0.04686540  1  -1.216356  0  -0.210425  -0.565604  0  2.289341  0
O  O172  1  0.82713751  0.15952446  0.05158668  1  -1.225726  0  -0.211911  -0.568005  0  2.299436  0
O  O173  1  0.64676189  0.32319649  0.04508317  1  -1.258607  0  -0.246267  -0.612725  0  2.229677  0
O  O174  1  0.65045652  0.51639912  0.04931203  1  -1.23638  0  -0.2261  -0.58492  0  2.242316  0
O  O175  1  0.81753236  0.52662972  0.04754909  1  -1.243071  0  -0.225713  -0.585004  0  2.244586  0
O  O176  1  0.01867343  0.34577321  0.04648749  1  -1.252768  0  -0.24185  -0.602839  0  2.226653  0
O  O177  1  0.01443321  0.17011582  0.94538096  1  -1.212844  0  -0.201762  -0.541688  0  2.28976  0
O  O178  1  0.81445076  0.16099519  0.95033235  1  -1.221841  0  -0.197379  -0.531323  0  2.279297  0
O  O179  1  0.64190056  0.33597201  0.95175173  1  -1.259619  0  -0.241753  -0.60541  0  2.234268  0
O  O180  1  0.65047270  0.52651959  0.95547620  1  -1.241109  0  -0.226379  -0.589144  0  2.243183  0
O  O181  1  0.82132629  0.52932939  0.95340353  1  -1.242311  0  -0.226888  -0.589236  0  2.23779  0
O  O182  1  0.02039406  0.34218025  0.95281120  1  -1.253141  0  -0.24428  -0.61131  0  2.232813  0
O  O183  1  0.83729361  0.32633010  0.99931248  1  -1.614506  0  -0.391313  -1.274305  0  2.294183  0
O  O184  1  0.34040890  0.33373608  0.49463650  1  -1.379116  0  -0.57699  -0.99452  0  1.791561  0
O  O185  1  0.00438954  0.00003041  0.99560093  1  -1.376711  0  -0.576413  -0.993407  0  1.794372  0
