# generated using pymatgen
data_AgH6C4N3O5
_symmetry_space_group_name_H-M   'P 1'
_cell_length_a   4.97620030
_cell_length_b   10.17502070
_cell_length_c   15.39470990
_cell_angle_alpha   89.98094104
_cell_angle_beta   94.67208613
_cell_angle_gamma   89.99454358
_symmetry_Int_Tables_number   1
_chemical_formula_structural   AgH6C4N3O5
_chemical_formula_sum   'Ag4 H24 C16 N12 O20'
_cell_volume   776.88932673
_cell_formula_units_Z   4
loop_
 _symmetry_equiv_pos_site_id
 _symmetry_equiv_pos_as_xyz
  1  'x, y, z'
loop_
 _atom_site_type_symbol
 _atom_site_label
 _atom_site_symmetry_multiplicity
 _atom_site_fract_x
 _atom_site_fract_y
 _atom_site_fract_z
 _atom_site_occupancy
 _atom_site_hle17_bader_spin_density
 _atom_site_hle17_ddec_charge
 _atom_site_hle17_ddec_spin_density
 _atom_site_hle17_ddec_sum_bond_order
 _atom_site_hle17_magmom
 _atom_site_hse06_10hf_bader_spin_density
 _atom_site_hse06_10hf_ddec_charge
 _atom_site_hse06_10hf_ddec_spin_density
 _atom_site_hse06_10hf_ddec_sum_bond_order
 _atom_site_hse06_10hf_magmom
 _atom_site_hse06_bader_spin_density
 _atom_site_hse06_ddec_charge
 _atom_site_hse06_ddec_spin_density
 _atom_site_hse06_ddec_sum_bond_order
 _atom_site_hse06_magmom
 _atom_site_pbe_bader_spin_density
 _atom_site_pbe_cm5_charge
 _atom_site_pbe_ddec_charge
 _atom_site_pbe_ddec_spin_density
 _atom_site_pbe_ddec_sum_bond_order
 _atom_site_pbe_magmom
Ag  Ag0  1  0.41287341  0.64740625  0.26688665  1  0  0.665556  0  1.139518  0  0  0.544419  0  1.549264  0  0  0.581226  0  1.492863  0  0  0.420817  0.517991  0  1.588846  0
Ag  Ag1  1  0.91304512  0.85257220  0.76693043  1  0  0.665726  0  1.139176  0  0  0.54453  0  1.548809  0  0  0.581332  0  1.492419  0  0  0.420802  0.518097  0  1.588377  0
Ag  Ag2  1  0.58712774  0.35258448  0.73309228  1  0  0.665555  0  1.13956  0  0  0.544437  0  1.549304  0  0  0.58124  0  1.492907  0  0  0.420801  0.518  0  1.588879  0
Ag  Ag3  1  0.08701148  0.14742250  0.23308689  1  0  0.665759  0  1.139261  0  0  0.544586  0  1.548927  0  0  0.581386  0  1.492537  0  0  0.420832  0.518147  0  1.588485  0
H  H4  1  0.08570946  0.46063538  0.35103792  1  0  0.303788  0  0.902132  0  0  0.284548  0  0.971809  0  0  0.292482  0  0.964545  0  0  0.31345  0.278903  0  0.977054  0
H  H5  1  0.50030113  0.02617379  0.65547463  1  0  0.304184  0  0.906996  0  0  0.282914  0  0.979272  0  0  0.291479  0  0.971365  0  0  0.310695  0.276784  0  0.985057  0
H  H6  1  0.00007188  0.52610330  0.84450798  1  0  0.304579  0  0.906719  0  0  0.283358  0  0.978915  0  0  0.29193  0  0.970984  0  0  0.310813  0.277229  0  0.984699  0
H  H7  1  0.41444919  0.96058493  0.14899403  1  0  0.303532  0  0.902413  0  0  0.284456  0  0.971992  0  0  0.292399  0  0.964723  0  0  0.313346  0.278811  0  0.977233  0
H  H8  1  0.91427934  0.53937793  0.64895451  1  0  0.303696  0  0.902061  0  0  0.284508  0  0.971747  0  0  0.292443  0  0.96448  0  0  0.313407  0.278859  0  0.977002  0
H  H9  1  0.49955305  0.97384528  0.34453370  1  0  0.304437  0  0.906758  0  0  0.283119  0  0.97905  0  0  0.29168  0  0.971155  0  0  0.310821  0.276998  0  0.98483  0
H  H10  1  0.99989192  0.47385300  0.15546139  1  0  0.30446  0  0.906879  0  0  0.283115  0  0.979177  0  0  0.291679  0  0.971278  0  0  0.310706  0.276985  0  0.984961  0
H  H11  1  0.58568607  0.03944915  0.85104115  1  0  0.303664  0  0.902108  0  0  0.284466  0  0.971848  0  0  0.292404  0  0.964594  0  0  0.313438  0.278827  0  0.977079  0
H  H12  1  0.35192733  0.58408428  0.58778812  1  0  0.106518  0  0.928825  0  0  0.114113  0  0.997253  0  0  0.115876  0  0.996757  0  0  0.117544  0.112747  0  0.997788  0
H  H13  1  0.88554383  0.91795213  0.44670914  1  0  0.098548  0  0.921644  0  0  0.111497  0  0.982043  0  0  0.112554  0  0.982368  0  0  0.115966  0.110709  0  0.981938  0
H  H14  1  0.61430576  0.41784287  0.05322271  1  0  0.098584  0  0.921247  0  0  0.111737  0  0.981477  0  0  0.112807  0  0.981799  0  0  0.116035  0.110937  0  0.981376  0
H  H15  1  0.14803319  0.08413247  0.91221121  1  0  0.106567  0  0.928643  0  0  0.114225  0  0.996862  0  0  0.116011  0  0.996397  0  0  0.117605  0.112862  0  0.997388  0
H  H16  1  0.64804926  0.41593591  0.41220351  1  0  0.106645  0  0.928469  0  0  0.114113  0  0.997134  0  0  0.115872  0  0.996647  0  0  0.117492  0.112747  0  0.997662  0
H  H17  1  0.11437279  0.08212892  0.55330190  1  0  0.098641  0  0.921435  0  0  0.11179  0  0.98165  0  0  0.112853  0  0.981963  0  0  0.116111  0.110988  0  0.981566  0
H  H18  1  0.38569526  0.58207612  0.94675297  1  0  0.098531  0  0.921306  0  0  0.111614  0  0.981689  0  0  0.112665  0  0.98201  0  0  0.115983  0.110824  0  0.981582  0
H  H19  1  0.85201715  0.91581504  0.08781773  1  0  0.106664  0  0.928361  0  0  0.114408  0  0.996598  0  0  0.116179  0  0.996123  0  0  0.117713  0.11305  0  0.997119  0
H  H20  1  0.10518118  0.70474900  0.55509793  1  0  0.115213  0  0.926127  0  0  0.128717  0  0.982186  0  0  0.131604  0  0.980081  0  0  0.118257  0.126364  0  0.984141  0
H  H21  1  0.62514998  0.79960616  0.45253151  1  0  0.122879  0  0.944122  0  0  0.133661  0  1.005836  0  0  0.136898  0  1.003287  0  0  0.119495  0.131156  0  1.00806  0
H  H22  1  0.87490642  0.29956190  0.04750464  1  0  0.122981  0  0.943949  0  0  0.13363  0  1.005947  0  0  0.136845  0  1.003442  0  0  0.119422  0.131126  0  1.008165  0
H  H23  1  0.39472981  0.20477785  0.94486243  1  0  0.114942  0  0.926528  0  0  0.128722  0  0.982161  0  0  0.131628  0  0.980089  0  0  0.118362  0.126378  0  0.984107  0
H  H24  1  0.89479551  0.29526823  0.44489435  1  0  0.115057  0  0.92633  0  0  0.128681  0  0.982289  0  0  0.131574  0  0.98018  0  0  0.11827  0.126329  0  0.984238  0
H  H25  1  0.37482958  0.20043859  0.54746795  1  0  0.122931  0  0.944038  0  0  0.133609  0  1.005986  0  0  0.136799  0  1.003505  0  0  0.119441  0.131105  0  1.008201  0
H  H26  1  0.12514064  0.70037974  0.95245534  1  0  0.122976  0  0.943936  0  0  0.133601  0  1.006005  0  0  0.136833  0  1.003457  0  0  0.119374  0.131097  0  1.008228  0
H  H27  1  0.60523289  0.79521773  0.05514463  1  0  0.114826  0  0.926564  0  0  0.128714  0  0.982197  0  0  0.131611  0  0.980113  0  0  0.118336  0.126368  0  0.98415  0
C  C28  1  0.20103034  0.57059493  0.45607185  1  0  0.570963  0  3.823784  0  0  0.522471  0  4.116572  0  0  0.551415  0  4.118378  0  0  0.246349  0.502776  0  4.114569  0
C  C29  1  0.67696473  0.92573840  0.56132071  1  0  0.561099  0  3.839487  0  0  0.513417  0  4.134197  0  0  0.54212  0  4.135996  0  0  0.240712  0.493907  0  4.132263  0
C  C30  1  0.82315611  0.42570133  0.93866329  1  0  0.560809  0  3.839224  0  0  0.513505  0  4.133428  0  0  0.542209  0  4.135235  0  0  0.240838  0.493982  0  4.131493  0
C  C31  1  0.29899947  0.07057199  0.04392770  1  0  0.570744  0  3.822672  0  0  0.521953  0  4.116015  0  0  0.55096  0  4.117817  0  0  0.246128  0.502235  0  4.114038  0
C  C32  1  0.79895851  0.42942526  0.54392123  1  0  0.570397  0  3.82387  0  0  0.522125  0  4.116552  0  0  0.551067  0  4.118369  0  0  0.246181  0.502426  0  4.114548  0
C  C33  1  0.32293547  0.07429054  0.43868624  1  0  0.560732  0  3.839932  0  0  0.513223  0  4.134489  0  0  0.541935  0  4.136284  0  0  0.2407  0.493711  0  4.132552  0
C  C34  1  0.17681171  0.57425792  0.06130612  1  0  0.561547  0  3.839315  0  0  0.514166  0  4.133639  0  0  0.542863  0  4.13544  0  0  0.240952  0.494647  0  4.131709  0
C  C35  1  0.70108037  0.92943550  0.95609835  1  0  0.570447  0  3.823429  0  0  0.52232  0  4.116034  0  0  0.55131  0  4.117822  0  0  0.246096  0.502597  0  4.114074  0
C  C36  1  0.15786483  0.59995206  0.54971742  1  0  -0.081494  0  3.649417  0  0  -0.133839  0  3.89626  0  0  -0.13388  0  3.904272  0  0  -0.050762  -0.133615  0  3.89084  0
C  C37  1  0.67799188  0.90366172  0.46454128  1  0  -0.093344  0  3.665278  0  0  -0.147501  0  3.917015  0  0  -0.147515  0  3.925246  0  0  -0.056053  -0.147459  0  3.911635  0
C  C38  1  0.82193806  0.40361440  0.03544866  1  0  -0.092925  0  3.664889  0  0  -0.147545  0  3.917113  0  0  -0.147557  0  3.925349  0  0  -0.055963  -0.147494  0  3.911709  0
C  C39  1  0.34210830  0.09997479  0.95027091  1  0  -0.081335  0  3.64955  0  0  -0.133497  0  3.896051  0  0  -0.133677  0  3.90428  0  0  -0.050865  -0.133284  0  3.890637  0
C  C40  1  0.84212934  0.40007207  0.45027052  1  0  -0.081392  0  3.64916  0  0  -0.133979  0  3.896167  0  0  -0.134023  0  3.904184  0  0  -0.050895  -0.13376  0  3.890738  0
C  C41  1  0.32194101  0.09638101  0.53546996  1  0  -0.093409  0  3.665387  0  0  -0.147848  0  3.917543  0  0  -0.147856  0  3.925826  0  0  -0.056217  -0.147807  0  3.912149  0
C  C42  1  0.17806399  0.59632720  0.96452053  1  0  -0.093074  0  3.664686  0  0  -0.147629  0  3.916999  0  0  -0.147638  0  3.925229  0  0  -0.055831  -0.147586  0  3.911604  0
C  C43  1  0.65792537  0.90001792  0.04975522  1  0  -0.081201  0  3.649406  0  0  -0.133893  0  3.896271  0  0  -0.134003  0  3.904406  0  0  -0.050971  -0.13368  0  3.890865  0
N  N44  1  0.95141768  0.85196764  0.26282708  1  0  0.694849  0  4.122388  0  0  0.724257  0  4.408177  0  0  0.753256  0  4.416984  0  0  0.094083  0.704699  0  4.401387  0
N  N45  1  0.45159559  0.64804454  0.76281524  1  0  0.695431  0  4.122338  0  0  0.725348  0  4.40729  0  0  0.754369  0  4.416063  0  0  0.09437  0.705773  0  4.400531  0
N  N46  1  0.04859438  0.14801817  0.73718773  1  0  0.694876  0  4.122378  0  0  0.724371  0  4.408009  0  0  0.753365  0  4.416815  0  0  0.094094  0.704816  0  4.401216  0
N  N47  1  0.54846188  0.35196491  0.23717933  1  0  0.695398  0  4.122232  0  0  0.725166  0  4.407369  0  0  0.754179  0  4.416153  0  0  0.094265  0.705604  0  4.400592  0
N  N48  1  0.04947626  0.47890587  0.41439112  1  0  -0.380852  0  3.32311  0  0  -0.321875  0  3.568001  0  0  -0.342115  0  3.576796  0  0  -0.407032  -0.308126  0  3.561883  0
N  N49  1  0.50460480  0.01328505  0.58954226  1  0  -0.386443  0  3.324532  0  0  -0.327469  0  3.570679  0  0  -0.348077  0  3.579424  0  0  -0.409163  -0.313306  0  3.564541  0
N  N50  1  0.99557982  0.51322382  0.91044125  1  0  -0.386865  0  3.324714  0  0  -0.3279  0  3.570472  0  0  -0.348523  0  3.579215  0  0  -0.409383  -0.313735  0  3.564345  0
N  N51  1  0.45060316  0.97886179  0.08562774  1  0  -0.380317  0  3.323006  0  0  -0.321894  0  3.56842  0  0  -0.342136  0  3.57724  0  0  -0.406893  -0.308127  0  3.562294  0
N  N52  1  0.95051845  0.52111531  0.58560073  1  0  -0.38043  0  3.322705  0  0  -0.321791  0  3.567751  0  0  -0.342026  0  3.576546  0  0  -0.407039  -0.308041  0  3.561642  0
N  N53  1  0.49528971  0.98674192  0.41046722  1  0  -0.38658  0  3.324688  0  0  -0.327628  0  3.570694  0  0  -0.348247  0  3.579449  0  0  -0.40921  -0.31349  0  3.564582  0
N  N54  1  0.00440617  0.48672464  0.08952838  1  0  -0.387372  0  3.325169  0  0  -0.328241  0  3.571009  0  0  -0.348864  0  3.579765  0  0  -0.409376  -0.314064  0  3.564864  0
N  N55  1  0.54949126  0.02115750  0.91440238  1  0  -0.380566  0  3.322873  0  0  -0.322305  0  3.568087  0  0  -0.34253  0  3.57693  0  0  -0.407127  -0.30854  0  3.561979  0
O  O56  1  0.88503609  0.73915382  0.28795870  1  0  -0.453449  0  1.832133  0  0  -0.434513  0  2.083626  0  0  -0.452216  0  2.0725  0  0  -0.180164  -0.422219  0  2.091207  0
O  O57  1  0.38522199  0.76079733  0.78803184  1  0  -0.453583  0  1.832285  0  0  -0.434689  0  2.083459  0  0  -0.452396  0  2.072308  0  0  -0.179929  -0.422388  0  2.091051  0
O  O58  1  0.11496573  0.26082510  0.71203974  1  0  -0.453507  0  1.83217  0  0  -0.434623  0  2.083666  0  0  -0.45232  0  2.072532  0  0  -0.180114  -0.422333  0  2.091248  0
O  O59  1  0.61484488  0.23920819  0.21197259  1  0  -0.45356  0  1.832164  0  0  -0.434691  0  2.08343  0  0  -0.452397  0  2.072289  0  0  -0.179924  -0.4224  0  2.091013  0
O  O60  1  0.19390584  0.87282553  0.24493560  1  0  -0.500616  0  1.875396  0  0  -0.482841  0  2.13824  0  0  -0.501556  0  2.126426  0  0  -0.191515  -0.469658  0  2.145965  0
O  O61  1  0.69404723  0.62722677  0.74487877  1  0  -0.50074  0  1.875371  0  0  -0.483276  0  2.138199  0  0  -0.501955  0  2.126297  0  0  -0.191564  -0.470095  0  2.145921  0
O  O62  1  0.80610832  0.12716126  0.75507990  1  0  -0.500571  0  1.875435  0  0  -0.482792  0  2.13822  0  0  -0.501514  0  2.126431  0  0  -0.19151  -0.469607  0  2.145927  0
O  O63  1  0.30601316  0.37277875  0.25512233  1  0  -0.500761  0  1.875244  0  0  -0.483274  0  2.138063  0  0  -0.501963  0  2.126191  0  0  -0.191569  -0.470094  0  2.14577  0
O  O64  1  0.78178608  0.94531876  0.25539399  1  0  -0.467793  0  1.834554  0  0  -0.441637  0  2.070361  0  0  -0.459589  0  2.06178  0  0  -0.177276  -0.428961  0  2.076004  0
O  O65  1  0.28196958  0.55471259  0.75534682  1  0  -0.468309  0  1.834553  0  0  -0.442238  0  2.070143  0  0  -0.460237  0  2.061596  0  0  -0.177711  -0.429543  0  2.075785  0
O  O66  1  0.21823797  0.05467196  0.74463528  1  0  -0.46775  0  1.834565  0  0  -0.44158  0  2.070284  0  0  -0.459532  0  2.061702  0  0  -0.177278  -0.428905  0  2.075923  0
O  O67  1  0.71806954  0.44530569  0.24463127  1  0  -0.468273  0  1.834636  0  0  -0.441952  0  2.070091  0  0  -0.459932  0  2.061525  0  0  -0.177632  -0.429272  0  2.075736  0
O  O68  1  0.38157610  0.63329945  0.42097148  1  0  -0.594508  0  2.033033  0  0  -0.537364  0  2.293105  0  0  -0.56453  0  2.283623  0  0  -0.311917  -0.518281  0  2.299254  0
O  O69  1  0.83814401  0.85927791  0.61071125  1  0  -0.585119  0  2.016192  0  0  -0.532847  0  2.278146  0  0  -0.559295  0  2.268477  0  0  -0.313392  -0.514259  0  2.284469  0
O  O70  1  0.66206795  0.35924296  0.88927466  1  0  -0.584957  0  2.015828  0  0  -0.532907  0  2.27787  0  0  -0.559333  0  2.268133  0  0  -0.313506  -0.514339  0  2.284265  0
O  O71  1  0.11845496  0.13327193  0.07901997  1  0  -0.594653  0  2.032721  0  0  -0.537226  0  2.292905  0  0  -0.564394  0  2.283403  0  0  -0.311818  -0.51813  0  2.299055  0
O  O72  1  0.61841507  0.36671288  0.57902358  1  0  -0.594403  0  2.033169  0  0  -0.53722  0  2.293158  0  0  -0.564378  0  2.283677  0  0  -0.311825  -0.518131  0  2.299303  0
O  O73  1  0.16172791  0.14074806  0.38929471  1  0  -0.584877  0  2.016209  0  0  -0.532638  0  2.278066  0  0  -0.55908  0  2.268372  0  0  -0.313374  -0.514039  0  2.284374  0
O  O74  1  0.33785787  0.64072804  0.11069684  1  0  -0.585244  0  2.01588  0  0  -0.533195  0  2.277869  0  0  -0.55962  0  2.26814  0  0  -0.313571  -0.51464  0  2.284287  0
O  O75  1  0.88164755  0.86674050  0.92101026  1  0  -0.594455  0  2.032885  0  0  -0.537273  0  2.292831  0  0  -0.564437  0  2.283332  0  0  -0.311737  -0.518179  0  2.298987  0
