# generated using pymatgen
data_LiH16C8IO4
_symmetry_space_group_name_H-M   'P 1'
_cell_length_a   7.65983461
_cell_length_b   10.27728734
_cell_length_c   15.03451838
_cell_angle_alpha   89.99994036
_cell_angle_beta   100.44040678
_cell_angle_gamma   90.00000441
_symmetry_Int_Tables_number   1
_chemical_formula_structural   LiH16C8IO4
_chemical_formula_sum   'Li4 H64 C32 I4 O16'
_cell_volume   1163.95719900
_cell_formula_units_Z   4
loop_
 _symmetry_equiv_pos_site_id
 _symmetry_equiv_pos_as_xyz
  1  'x, y, z'
loop_
 _atom_site_type_symbol
 _atom_site_label
 _atom_site_symmetry_multiplicity
 _atom_site_fract_x
 _atom_site_fract_y
 _atom_site_fract_z
 _atom_site_occupancy
 _atom_site_pbe_bader_spin_density
 _atom_site_pbe_cm5_charge
 _atom_site_pbe_ddec_charge
 _atom_site_pbe_ddec_spin_density
 _atom_site_pbe_ddec_sum_bond_order
 _atom_site_pbe_magmom
Li  Li0  1  0.46870553  0.11064771  0.23248009  1  0  0.424478  0.728056  0  0.623251  0
Li  Li1  1  0.03129665  0.61064731  0.26752152  1  0  0.424475  0.728039  0  0.623272  0
Li  Li2  1  0.53129619  0.88935279  0.76752172  1  0  0.424483  0.728041  0  0.623289  0
Li  Li3  1  0.96870372  0.38935318  0.73247817  1  0  0.424478  0.728042  0  0.623266  0
H  H4  1  0.17183724  0.24953157  0.31103957  1  0  0.09975  0.059743  0  1.019966  0
H  H5  1  0.32816357  0.74953131  0.18895982  1  0  0.099748  0.059726  0  1.019984  0
H  H6  1  0.82816313  0.75046698  0.68896012  1  0  0.099733  0.059751  0  1.019994  0
H  H7  1  0.67183679  0.25046919  0.81103921  1  0  0.099753  0.059745  0  1.019946  0
H  H8  1  0.38849837  0.31024211  0.35621209  1  0  0.111526  0.090614  0  0.996773  0
H  H9  1  0.11150243  0.81024191  0.14378726  1  0  0.111482  0.090613  0  0.996762  0
H  H10  1  0.61150332  0.68975547  0.64378706  1  0  0.111506  0.090662  0  0.996724  0
H  H11  1  0.88849794  0.18975859  0.85621243  1  0  0.11154  0.090619  0  0.996764  0
H  H12  1  0.37648298  0.22127883  0.50641480  1  0  0.085049  0.064318  0  1.018328  0
H  H13  1  0.12351802  0.72127907  0.99358492  1  0  0.085051  0.064323  0  1.018317  0
H  H14  1  0.62351871  0.77872069  0.49358501  1  0  0.085055  0.064342  0  1.018308  0
H  H15  1  0.87648235  0.27872143  0.00641477  1  0  0.085053  0.064341  0  1.018315  0
H  H16  1  0.18410404  0.31942927  0.47051838  1  0  0.103484  0.087216  0  0.986682  0
H  H17  1  0.31589543  0.81942925  0.02948085  1  0  0.103479  0.0872  0  0.986687  0
H  H18  1  0.81589633  0.68056928  0.52948132  1  0  0.103474  0.087214  0  0.986655  0
H  H19  1  0.68410361  0.18057124  0.97051806  1  0  0.103477  0.087206  0  0.986698  0
H  H20  1  0.11604863  0.92487601  0.45329465  1  0  0.105752  0.090483  0  1.01144  0
H  H21  1  0.38395216  0.42487668  0.04670595  1  0  0.105752  0.090482  0  1.01144  0
H  H22  1  0.88395176  0.07512254  0.54670704  1  0  0.105755  0.090499  0  1.011454  0
H  H23  1  0.61604822  0.57512381  0.95329507  1  0  0.105742  0.090487  0  1.011439  0
H  H24  1  0.33563550  0.98245732  0.49468992  1  0  0.092381  0.05544  0  1.012777  0
H  H25  1  0.16436528  0.48245610  0.00530997  1  0  0.092387  0.055446  0  1.012772  0
H  H26  1  0.66436620  0.01754220  0.50531056  1  0  0.092391  0.055428  0  1.012801  0
H  H27  1  0.83563377  0.51754342  0.99469027  1  0  0.092384  0.055452  0  1.012773  0
H  H28  1  0.31938280  0.91365038  0.33715603  1  0  0.106499  0.083704  0  1.00765  0
H  H29  1  0.18061667  0.41364989  0.16284380  1  0  0.106501  0.083726  0  1.007636  0
H  H30  1  0.68061626  0.08634720  0.66284488  1  0  0.106515  0.08373  0  1.007634  0
H  H31  1  0.81938239  0.58635061  0.83715711  1  0  0.106502  0.083712  0  1.007612  0
H  H32  1  0.13126633  0.01593297  0.29966357  1  0  0.095891  0.054355  0  1.022376  0
H  H33  1  0.36873452  0.51593367  0.20033666  1  0  0.095913  0.054377  0  1.022374  0
H  H34  1  0.86873273  0.98406461  0.70033734  1  0  0.095911  0.054353  0  1.022385  0
H  H35  1  0.63126586  0.48406780  0.79966370  1  0  0.095893  0.05435  0  1.022382  0
H  H36  1  0.65602176  0.95177910  0.36901956  1  0  0.118372  0.090946  0  0.999568  0
H  H37  1  0.84397927  0.45177964  0.13098010  1  0  0.118355  0.090924  0  0.999565  0
H  H38  1  0.34397728  0.04821945  0.63098002  1  0  0.118371  0.090945  0  0.999522  0
H  H39  1  0.15602110  0.54822085  0.86901959  1  0  0.118355  0.090941  0  0.999528  0
H  H40  1  0.84875155  0.98466331  0.32104563  1  0  0.107303  0.07519  0  0.993471  0
H  H41  1  0.65124947  0.48466377  0.17895334  1  0  0.107288  0.075173  0  0.993511  0
H  H42  1  0.15124882  0.01533719  0.67895406  1  0  0.107288  0.075175  0  0.993419  0
H  H43  1  0.34875089  0.51533576  0.82104568  1  0  0.107294  0.07518  0  0.99351  0
H  H44  1  0.87111053  0.76039883  0.37991742  1  0  0.114239  0.08243  0  1.018423  0
H  H45  1  0.62888920  0.26039938  0.12008160  1  0  0.11421  0.082428  0  1.018445  0
H  H46  1  0.12888984  0.23960167  0.62008227  1  0  0.114223  0.082425  0  1.01847  0
H  H47  1  0.37111116  0.73960014  0.87991743  1  0  0.114233  0.082433  0  1.018432  0
H  H48  1  0.65276552  0.72296000  0.31809539  1  0  0.098914  0.067314  0  1.004005  0
H  H49  1  0.84723423  0.22296047  0.18190499  1  0  0.098921  0.067345  0  1.004062  0
H  H50  1  0.34723617  0.27704049  0.68190442  1  0  0.09892  0.067358  0  1.004017  0
H  H51  1  0.15276615  0.77704002  0.81809537  1  0  0.098943  0.067368  0  1.004041  0
H  H52  1  0.61859169  0.71697995  0.15174466  1  0  0.101403  0.067706  0  1.019273  0
H  H53  1  0.88140805  0.21698017  0.34825505  1  0  0.101395  0.067694  0  1.019233  0
H  H54  1  0.38140868  0.28302152  0.84825503  1  0  0.101415  0.067736  0  1.019253  0
H  H55  1  0.11859231  0.78301936  0.65174398  1  0  0.101386  0.067693  0  1.019228  0
H  H56  1  0.81032344  0.75174890  0.10350104  1  0  0.109088  0.096042  0  0.992576  0
H  H57  1  0.68967629  0.25174708  0.39649864  1  0  0.109117  0.096077  0  0.992555  0
H  H58  1  0.18967692  0.24825257  0.89649798  1  0  0.109122  0.096096  0  0.992553  0
H  H59  1  0.31032408  0.74825147  0.60350105  1  0  0.109111  0.096088  0  0.992594  0
H  H60  1  0.81363040  0.97948210  0.15513944  1  0  0.099779  0.068416  0  0.998568  0
H  H61  1  0.68636931  0.47948134  0.34486075  1  0  0.099791  0.068439  0  0.998567  0
H  H62  1  0.18637130  0.02051936  0.84486037  1  0  0.099745  0.068417  0  0.998562  0
H  H63  1  0.31362840  0.52051818  0.65513871  1  0  0.099751  0.068436  0  0.998561  0
H  H64  1  0.59660858  0.94316517  0.09311782  1  0  0.106834  0.08008  0  1.008066  0
H  H65  1  0.90339113  0.44316432  0.40688173  1  0  0.106838  0.080094  0  1.008123  0
H  H66  1  0.40339179  0.05683533  0.90688188  1  0  0.106837  0.080055  0  1.008086  0
H  H67  1  0.09660791  0.55683617  0.59311784  1  0  0.106841  0.080081  0  1.008095  0
C  C68  1  0.29269410  0.23290652  0.36215483  1  0  -0.073509  -0.016284  0  3.904403  0
C  C69  1  0.20730538  0.73290633  0.13784446  1  0  -0.073478  -0.01628  0  3.904428  0
C  C70  1  0.70730627  0.76709203  0.63784486  1  0  -0.073499  -0.016396  0  3.904547  0
C  C71  1  0.79269366  0.26709416  0.86215512  1  0  -0.073526  -0.016276  0  3.904428  0
C  C72  1  0.25144329  0.22928682  0.45669948  1  0  -0.082518  -0.020651  0  3.915194  0
C  C73  1  0.24855620  0.72928775  0.04329981  1  0  -0.082485  -0.02061  0  3.915145  0
C  C74  1  0.74855708  0.77071271  0.54330022  1  0  -0.082519  -0.020673  0  3.9152  0
C  C75  1  0.75144153  0.27071275  0.95670031  1  0  -0.082529  -0.02069  0  3.915227  0
C  C76  1  0.21167362  0.00171607  0.44584704  1  0  -0.082912  -0.025131  0  3.93083  0
C  C77  1  0.28832724  0.50171602  0.05415320  1  0  -0.082873  -0.025087  0  3.93093  0
C  C78  1  0.78832677  0.99828345  0.55415398  1  0  -0.082935  -0.025139  0  3.930867  0
C  C79  1  0.71167315  0.49828448  0.94584783  1  0  -0.08291  -0.025182  0  3.930857  0
C  C80  1  0.25286663  0.00402901  0.35114560  1  0  -0.077613  -0.019491  0  3.920504  0
C  C81  1  0.24713288  0.50402978  0.14885385  1  0  -0.077631  -0.019543  0  3.920567  0
C  C82  1  0.74713241  0.99596954  0.64885398  1  0  -0.07759  -0.019463  0  3.920529  0
C  C83  1  0.75286485  0.49597169  0.85114694  1  0  -0.077583  -0.019432  0  3.920493  0
C  C84  1  0.72741884  0.92506490  0.31476250  1  0  -0.067535  -6e-05  0  3.880319  0
C  C85  1  0.77258088  0.42506535  0.18523706  1  0  -0.067532  -1.8e-05  0  3.880285  0
C  C86  1  0.27258153  0.07493657  0.68523719  1  0  -0.067564  -0.000101  0  3.880309  0
C  C87  1  0.22741948  0.57493514  0.81476196  1  0  -0.067537  -8.4e-05  0  3.880357  0
C  C88  1  0.77347974  0.78212251  0.31881406  1  0  -0.073233  -0.018415  0  3.905708  0
C  C89  1  0.72652265  0.28212102  0.18118584  1  0  -0.073164  -0.018416  0  3.905611  0
C  C90  1  0.22652195  0.21787799  0.68118509  1  0  -0.073154  -0.018362  0  3.905618  0
C  C91  1  0.27347905  0.71787753  0.81881463  1  0  -0.073214  -0.018404  0  3.905636  0
C  C92  1  0.73940029  0.77703763  0.15829379  1  0  -0.07149  -0.002715  0  3.863894  0
C  C93  1  0.76059945  0.27703785  0.34170588  1  0  -0.071506  -0.002716  0  3.86389  0
C  C94  1  0.26059876  0.22296287  0.84170578  1  0  -0.071542  -0.002845  0  3.863979  0
C  C95  1  0.23940225  0.72296168  0.65829394  1  0  -0.071496  -0.002741  0  3.86392  0
C  C96  1  0.69308493  0.92015613  0.15434864  1  0  -0.071405  -0.005669  0  3.889004  0
C  C97  1  0.80691480  0.42015440  0.34565159  1  0  -0.071402  -0.005704  0  3.889106  0
C  C98  1  0.30691544  0.07984533  0.84565105  1  0  -0.071357  -0.005589  0  3.888947  0
C  C99  1  0.19308558  0.57984512  0.65434877  1  0  -0.071376  -0.005699  0  3.889069  0
I  I100  1  0.20954736  0.12509812  0.09015718  1  0  -0.331272  -0.657896  0  0.837612  0
I  I101  1  0.29044292  0.62509169  0.40984735  1  0  -0.331287  -0.657895  0  0.837634  0
I  I102  1  0.79044246  0.87490918  0.90984689  1  0  -0.331285  -0.657899  0  0.837637  0
I  I103  1  0.70956010  0.37490881  0.59015258  1  0  -0.331285  -0.657899  0  0.837644  0
O  O104  1  0.37184977  0.11063497  0.34215007  1  0  -0.308022  -0.31755  0  2.551308  0
O  O105  1  0.12815106  0.61063475  0.15785009  1  0  -0.308023  -0.317519  0  2.551336  0
O  O106  1  0.62815060  0.88936260  0.65785029  1  0  -0.308014  -0.317514  0  2.551331  0
O  O107  1  0.87184932  0.38936574  0.84215027  1  0  -0.308019  -0.317543  0  2.551368  0
O  O108  1  0.13489034  0.12266820  0.46706452  1  0  -0.236265  -0.233647  0  2.452451  0
O  O109  1  0.36511050  0.62266721  0.03293563  1  0  -0.236319  -0.233699  0  2.452544  0
O  O110  1  0.86511137  0.87733132  0.53293595  1  0  -0.236259  -0.23362  0  2.452425  0
O  O111  1  0.63488856  0.37733134  0.96706528  1  0  -0.236276  -0.23364  0  2.452458  0
O  O112  1  0.61116086  0.95496000  0.23060449  1  0  -0.302413  -0.31344  0  2.543607  0
O  O113  1  0.88884018  0.45495937  0.26939517  1  0  -0.302421  -0.313472  0  2.543579  0
O  O114  1  0.38884083  0.04504049  0.76939466  1  0  -0.302415  -0.313452  0  2.54355  0
O  O115  1  0.11115887  0.54504113  0.73060440  1  0  -0.302415  -0.313436  0  2.543605  0
O  O116  1  0.64453535  0.24753790  0.25707757  1  0  -0.302589  -0.311141  0  2.548419  0
O  O117  1  0.85546439  0.74753756  0.24292212  1  0  -0.302557  -0.311124  0  2.548491  0
O  O118  1  0.35546502  0.75246259  0.74292212  1  0  -0.302586  -0.311161  0  2.548404  0
O  O119  1  0.14453598  0.25246293  0.75707757  1  0  -0.302591  -0.311154  0  2.548418  0
