# generated using pymatgen
data_ZnH18C18(ClO2)4
_symmetry_space_group_name_H-M   'P 1'
_cell_length_a   7.41561409
_cell_length_b   7.94120399
_cell_length_c   18.87197901
_cell_angle_alpha   99.24652947
_cell_angle_beta   89.99889151
_cell_angle_gamma   90.00024935
_symmetry_Int_Tables_number   1
_chemical_formula_structural   ZnH18C18(ClO2)4
_chemical_formula_sum   'Zn2 H36 C36 Cl8 O16'
_cell_volume   1096.90939262
_cell_formula_units_Z   2
loop_
 _symmetry_equiv_pos_site_id
 _symmetry_equiv_pos_as_xyz
  1  'x, y, z'
loop_
 _atom_site_type_symbol
 _atom_site_label
 _atom_site_symmetry_multiplicity
 _atom_site_fract_x
 _atom_site_fract_y
 _atom_site_fract_z
 _atom_site_occupancy
 _atom_site_hle17_bader_spin_density
 _atom_site_hle17_ddec_charge
 _atom_site_hle17_ddec_spin_density
 _atom_site_hle17_ddec_sum_bond_order
 _atom_site_hle17_magmom
 _atom_site_hse06_10hf_bader_spin_density
 _atom_site_hse06_10hf_ddec_charge
 _atom_site_hse06_10hf_ddec_spin_density
 _atom_site_hse06_10hf_ddec_sum_bond_order
 _atom_site_hse06_10hf_magmom
 _atom_site_hse06_bader_spin_density
 _atom_site_hse06_ddec_charge
 _atom_site_hse06_ddec_spin_density
 _atom_site_hse06_ddec_sum_bond_order
 _atom_site_hse06_magmom
 _atom_site_pbe_bader_spin_density
 _atom_site_pbe_cm5_charge
 _atom_site_pbe_ddec_charge
 _atom_site_pbe_ddec_spin_density
 _atom_site_pbe_ddec_sum_bond_order
 _atom_site_pbe_magmom
Zn  Zn0  1  0.50000011  0.49999890  0.50000351  1  0  1.154328  0  1.74345  0  0  0.985688  0  2.189767  0  0  1.03576  0  2.129879  0  0  0.685199  0.950269  0  2.231109  0
Zn  Zn1  1  0.99999783  0.00000404  0.50000087  1  0  1.154331  0  1.743606  0  0  0.985651  0  2.190001  0  0  1.035716  0  2.130116  0  0  0.685161  0.950243  0  2.231334  0
H  H2  1  0.97878575  0.46852122  0.06442659  1  0  0.112286  0  0.987092  0  0  0.116502  0  1.061497  0  0  0.120003  0  1.058782  0  0  0.091403  0.11395  0  1.063581  0
H  H3  1  0.47876258  0.03149994  0.93556976  1  0  0.112275  0  0.987208  0  0  0.116483  0  1.061615  0  0  0.119983  0  1.058903  0  0  0.091354  0.113929  0  1.063702  0
H  H4  1  0.02121987  0.53147164  0.93557582  1  0  0.112223  0  0.987184  0  0  0.116464  0  1.061561  0  0  0.119963  0  1.058847  0  0  0.09138  0.113911  0  1.063644  0
H  H5  1  0.52124844  0.96850594  0.06442673  1  0  0.112298  0  0.987316  0  0  0.116476  0  1.06176  0  0  0.119974  0  1.059051  0  0  0.091369  0.113923  0  1.063847  0
H  H6  1  0.54389402  0.40742156  0.10800971  1  0  0.100529  0  0.971513  0  0  0.102729  0  1.048201  0  0  0.106419  0  1.045323  0  0  0.089875  0.100098  0  1.050256  0
H  H7  1  0.04388412  0.09256393  0.89197879  1  0  0.100582  0  0.971311  0  0  0.102716  0  1.048123  0  0  0.106364  0  1.045283  0  0  0.089879  0.100093  0  1.05016  0
H  H8  1  0.45610485  0.59256875  0.89199251  1  0  0.100615  0  0.971516  0  0  0.102821  0  1.04819  0  0  0.106509  0  1.045315  0  0  0.089864  0.10019  0  1.05024  0
H  H9  1  0.95612824  0.90744208  0.10801400  1  0  0.100579  0  0.971398  0  0  0.102741  0  1.048154  0  0  0.106424  0  1.045285  0  0  0.089896  0.100107  0  1.050209  0
H  H10  1  0.49288392  0.52229954  0.23565216  1  0  0.104849  0  0.972503  0  0  0.111995  0  1.040797  0  0  0.115464  0  1.038592  0  0  0.098102  0.109532  0  1.042454  0
H  H11  1  0.99286702  0.97768639  0.76433686  1  0  0.104848  0  0.972615  0  0  0.112045  0  1.040828  0  0  0.115496  0  1.038662  0  0  0.098153  0.109599  0  1.042466  0
H  H12  1  0.50712035  0.47769719  0.76434948  1  0  0.104726  0  0.972419  0  0  0.111885  0  1.04073  0  0  0.115361  0  1.038515  0  0  0.098055  0.109412  0  1.042409  0
H  H13  1  0.00713725  0.02232213  0.23565718  1  0  0.104595  0  0.972509  0  0  0.111805  0  1.040765  0  0  0.115259  0  1.038586  0  0  0.098048  0.109371  0  1.042379  0
H  H14  1  0.42253042  0.70793682  0.33383552  1  0  0.096168  0  0.912834  0  0  0.111395  0  0.969291  0  0  0.112648  0  0.968343  0  0  0.115364  0.110458  0  0.970113  0
H  H15  1  0.92252819  0.79204333  0.66617002  1  0  0.096148  0  0.912666  0  0  0.111386  0  0.969088  0  0  0.112639  0  0.968129  0  0  0.115375  0.110448  0  0.969917  0
H  H16  1  0.57747115  0.29204431  0.66617238  1  0  0.096165  0  0.912674  0  0  0.111374  0  0.969104  0  0  0.112622  0  0.968149  0  0  0.115381  0.110443  0  0.969937  0
H  H17  1  0.07748417  0.20795719  0.33383243  1  0  0.096185  0  0.91274  0  0  0.111352  0  0.969214  0  0  0.112604  0  0.968256  0  0  0.115383  0.110413  0  0.970044  0
H  H18  1  0.34920453  0.50197664  0.34708547  1  0  0.109925  0  0.95126  0  0  0.11646  0  1.016585  0  0  0.119134  0  1.01479  0  0  0.113627  0.114527  0  1.017993  0
H  H19  1  0.84921485  0.99801256  0.65291706  1  0  0.109989  0  0.95121  0  0  0.116422  0  1.016625  0  0  0.119096  0  1.014827  0  0  0.113626  0.114495  0  1.018017  0
H  H20  1  0.65077546  0.49801354  0.65291992  1  0  0.109974  0  0.951271  0  0  0.116423  0  1.016654  0  0  0.119096  0  1.014857  0  0  0.11365  0.114491  0  1.018055  0
H  H21  1  0.15080021  0.00199330  0.34707996  1  0  0.110008  0  0.951214  0  0  0.116404  0  1.016632  0  0  0.119078  0  1.014834  0  0  0.113646  0.114474  0  1.01803  0
H  H22  1  0.74997284  0.67112624  0.45705493  1  0  0.369149  0  0.919314  0  0  0.344256  0  0.9877  0  0  0.354976  0  0.976782  0  0  0.29735  0.33671  0  0.995355  0
H  H23  1  0.24996534  0.82887070  0.54294522  1  0  0.369139  0  0.919307  0  0  0.344233  0  0.987716  0  0  0.354954  0  0.976796  0  0  0.297324  0.336686  0  0.995373  0
H  H24  1  0.25001525  0.32887190  0.54294311  1  0  0.369097  0  0.919424  0  0  0.344277  0  0.987703  0  0  0.355  0  0.976781  0  0  0.297328  0.336728  0  0.995368  0
H  H25  1  0.75002410  0.17113121  0.45705469  1  0  0.369165  0  0.919272  0  0  0.344329  0  0.987583  0  0  0.355049  0  0.976663  0  0  0.297349  0.33678  0  0.99525  0
H  H26  1  0.90836590  0.41206838  0.41942020  1  0  0.072488  0  0.946144  0  0  0.087885  0  1.013515  0  0  0.089264  0  1.012454  0  0  0.087862  0.086768  0  1.014404  0
H  H27  1  0.40836064  0.08793337  0.58058107  1  0  0.072489  0  0.946244  0  0  0.08789  0  1.013606  0  0  0.089266  0  1.012546  0  0  0.087881  0.086773  0  1.014492  0
H  H28  1  0.09162219  0.58792992  0.58057361  1  0  0.072412  0  0.946184  0  0  0.087866  0  1.013494  0  0  0.089246  0  1.012435  0  0  0.087832  0.086742  0  1.014395  0
H  H29  1  0.59163284  0.91206467  0.41941961  1  0  0.07249  0  0.946212  0  0  0.087875  0  1.013594  0  0  0.089251  0  1.012541  0  0  0.087864  0.086758  0  1.014479  0
H  H30  1  0.88365665  0.53212165  0.34681163  1  0  0.076607  0  0.980763  0  0  0.084754  0  1.062018  0  0  0.086027  0  1.060985  0  0  0.085558  0.083766  0  1.062813  0
H  H31  1  0.38364846  0.96787661  0.65318866  1  0  0.076603  0  0.980819  0  0  0.084754  0  1.062073  0  0  0.08603  0  1.061034  0  0  0.085548  0.083767  0  1.062874  0
H  H32  1  0.11631930  0.46788293  0.65318529  1  0  0.076553  0  0.980761  0  0  0.084675  0  1.062066  0  0  0.085952  0  1.061022  0  0  0.085521  0.083687  0  1.062867  0
H  H33  1  0.61634502  0.03212147  0.34681096  1  0  0.076633  0  0.980742  0  0  0.084781  0  1.061992  0  0  0.086058  0  1.060958  0  0  0.085566  0.083794  0  1.062788  0
H  H34  1  0.73440201  0.35800558  0.35413545  1  0  0.089731  0  0.941253  0  0  0.106549  0  1.007371  0  0  0.107308  0  1.006739  0  0  0.097086  0.105849  0  1.008008  0
H  H35  1  0.23439245  0.14199742  0.64586510  1  0  0.089725  0  0.941297  0  0  0.10655  0  1.007412  0  0  0.107312  0  1.006782  0  0  0.09707  0.105859  0  1.008018  0
H  H36  1  0.26558068  0.64199645  0.64586128  1  0  0.089688  0  0.941103  0  0  0.106468  0  1.007289  0  0  0.107225  0  1.006657  0  0  0.097061  0.105789  0  1.007907  0
H  H37  1  0.76560507  0.85800444  0.35413586  1  0  0.089749  0  0.941259  0  0  0.106578  0  1.007368  0  0  0.10735  0  1.006723  0  0  0.097096  0.10587  0  1.008009  0
C  C38  1  0.06422516  0.55071358  0.17337712  1  0  0.051792  0  3.77412  0  0  0.062148  0  4.040369  0  0  0.061856  0  4.060887  0  0  0.001021  0.062086  0  4.026676  0
C  C39  1  0.56420771  0.94928879  0.82661317  1  0  0.0519  0  3.77418  0  0  0.062238  0  4.040431  0  0  0.061942  0  4.060954  0  0  0.001122  0.062176  0  4.026741  0
C  C40  1  0.93577777  0.44927672  0.82662511  1  0  0.051937  0  3.774273  0  0  0.06213  0  4.040725  0  0  0.061826  0  4.061263  0  0  0.001076  0.062067  0  4.027036  0
C  C41  1  0.43579791  0.05071970  0.17338192  1  0  0.052055  0  3.774349  0  0  0.062294  0  4.040701  0  0  0.062003  0  4.061218  0  0  0.001114  0.062229  0  4.02701  0
C  C42  1  0.09156231  0.48128527  0.10174034  1  0  -0.179108  0  3.770049  0  0  -0.210498  0  4.018864  0  0  -0.212007  0  4.039  0  0  -0.107693  -0.209369  0  4.005447  0
C  C43  1  0.59154577  0.01872548  0.89825710  1  0  -0.179253  0  3.76988  0  0  -0.210679  0  4.018797  0  0  -0.212188  0  4.038938  0  0  -0.107758  -0.209545  0  4.005376  0
C  C44  1  0.90843791  0.51870497  0.89826347  1  0  -0.179058  0  3.769999  0  0  -0.210448  0  4.018848  0  0  -0.211952  0  4.038993  0  0  -0.107645  -0.209316  0  4.005427  0
C  C45  1  0.40846794  0.98128416  0.10174126  1  0  -0.179195  0  3.769938  0  0  -0.210575  0  4.018844  0  0  -0.212083  0  4.038982  0  0  -0.107709  -0.209441  0  4.005427  0
C  C46  1  0.26484577  0.43004419  0.07877495  1  0  0.136449  0  3.799087  0  0  0.149295  0  4.064402  0  0  0.15052  0  4.086527  0  0  0.002063  0.148187  0  4.049627  0
C  C47  1  0.76482970  0.06995521  0.92121981  1  0  0.136593  0  3.798801  0  0  0.149435  0  4.064108  0  0  0.150665  0  4.086221  0  0  0.00207  0.148325  0  4.049335  0
C  C48  1  0.73515581  0.56994610  0.92122780  1  0  0.136525  0  3.799198  0  0  0.149411  0  4.064435  0  0  0.15064  0  4.086554  0  0  0.002013  0.148301  0  4.049661  0
C  C49  1  0.23518131  0.93004943  0.07877553  1  0  0.136513  0  3.798987  0  0  0.149403  0  4.064202  0  0  0.150631  0  4.086325  0  0  0.002037  0.148288  0  4.049433  0
C  C50  1  0.40913881  0.44690276  0.12653529  1  0  -0.110223  0  3.784899  0  0  -0.138052  0  4.045227  0  0  -0.138291  0  4.065497  0  0  -0.103971  -0.137765  0  4.031557  0
C  C51  1  0.90912233  0.05308154  0.87345408  1  0  -0.11045  0  3.785248  0  0  -0.138232  0  4.045527  0  0  -0.138431  0  4.065817  0  0  -0.103991  -0.137943  0  4.031833  0
C  C52  1  0.59086276  0.55308750  0.87346799  1  0  -0.110486  0  3.785168  0  0  -0.138323  0  4.045441  0  0  -0.138563  0  4.065715  0  0  -0.103925  -0.13803  0  4.031765  0
C  C53  1  0.09088464  0.94692061  0.12653948  1  0  -0.110406  0  3.785056  0  0  -0.138196  0  4.045281  0  0  -0.138432  0  4.06555  0  0  -0.103952  -0.137903  0  4.031616  0
C  C54  1  0.37968044  0.51410025  0.19856237  1  0  -0.17141  0  3.763686  0  0  -0.194426  0  4.027383  0  0  -0.199197  0  4.046808  0  0  -0.111254  -0.191242  0  4.014304  0
C  C55  1  0.87967118  0.98588678  0.80143023  1  0  -0.171267  0  3.76432  0  0  -0.194299  0  4.027985  0  0  -0.199064  0  4.047396  0  0  -0.111276  -0.191131  0  4.014914  0
C  C56  1  0.62031979  0.48589256  0.80144110  1  0  -0.171171  0  3.763649  0  0  -0.194207  0  4.027317  0  0  -0.198979  0  4.046735  0  0  -0.111191  -0.191025  0  4.014237  0
C  C57  1  0.12033983  0.01412045  0.19856424  1  0  -0.171047  0  3.763904  0  0  -0.194102  0  4.027562  0  0  -0.198864  0  4.046984  0  0  -0.111209  -0.190942  0  4.014479  0
C  C58  1  0.20758229  0.56739514  0.22300936  1  0  0.209748  0  3.803754  0  0  0.192099  0  4.0673  0  0  0.202277  0  4.083603  0  0  0.074195  0.185226  0  4.056222  0
C  C59  1  0.70755913  0.93259946  0.77698457  1  0  0.209765  0  3.804065  0  0  0.192155  0  4.06761  0  0  0.202337  0  4.083913  0  0  0.07431  0.185266  0  4.056543  0
C  C60  1  0.79241928  0.43260025  0.77699377  1  0  0.209658  0  3.803961  0  0  0.192068  0  4.067481  0  0  0.202239  0  4.083791  0  0  0.074119  0.185193  0  4.056405  0
C  C61  1  0.29244919  0.06740781  0.22300884  1  0  0.209617  0  3.804331  0  0  0.192069  0  4.067873  0  0  0.202246  0  4.084179  0  0  0.074322  0.185185  0  4.056801  0
C  C62  1  0.30334629  0.63281586  0.34500853  1  0  -0.080543  0  3.61973  0  0  -0.136579  0  3.879451  0  0  -0.134224  0  3.880171  0  0  -0.066955  -0.13824  0  3.879015  0
C  C63  1  0.80334097  0.86717086  0.65499152  1  0  -0.08071  0  3.619877  0  0  -0.136543  0  3.879493  0  0  -0.134171  0  3.880186  0  0  -0.066931  -0.138217  0  3.879063  0
C  C64  1  0.69665259  0.36717683  0.65499811  1  0  -0.080738  0  3.619945  0  0  -0.136597  0  3.879484  0  0  -0.134228  0  3.880174  0  0  -0.066969  -0.13827  0  3.879061  0
C  C65  1  0.19665656  0.13283121  0.34500416  1  0  -0.080673  0  3.619615  0  0  -0.136367  0  3.879161  0  0  -0.133993  0  3.879848  0  0  -0.06694  -0.138042  0  3.878732  0
C  C66  1  0.22942096  0.71538880  0.41748517  1  0  0.700489  0  3.80637  0  0  0.64498  0  4.111285  0  0  0.679124  0  4.103031  0  0  0.227238  0.621735  0  4.116295  0
C  C67  1  0.72942419  0.78459650  0.58251797  1  0  0.700578  0  3.806546  0  0  0.645014  0  4.111555  0  0  0.679166  0  4.103289  0  0  0.227124  0.621758  0  4.116578  0
C  C68  1  0.77057117  0.28461547  0.58251968  1  0  0.700823  0  3.806146  0  0  0.645274  0  4.111082  0  0  0.679426  0  4.102812  0  0  0.227331  0.622023  0  4.116105  0
C  C69  1  0.27059222  0.21540668  0.41748203  1  0  0.70023  0  3.8066  0  0  0.644608  0  4.111641  0  0  0.678756  0  4.10338  0  0  0.226993  0.621356  0  4.116656  0
C  C70  1  0.81161161  0.46355491  0.38424482  1  0  -0.026582  0  3.624498  0  0  -0.11997  0  3.893976  0  0  -0.113328  0  3.897192  0  0  -0.161625  -0.124328  0  3.891884  0
C  C71  1  0.31160298  0.03644826  0.61575198  1  0  -0.026625  0  3.624764  0  0  -0.120054  0  3.894301  0  0  -0.113423  0  3.897522  0  0  -0.161659  -0.1244  0  3.892205  0
C  C72  1  0.18836974  0.53644584  0.61575182  1  0  -0.026264  0  3.624126  0  0  -0.119661  0  3.89357  0  0  -0.113033  0  3.896811  0  0  -0.161501  -0.124032  0  3.891458  0
C  C73  1  0.68839050  0.96355239  0.38424730  1  0  -0.026658  0  3.624621  0  0  -0.120044  0  3.894089  0  0  -0.113419  0  3.897301  0  0  -0.161675  -0.124402  0  3.892009  0
Cl  Cl74  1  0.29978836  0.34528912  0.98932281  1  0  -0.091921  0  1.398337  0  0  -0.075208  0  1.647231  0  0  -0.079246  0  1.6439  0  0  0.009121  -0.072166  0  1.649546  0
Cl  Cl75  1  0.79978556  0.15470653  0.01066982  1  0  -0.091913  0  1.398097  0  0  -0.075207  0  1.647015  0  0  -0.079227  0  1.64365  0  0  0.009131  -0.072158  0  1.649322  0
Cl  Cl76  1  0.70020917  0.65470620  0.01068191  1  0  -0.091905  0  1.398195  0  0  -0.075225  0  1.647086  0  0  -0.079255  0  1.64374  0  0  0.009122  -0.072179  0  1.649399  0
Cl  Cl77  1  0.20022950  0.84529552  0.98932639  1  0  -0.091903  0  1.398245  0  0  -0.075177  0  1.647069  0  0  -0.0792  0  1.643709  0  0  0.009121  -0.072133  0  1.649386  0
Cl  Cl78  1  0.85078256  0.62012233  0.20162525  1  0  -0.073349  0  1.382687  0  0  -0.053989  0  1.615296  0  0  -0.056663  0  1.610036  0  0  0.015251  -0.051995  0  1.618938  0
Cl  Cl79  1  0.35076265  0.87988886  0.79837095  1  0  -0.073424  0  1.38281  0  0  -0.05404  0  1.615425  0  0  -0.05671  0  1.61016  0  0  0.015155  -0.052045  0  1.619076  0
Cl  Cl80  1  0.14922171  0.37987949  0.79837677  1  0  -0.073362  0  1.382734  0  0  -0.053959  0  1.615417  0  0  -0.056628  0  1.61016  0  0  0.015258  -0.051963  0  1.619061  0
Cl  Cl81  1  0.64924566  0.12012088  0.20162476  1  0  -0.073527  0  1.382782  0  0  -0.054121  0  1.615423  0  0  -0.056795  0  1.610159  0  0  0.015128  -0.052127  0  1.61907  0
O  O82  1  0.16661180  0.63628032  0.29210714  1  0  -0.2539  0  2.405288  0  0  -0.188542  0  2.646898  0  0  -0.204846  0  2.649504  0  0  -0.180023  -0.177122  0  2.644817  0
O  O83  1  0.66660788  0.86371796  0.70789056  1  0  -0.25381  0  2.405455  0  0  -0.18855  0  2.647062  0  0  -0.204861  0  2.649668  0  0  -0.180037  -0.177099  0  2.644967  0
O  O84  1  0.83338438  0.36372411  0.70789349  1  0  -0.253859  0  2.405577  0  0  -0.188491  0  2.647089  0  0  -0.204778  0  2.649674  0  0  -0.180032  -0.177062  0  2.645008  0
O  O85  1  0.33340043  0.13629683  0.29210712  1  0  -0.253767  0  2.405225  0  0  -0.188576  0  2.646821  0  0  -0.204889  0  2.649428  0  0  -0.180095  -0.17713  0  2.644727  0
O  O86  1  0.31294595  0.68712355  0.47373798  1  0  -0.654122  0  2.100977  0  0  -0.584874  0  2.355196  0  0  -0.613696  0  2.342928  0  0  -0.30807  -0.56478  0  2.363018  0
O  O87  1  0.81295212  0.81287589  0.52626400  1  0  -0.654173  0  2.100833  0  0  -0.584913  0  2.355063  0  0  -0.613752  0  2.342814  0  0  -0.308064  -0.564814  0  2.362886  0
O  O88  1  0.68705023  0.31287556  0.52626808  1  0  -0.654264  0  2.100983  0  0  -0.585055  0  2.355204  0  0  -0.613903  0  2.342963  0  0  -0.308166  -0.564955  0  2.363029  0
O  O89  1  0.18703596  0.18712216  0.47373615  1  0  -0.654072  0  2.100641  0  0  -0.584815  0  2.35482  0  0  -0.613682  0  2.342622  0  0  -0.30801  -0.564716  0  2.362643  0
O  O90  1  0.09493066  0.81317473  0.41811847  1  0  -0.616318  0  2.081079  0  0  -0.548474  0  2.339577  0  0  -0.576178  0  2.327598  0  0  -0.301288  -0.529354  0  2.347399  0
O  O91  1  0.59494554  0.68681435  0.58188491  1  0  -0.616286  0  2.08133  0  0  -0.548516  0  2.33994  0  0  -0.576235  0  2.32797  0  0  -0.301235  -0.529385  0  2.347761  0
O  O92  1  0.90507092  0.18683600  0.58188474  1  0  -0.616433  0  2.080883  0  0  -0.548616  0  2.339461  0  0  -0.576329  0  2.327483  0  0  -0.301308  -0.529502  0  2.347291  0
O  O93  1  0.40506413  0.31317461  0.41811880  1  0  -0.616079  0  2.081658  0  0  -0.548221  0  2.340195  0  0  -0.575923  0  2.328217  0  0  -0.301154  -0.529092  0  2.34801  0
O  O94  1  0.68469489  0.57605963  0.42571737  1  0  -0.549948  0  2.230502  0  0  -0.473275  0  2.491356  0  0  -0.495209  0  2.479361  0  0  -0.40683  -0.457678  0  2.498919  0
O  O95  1  0.18468633  0.92394366  0.57428321  1  0  -0.549833  0  2.230539  0  0  -0.473166  0  2.491447  0  0  -0.495093  0  2.479444  0  0  -0.406762  -0.457575  0  2.499017  0
O  O96  1  0.31529320  0.42393590  0.57428206  1  0  -0.550054  0  2.230497  0  0  -0.4734  0  2.491227  0  0  -0.49534  0  2.479241  0  0  -0.406825  -0.457796  0  2.498792  0
O  O97  1  0.81530445  0.07605820  0.42571775  1  0  -0.549926  0  2.230533  0  0  -0.473294  0  2.491301  0  0  -0.495224  0  2.47932  0  0  -0.406797  -0.457691  0  2.498853  0
