# generated using pymatgen
data_CdH13C11SNO7
_symmetry_space_group_name_H-M   'P 1'
_cell_length_a   5.17402871
_cell_length_b   7.72813213
_cell_length_c   17.04742236
_cell_angle_alpha   96.14101973
_cell_angle_beta   89.99898254
_cell_angle_gamma   90.00136653
_symmetry_Int_Tables_number   1
_chemical_formula_structural   CdH13C11SNO7
_chemical_formula_sum   'Cd2 H26 C22 S2 N2 O14'
_cell_volume   677.73944966
_cell_formula_units_Z   2
loop_
 _symmetry_equiv_pos_site_id
 _symmetry_equiv_pos_as_xyz
  1  'x, y, z'
loop_
 _atom_site_type_symbol
 _atom_site_label
 _atom_site_symmetry_multiplicity
 _atom_site_fract_x
 _atom_site_fract_y
 _atom_site_fract_z
 _atom_site_occupancy
 _atom_site_hle17_bader_spin_density
 _atom_site_hle17_ddec_charge
 _atom_site_hle17_ddec_spin_density
 _atom_site_hle17_ddec_sum_bond_order
 _atom_site_hle17_magmom
 _atom_site_hse06_10hf_bader_spin_density
 _atom_site_hse06_10hf_ddec_charge
 _atom_site_hse06_10hf_ddec_spin_density
 _atom_site_hse06_10hf_ddec_sum_bond_order
 _atom_site_hse06_10hf_magmom
 _atom_site_hse06_bader_spin_density
 _atom_site_hse06_ddec_charge
 _atom_site_hse06_ddec_spin_density
 _atom_site_hse06_ddec_sum_bond_order
 _atom_site_hse06_magmom
 _atom_site_pbe_bader_spin_density
 _atom_site_pbe_cm5_charge
 _atom_site_pbe_ddec_charge
 _atom_site_pbe_ddec_spin_density
 _atom_site_pbe_ddec_sum_bond_order
 _atom_site_pbe_magmom
Cd  Cd0  1  0.41246951  0.07976652  0.60701408  1  0  1.269593  0  1.54036  0  0  1.097517  0  1.979718  0  0  1.157051  0  1.92016  0  0  0.786705  1.054526  0  2.020944  0
Cd  Cd1  1  0.91245109  0.92022167  0.39298601  1  0  1.26957  0  1.540491  0  0  1.097451  0  1.97988  0  0  1.156988  0  1.920327  0  0  0.786673  1.054455  0  2.021106  0
H  H2  1  0.05675127  0.57548285  0.76041838  1  0  0.319841  0  0.896651  0  0  0.301423  0  0.963038  0  0  0.309144  0  0.956546  0  0  0.309016  0.295976  0  0.967628  0
H  H3  1  0.55671405  0.42452089  0.23958745  1  0  0.319873  0  0.896613  0  0  0.301683  0  0.962776  0  0  0.309376  0  0.956268  0  0  0.309113  0.296246  0  0.967374  0
H  H4  1  0.57257491  0.42262208  0.68835420  1  0  0.081388  0  0.940125  0  0  0.090138  0  1.0054  0  0  0.092199  0  1.004219  0  0  0.11684  0.088627  0  1.006337  0
H  H5  1  0.07253500  0.57736363  0.31165295  1  0  0.081565  0  0.939955  0  0  0.090115  0  1.005265  0  0  0.092166  0  1.004099  0  0  0.11686  0.08861  0  1.006191  0
H  H6  1  0.04523229  0.54848616  0.60249356  1  0  0.088523  0  0.933142  0  0  0.102956  0  0.998227  0  0  0.104575  0  0.997477  0  0  0.095545  0.10173  0  0.99893  0
H  H7  1  0.54523161  0.45150325  0.39750162  1  0  0.088467  0  0.933196  0  0  0.102904  0  0.998314  0  0  0.104531  0  0.997578  0  0  0.09552  0.101678  0  0.999018  0
H  H8  1  0.80789984  0.40765650  0.55525362  1  0  0.093641  0  0.94741  0  0  0.108664  0  1.010567  0  0  0.110287  0  1.010036  0  0  0.098453  0.107474  0  1.01102  0
H  H9  1  0.30791097  0.59233137  0.44475290  1  0  0.093581  0  0.947397  0  0  0.10864  0  1.010548  0  0  0.110269  0  1.010032  0  0  0.098442  0.107456  0  1.010989  0
H  H10  1  0.46556035  0.62386249  0.58565390  1  0  0.118812  0  0.924557  0  0  0.134785  0  0.983928  0  0  0.137202  0  0.982736  0  0  0.107231  0.133061  0  0.984878  0
H  H11  1  0.96557341  0.37611333  0.41435404  1  0  0.118803  0  0.924527  0  0  0.134742  0  0.983972  0  0  0.137161  0  0.982775  0  0  0.107244  0.133019  0  0.984922  0
H  H12  1  0.67616682  0.75991172  0.64542354  1  0  0.094161  0  0.954468  0  0  0.108586  0  1.02029  0  0  0.110177  0  1.019642  0  0  0.098064  0.107481  0  1.020794  0
H  H13  1  0.17616266  0.24007430  0.35457776  1  0  0.094277  0  0.954447  0  0  0.10863  0  1.02033  0  0  0.110221  0  1.019683  0  0  0.098069  0.107525  0  1.020833  0
H  H14  1  0.31215586  0.34288763  0.81383577  1  0  0.106172  0  0.98732  0  0  0.111946  0  1.055679  0  0  0.115485  0  1.053549  0  0  0.100937  0.109364  0  1.057299  0
H  H15  1  0.81217250  0.65713693  0.18616089  1  0  0.106105  0  0.987359  0  0  0.11191  0  1.055709  0  0  0.115453  0  1.053571  0  0  0.100867  0.109326  0  1.057331  0
H  H16  1  0.30204675  0.07924203  0.88508827  1  0  0.097908  0  0.934567  0  0  0.112015  0  0.98521  0  0  0.115137  0  0.984127  0  0  0.106315  0.109746  0  0.986158  0
H  H17  1  0.80210584  0.92079151  0.11490716  1  0  0.098008  0  0.934603  0  0  0.112008  0  0.985342  0  0  0.115126  0  0.984268  0  0  0.106313  0.109739  0  0.986287  0
H  H18  1  0.63818740  0.03635623  0.98582924  1  0  0.092608  0  0.951552  0  0  0.104426  0  1.011755  0  0  0.106596  0  1.01078  0  0  0.105395  0.102851  0  1.01249  0
H  H19  1  0.13825344  0.96365406  0.01416708  1  0  0.092683  0  0.951507  0  0  0.104501  0  1.011714  0  0  0.106675  0  1.010736  0  0  0.105355  0.102876  0  1.012507  0
H  H20  1  0.98293843  0.25839329  0.01558504  1  0  0.090004  0  0.975558  0  0  0.096033  0  1.044772  0  0  0.098645  0  1.04432  0  0  0.098482  0.094144  0  1.045236  0
H  H21  1  0.48297867  0.74161423  0.98441153  1  0  0.089958  0  0.975638  0  0  0.096092  0  1.044733  0  0  0.098701  0  1.044286  0  0  0.098518  0.094196  0  1.045221  0
H  H22  1  0.99081805  0.52433139  0.94537403  1  0  0.097771  0  0.978626  0  0  0.105997  0  1.044747  0  0  0.107974  0  1.045712  0  0  0.101571  0.104561  0  1.044129  0
H  H23  1  0.49083341  0.47567748  0.05462668  1  0  0.097794  0  0.978474  0  0  0.106021  0  1.044603  0  0  0.10799  0  1.045572  0  0  0.101566  0.104569  0  1.044026  0
H  H24  1  0.25399804  0.84027127  0.71980122  1  0  0.439943  0  0.828808  0  0  0.4123  0  0.893303  0  0  0.422177  0  0.87888  0  0  0.310775  0.405229  0  0.903633  0
H  H25  1  0.75396838  0.15972620  0.28020727  1  0  0.439911  0  0.828519  0  0  0.412229  0  0.893331  0  0  0.42211  0  0.878907  0  0  0.310739  0.405159  0  0.90366  0
H  H26  1  0.02793350  0.95684336  0.68695255  1  0  0.426494  0  0.867367  0  0  0.394267  0  0.935642  0  0  0.406332  0  0.917991  0  0  0.293713  0.385667  0  0.94821  0
H  H27  1  0.52789781  0.04314701  0.31304806  1  0  0.426419  0  0.867382  0  0  0.394207  0  0.935699  0  0  0.406274  0  0.918044  0  0  0.29368  0.385604  0  0.948272  0
C  C28  1  0.92371449  0.26900208  0.68485927  1  0  0.662871  0  3.822037  0  0  0.610172  0  4.124609  0  0  0.644577  0  4.117861  0  0  0.216744  0.586649  0  4.128442  0
C  C29  1  0.42369535  0.73099281  0.31513992  1  0  0.662904  0  3.821947  0  0  0.61009  0  4.124446  0  0  0.644485  0  4.117714  0  0  0.216795  0.586573  0  4.128274  0
C  C30  1  0.78160789  0.44219869  0.68256903  1  0  0.041768  0  3.611248  0  0  0.020134  0  3.855547  0  0  0.019238  0  3.867872  0  0  0.006104  0.020768  0  3.847049  0
C  C31  1  0.28157469  0.55779798  0.31743282  1  0  0.041516  0  3.611473  0  0  0.020605  0  3.854908  0  0  0.019684  0  3.867208  0  0  0.006154  0.021245  0  3.846452  0
C  C32  1  0.84065046  0.51128880  0.60329472  1  0  -0.115396  0  3.647638  0  0  -0.164462  0  3.907518  0  0  -0.164447  0  3.918919  0  0  -0.167499  -0.164357  0  3.899804  0
C  C33  1  0.34064897  0.48869833  0.39670629  1  0  -0.115258  0  3.647557  0  0  -0.164544  0  3.907443  0  0  -0.164519  0  3.918768  0  0  -0.167475  -0.164448  0  3.899745  0
C  C34  1  0.66844343  0.66565489  0.59239824  1  0  -0.262246  0  3.689412  0  0  -0.300359  0  3.939131  0  0  -0.306591  0  3.948096  0  0  -0.167427  -0.296047  0  3.932881  0
C  C35  1  0.16844933  0.33433366  0.40760089  1  0  -0.262388  0  3.689289  0  0  -0.300475  0  3.939067  0  0  -0.306731  0  3.948126  0  0  -0.167494  -0.29616  0  3.932821  0
C  C36  1  0.73486729  0.76009471  0.52235174  1  0  0.714551  0  3.819891  0  0  0.663718  0  4.115583  0  0  0.698421  0  4.110685  0  0  0.209932  0.640068  0  4.117957  0
C  C37  1  0.23487360  0.23988958  0.47764856  1  0  0.714542  0  3.819998  0  0  0.663829  0  4.115551  0  0  0.69853  0  4.110644  0  0  0.20994  0.64017  0  4.117943  0
C  C38  1  0.65058860  0.44875534  0.87624063  1  0  -0.147659  0  3.783236  0  0  -0.11787  0  4.029218  0  0  -0.12674  0  4.053448  0  0  -0.026897  -0.112133  0  4.01304  0
C  C39  1  0.15059698  0.55125769  0.12375870  1  0  -0.147635  0  3.783219  0  0  -0.117872  0  4.029187  0  0  -0.126747  0  4.053431  0  0  -0.026961  -0.112142  0  4.013026  0
C  C40  1  0.45625861  0.32500452  0.85871809  1  0  -0.062723  0  3.740157  0  0  -0.088746  0  3.989599  0  0  -0.087582  0  4.009849  0  0  -0.087954  -0.089284  0  3.975827  0
C  C41  1  0.95629002  0.67501695  0.14127760  1  0  -0.0626  0  3.740159  0  0  -0.088636  0  3.989526  0  0  -0.08747  0  4.009771  0  0  -0.087807  -0.08917  0  3.975761  0
C  C42  1  0.45298079  0.17644404  0.89856653  1  0  -0.06014  0  3.73098  0  0  -0.071499  0  3.980054  0  0  -0.075043  0  3.999929  0  0  -0.084155  -0.069259  0  3.96657  0
C  C43  1  0.95301589  0.82358128  0.10142997  1  0  -0.060215  0  3.731125  0  0  -0.071455  0  3.980217  0  0  -0.074997  0  4.000087  0  0  -0.084168  -0.069212  0  3.96672  0
C  C44  1  0.64128465  0.15263337  0.95505241  1  0  -0.027534  0  3.714763  0  0  -0.046722  0  3.963546  0  0  -0.044196  0  3.981267  0  0  -0.076553  -0.0482  0  3.951476  0
C  C45  1  0.14132740  0.84736661  0.04494042  1  0  -0.02779  0  3.714607  0  0  -0.047033  0  3.963475  0  0  -0.044515  0  3.981194  0  0  -0.076612  -0.048473  0  3.951423  0
C  C46  1  0.83507930  0.27707061  0.97176929  1  0  -0.075883  0  3.744384  0  0  -0.08538  0  3.993921  0  0  -0.089571  0  4.014935  0  0  -0.08853  -0.082704  0  3.979756  0
C  C47  1  0.33514366  0.72293338  0.02823146  1  0  -0.075666  0  3.744022  0  0  -0.085227  0  3.993566  0  0  -0.08942  0  4.01459  0  0  -0.088494  -0.082551  0  3.979382  0
C  C48  1  0.84133353  0.42620619  0.93244279  1  0  -0.065797  0  3.746295  0  0  -0.08879  0  3.98831  0  0  -0.088172  0  4.010314  0  0  -0.085581  -0.088968  0  3.973381  0
C  C49  1  0.34134394  0.57380435  0.06756119  1  0  -0.065866  0  3.746398  0  0  -0.088835  0  3.988398  0  0  -0.088206  0  4.010407  0  0  -0.085603  -0.089015  0  3.973465  0
S  S50  1  0.67563965  0.63117916  0.82169224  1  0  1.215526  0  5.429927  0  0  1.116921  0  5.946985  0  0  1.161607  0  5.929939  0  0  0.559212  1.086225  0  5.957862  0
S  S51  1  0.17560750  0.36883679  0.17831003  1  0  1.215399  0  5.429303  0  0  1.11694  0  5.946361  0  0  1.161559  0  5.929306  0  0  0.55918  1.086266  0  5.957254  0
N  N52  1  0.86350980  0.57298572  0.74655298  1  0  -0.560112  0  3.17572  0  0  -0.503711  0  3.446089  0  0  -0.522362  0  3.447993  0  0  -0.453548  -0.49065  0  3.444418  0
N  N53  1  0.36346777  0.42702265  0.25344432  1  0  -0.560145  0  3.176355  0  0  -0.504262  0  3.446578  0  0  -0.522751  0  3.448343  0  0  -0.453682  -0.491265  0  3.444968  0
O  O54  1  0.16659451  0.27712343  0.69359426  1  0  -0.643451  0  2.021547  0  0  -0.579014  0  2.272803  0  0  -0.607093  0  2.261036  0  0  -0.318373  -0.559287  0  2.28028  0
O  O55  1  0.66657582  0.72287812  0.30640438  1  0  -0.643382  0  2.0216  0  0  -0.578946  0  2.27294  0  0  -0.607029  0  2.261184  0  0  -0.318362  -0.559198  0  2.280364  0
O  O56  1  0.79755133  0.12527148  0.67433683  1  0  -0.671543  0  2.017581  0  0  -0.598718  0  2.266183  0  0  -0.629344  0  2.25251  0  0  -0.323436  -0.577207  0  2.27502  0
O  O57  1  0.29754255  0.87472802  0.32566566  1  0  -0.671547  0  2.017448  0  0  -0.59879  0  2.266171  0  0  -0.629412  0  2.252499  0  0  -0.323484  -0.577283  0  2.275008  0
O  O58  1  0.90649786  0.70022812  0.47381039  1  0  -0.620297  0  1.981909  0  0  -0.543231  0  2.218156  0  0  -0.57524  0  2.21182  0  0  -0.306029  -0.520864  0  2.221754  0
O  O59  1  0.40651325  0.29976134  0.52618686  1  0  -0.620188  0  1.981824  0  0  -0.543306  0  2.218226  0  0  -0.575302  0  2.211874  0  0  -0.306032  -0.52093  0  2.221829  0
O  O60  1  0.61216882  0.90059053  0.51155640  1  0  -0.701707  0  2.032097  0  0  -0.628883  0  2.302444  0  0  -0.66265  0  2.290408  0  0  -0.338909  -0.604919  0  2.309612  0
O  O61  1  0.11216562  0.09939847  0.48844424  1  0  -0.701673  0  2.032181  0  0  -0.628922  0  2.302558  0  0  -0.662702  0  2.290555  0  0  -0.33891  -0.604954  0  2.309732  0
O  O62  1  0.80937990  0.76929561  0.86894284  1  0  -0.586076  0  1.933833  0  0  -0.54414  0  2.177973  0  0  -0.564145  0  2.167379  0  0  -0.312178  -0.530088  0  2.184671  0
O  O63  1  0.30936093  0.23071071  0.13105172  1  0  -0.585967  0  1.933243  0  0  -0.544044  0  2.177324  0  0  -0.564048  0  2.16675  0  0  -0.312082  -0.529988  0  2.18401  0
O  O64  1  0.42093632  0.66370151  0.78960794  1  0  -0.625582  0  1.972478  0  0  -0.568981  0  2.218323  0  0  -0.588794  0  2.20381  0  0  -0.314025  -0.555198  0  2.228007  0
O  O65  1  0.92090339  0.33630770  0.21038908  1  0  -0.62561  0  1.97245  0  0  -0.569059  0  2.218287  0  0  -0.588874  0  2.203792  0  0  -0.314068  -0.555263  0  2.227959  0
O  O66  1  0.18267855  0.88354997  0.67232685  1  0  -0.8255  0  1.885873  0  0  -0.761442  0  2.089091  0  0  -0.784806  0  2.054287  0  0  -0.569902  -0.744923  0  2.113364  0
O  O67  1  0.68264660  0.11643736  0.32767977  1  0  -0.825373  0  1.885578  0  0  -0.761236  0  2.089022  0  0  -0.784627  0  2.054247  0  0  -0.569829  -0.74472  0  2.113292  0
