# generated using pymatgen
data_CoH21C21(N4O3)2
_symmetry_space_group_name_H-M   'P 1'
_cell_length_a   14.22303495
_cell_length_b   14.19255605
_cell_length_c   15.43003581
_cell_angle_alpha   90.00005672
_cell_angle_beta   98.03711922
_cell_angle_gamma   90.00003198
_symmetry_Int_Tables_number   1
_chemical_formula_structural   CoH21C21(N4O3)2
_chemical_formula_sum   'Co4 H84 C84 N32 O24'
_cell_volume   3084.13208399
_cell_formula_units_Z   4
loop_
 _symmetry_equiv_pos_site_id
 _symmetry_equiv_pos_as_xyz
  1  'x, y, z'
loop_
 _atom_site_type_symbol
 _atom_site_label
 _atom_site_symmetry_multiplicity
 _atom_site_fract_x
 _atom_site_fract_y
 _atom_site_fract_z
 _atom_site_occupancy
 _atom_site_pbe_bader_charge
 _atom_site_pbe_bader_spin_density
 _atom_site_pbe_cm5_charge
 _atom_site_pbe_ddec_charge
 _atom_site_pbe_ddec_spin_density
 _atom_site_pbe_ddec_sum_bond_order
 _atom_site_pbe_magmom
Co  Co0  1  0.73531560  0.48574953  0.59074012  1  1.2327  2.555766  0.64972  0.665124  2.834605  2.600663  2.536
Co  Co1  1  0.23531450  0.01425054  0.09074047  1  1.232863  2.555771  0.649717  0.665023  2.834623  2.600679  2.536
Co  Co2  1  0.26468805  0.51425016  0.40926133  1  1.232797  2.555762  0.649726  0.665125  2.83462  2.600535  2.536
Co  Co3  1  0.76468343  0.98575055  0.90925705  1  1.232678  2.555784  0.649694  0.665103  2.834612  2.600684  2.536
H  H4  1  0.73175667  0.30861295  0.48158837  1  0.124275  0.001936  0.123048  0.099485  0.000509  0.977655  0.001
H  H5  1  0.23175527  0.19139106  0.98159165  1  0.124377  0.001936  0.123085  0.099523  0.000508  0.977664  0.001
H  H6  1  0.26825054  0.69138815  0.51841480  1  0.124275  0.001936  0.123049  0.099467  0.000508  0.97771  0.001
H  H7  1  0.76823767  0.80861144  0.01840201  1  0.124168  0.001936  0.123058  0.099523  0.000508  0.97767  0.001
H  H8  1  0.65588308  0.14859383  0.47362230  1  0.137065  0.00089  0.111493  0.114672  0.000373  1.02982  0.001
H  H9  1  0.15588036  0.35140802  0.97362363  1  0.136648  0.00089  0.111501  0.114723  0.000373  1.02976  0.001
H  H10  1  0.34412344  0.85140656  0.52638273  1  0.137047  0.00089  0.111497  0.114636  0.000373  1.02978  0.001
H  H11  1  0.84410976  0.64859026  0.02637164  1  0.137115  0.00089  0.111505  0.114738  0.000373  1.029742  0.001
H  H12  1  0.50409974  0.23539715  0.68383412  1  0.081906  0.001088  0.114709  0.126263  0.000466  0.980395  0.001
H  H13  1  0.00409882  0.26460642  0.18383537  1  0.08186  0.001087  0.114685  0.126246  0.000466  0.980402  0.001
H  H14  1  0.49589964  0.76460465  0.31616551  1  0.08192  0.001088  0.114694  0.126248  0.000466  0.980328  0.001
H  H15  1  0.99590413  0.73539679  0.81616728  1  0.081873  0.001087  0.1147  0.126262  0.000466  0.980414  0.001
H  H16  1  0.58000780  0.39310167  0.67801908  1  0.099665  0.001942  0.116689  0.084688  0.000501  1.010916  0.001
H  H17  1  0.08000604  0.10690264  0.17801814  1  0.099708  0.001941  0.116676  0.084682  0.000501  1.011006  0.001
H  H18  1  0.41999448  0.60690013  0.32198739  1  0.099298  0.00194  0.116673  0.084735  0.000501  1.011011  0.001
H  H19  1  0.91999473  0.89309987  0.82197972  1  0.09964  0.001941  0.116655  0.084706  0.000501  1.010938  0.001
H  H20  1  0.42962220  0.06108320  0.66667916  1  0.078751  -0.000246  0.099879  0.146588  -0.000202  1.017613  0.0
H  H21  1  0.92962371  0.43892058  0.16667861  1  0.078858  -0.000246  0.099883  0.146605  -0.000202  1.017586  0.0
H  H22  1  0.57037930  0.93891578  0.33332073  1  0.078698  -0.000246  0.099883  0.146573  -0.000202  1.017648  0.0
H  H23  1  0.07037992  0.56108544  0.83332090  1  0.07871  -0.000246  0.099894  0.146614  -0.000202  1.017557  0.0
H  H24  1  0.54922532  0.06931293  0.71797138  1  0.07978  2.6e-05  0.092475  0.143884  -4.1e-05  1.014953  0.0
H  H25  1  0.04922735  0.43069352  0.21797184  1  0.079468  2.6e-05  0.092492  0.143944  -4.1e-05  1.014884  0.0
H  H26  1  0.45077618  0.93068817  0.28202721  1  0.079613  2.6e-05  0.092505  0.143923  -4.1e-05  1.014841  0.0
H  H27  1  0.95077556  0.56931322  0.78202627  1  0.079736  2.6e-05  0.09249  0.143911  -4.1e-05  1.014878  0.0
H  H28  1  0.50668170  0.96611681  0.65710885  1  0.080075  -3.2e-05  0.101564  0.15248  -4.5e-05  1.005078  0.0
H  H29  1  0.00667988  0.53388630  0.15710654  1  0.07998  -3.2e-05  0.101532  0.152462  -4.5e-05  1.005164  0.0
H  H30  1  0.49332408  0.03388076  0.34289286  1  0.080111  -3.2e-05  0.101556  0.152546  -4.5e-05  1.005093  0.0
H  H31  1  0.99332088  0.46611621  0.84289003  1  0.080107  -3.2e-05  0.101518  0.152454  -4.5e-05  1.005074  0.0
H  H32  1  0.85587073  0.53479069  0.44631619  1  0.161789  0.001237  0.114815  0.091362  0.000119  1.029402  0.001
H  H33  1  0.35586740  0.96520166  0.94631949  1  0.161811  0.001237  0.114803  0.091342  0.000119  1.029439  0.001
H  H34  1  0.14413219  0.46519913  0.55368388  1  0.161811  0.001237  0.114815  0.091363  0.000119  1.029441  0.001
H  H35  1  0.64412988  0.03479873  0.05368313  1  0.161786  0.001237  0.114797  0.091373  0.000119  1.029378  0.001
H  H36  1  0.83612287  0.53705164  0.28470792  1  0.099421  0.000682  0.112251  0.125609  0.000302  1.018134  0.0
H  H37  1  0.33612450  0.96293629  0.78471117  1  0.099411  0.000682  0.112267  0.125614  0.000301  1.01806  0.0
H  H38  1  0.16387650  0.46294452  0.71529107  1  0.099389  0.000682  0.112245  0.125576  0.000302  1.018175  0.0
H  H39  1  0.66387635  0.03705423  0.21529383  1  0.099383  0.000682  0.112242  0.125575  0.000301  1.01818  0.0
H  H40  1  0.53916815  0.46974585  0.28720779  1  0.098533  0.000785  0.104595  0.110549  0.000379  1.022603  0.0
H  H41  1  0.03917012  0.03025996  0.78720356  1  0.098543  0.000785  0.104586  0.110507  0.000379  1.022589  0.0
H  H42  1  0.46083197  0.53025595  0.71279582  1  0.098488  0.000785  0.104606  0.110601  0.000379  1.022569  0.0
H  H43  1  0.96083416  0.96974396  0.21278954  1  0.098557  0.000785  0.104583  0.110529  0.000379  1.022593  0.0
H  H44  1  0.57174835  0.46703467  0.44713245  1  0.142093  0.001785  0.111293  0.083461  0.000537  1.05786  0.001
H  H45  1  0.07174963  0.03297979  0.94713072  1  0.142078  0.001785  0.111293  0.083484  0.000537  1.057721  0.001
H  H46  1  0.42825105  0.53296854  0.55286978  1  0.142127  0.001785  0.111294  0.083458  0.000537  1.057803  0.001
H  H47  1  0.92825323  0.96703751  0.05286220  1  0.142005  0.001785  0.111301  0.083439  0.000537  1.057888  0.001
H  H48  1  0.57563007  0.53913846  0.05980706  1  0.042883  -3.4e-05  0.101389  0.142288  -6e-05  1.006852  0.0
H  H49  1  0.07563095  0.96086530  0.55980569  1  0.043012  -3.4e-05  0.101413  0.142315  -6e-05  1.006885  0.0
H  H50  1  0.42437074  0.46086828  0.94019404  1  0.043064  -3.4e-05  0.101344  0.14222  -6e-05  1.006893  0.0
H  H51  1  0.92436771  0.03913087  0.44019321  1  0.042804  -3.4e-05  0.101381  0.14228  -6e-05  1.006889  0.0
H  H52  1  0.52288383  0.54609637  0.15866454  1  0.016914  6.9e-05  0.096159  0.138881  2.6e-05  0.999241  0.0
H  H53  1  0.02288114  0.95390746  0.65866143  1  0.016944  6.8e-05  0.096164  0.138938  2.6e-05  0.999174  0.0
H  H54  1  0.47711631  0.45390896  0.84134102  1  0.017002  6.9e-05  0.096181  0.138956  2.6e-05  0.999173  0.0
H  H55  1  0.97711754  0.04608589  0.34133942  1  0.017427  6.8e-05  0.09622  0.13898  2.6e-05  0.999149  0.0
H  H56  1  0.54202180  0.43512338  0.11094757  1  0.066248  6.7e-05  0.10498  0.151413  4.4e-05  0.9703  0.0
H  H57  1  0.04202667  0.06488224  0.61094760  1  0.06605  6.7e-05  0.104971  0.151408  4.4e-05  0.970271  0.0
H  H58  1  0.45797687  0.56488124  0.88905328  1  0.066164  6.7e-05  0.104981  0.151434  4.4e-05  0.970293  0.0
H  H59  1  0.95797555  0.93511393  0.38905367  1  0.066161  6.7e-05  0.105017  0.151503  4.4e-05  0.970291  0.0
H  H60  1  0.70488911  0.60742818  0.74805205  1  0.0636  0.001263  0.115804  0.087052  0.000184  1.004105  0.001
H  H61  1  0.20488615  0.89256598  0.24805252  1  0.063707  0.001262  0.115787  0.087055  0.000184  1.004  0.001
H  H62  1  0.29511808  0.39257644  0.25194853  1  0.06337  0.001262  0.115833  0.087072  0.000184  1.004077  0.001
H  H63  1  0.79511250  0.10742877  0.75194508  1  0.063357  0.001262  0.115821  0.087063  0.000184  1.004109  0.001
H  H64  1  0.70454898  0.58607271  0.90818011  1  0.103131  0.000676  0.107684  0.109258  0.000312  1.026477  0.0
H  H65  1  0.20454747  0.91391810  0.40818143  1  0.103668  0.000676  0.107659  0.10919  0.000312  1.02659  0.0
H  H66  1  0.29545609  0.41393262  0.09182215  1  0.103257  0.000676  0.107626  0.109185  0.000312  1.026553  0.0
H  H67  1  0.79545191  0.08607806  0.59181820  1  0.103092  0.000676  0.107675  0.109198  0.000312  1.026605  0.0
H  H68  1  0.81273448  0.30473932  0.87963691  1  0.118531  0.00096  0.104516  0.111836  0.000618  1.074821  0.0
H  H69  1  0.31273350  0.19525547  0.37963614  1  0.118657  0.00096  0.104535  0.111852  0.000618  1.074741  0.0
H  H70  1  0.18725997  0.69526318  0.12036666  1  0.118406  0.000961  0.104494  0.111757  0.000618  1.074903  0.0
H  H71  1  0.68726657  0.80474211  0.62036228  1  0.118576  0.00096  0.104529  0.111849  0.000618  1.074831  0.0
H  H72  1  0.80462210  0.33653196  0.72122156  1  0.109922  0.001394  0.116998  0.090906  0.000251  0.995913  0.001
H  H73  1  0.30462182  0.16345984  0.22122214  1  0.110033  0.001394  0.117017  0.090899  0.000251  0.995955  0.001
H  H74  1  0.19537518  0.66346632  0.27878171  1  0.109863  0.001395  0.117009  0.09089  0.000251  0.996015  0.001
H  H75  1  0.69537753  0.83653633  0.77877554  1  0.110044  0.001395  0.117002  0.090869  0.000251  0.995921  0.001
H  H76  1  0.79801497  0.33599825  0.11335666  1  0.012526  -3.8e-05  0.097756  0.137389  -6.2e-05  1.012345  0.0
H  H77  1  0.29801424  0.16399765  0.61335740  1  0.012598  -3.8e-05  0.097731  0.137348  -6.2e-05  1.012362  0.0
H  H78  1  0.20197946  0.66400214  0.88664497  1  0.012507  -3.8e-05  0.097738  0.137375  -6.2e-05  1.012413  0.0
H  H79  1  0.70198797  0.83599640  0.38664192  1  0.012573  -3.8e-05  0.097767  0.137395  -6.2e-05  1.012351  0.0
H  H80  1  0.85405582  0.30684491  0.01959007  1  0.079874  5.6e-05  0.097876  0.144658  1.1e-05  1.024221  0.0
H  H81  1  0.35405508  0.19314952  0.51958760  1  0.079902  5.6e-05  0.097881  0.144675  1.1e-05  1.024192  0.0
H  H82  1  0.14593720  0.69315407  0.98041203  1  0.079717  5.6e-05  0.097932  0.144786  1.1e-05  1.024063  0.0
H  H83  1  0.64594641  0.80684524  0.48041035  1  0.0799  5.6e-05  0.097889  0.144692  1.1e-05  1.024209  0.0
H  H84  1  0.73382131  0.27923463  0.02036500  1  0.094599  0.000103  0.106133  0.162254  2.9e-05  0.967947  0.0
H  H85  1  0.23382202  0.22075903  0.52036273  1  0.094582  0.000103  0.106093  0.162189  2.9e-05  0.967862  0.0
H  H86  1  0.26616956  0.72076576  0.97963555  1  0.094541  0.000103  0.106084  0.162134  2.9e-05  0.96793  0.0
H  H87  1  0.76618162  0.77923643  0.47963742  1  0.09447  0.000103  0.10615  0.162291  2.9e-05  0.967919  0.0
C  C88  1  0.67956410  0.28961286  0.52395758  1  0.501568  -0.001873  0.050745  0.099426  -0.002438  3.921163  -0.001
C  C89  1  0.17956315  0.21039064  0.02395943  1  0.501557  -0.001873  0.05067  0.099353  -0.002437  3.921091  -0.001
C  C90  1  0.32044316  0.71038824  0.47605079  1  0.50163  -0.001873  0.050688  0.099383  -0.002438  3.921221  -0.001
C  C91  1  0.82043265  0.78960976  0.97603718  1  0.501748  -0.001873  0.050671  0.099275  -0.002437  3.921102  -0.001
C  C92  1  0.63803195  0.20117775  0.52006675  1  -0.049109  0.003635  -0.070878  -0.142443  0.001886  3.930935  0.003
C  C93  1  0.13802893  0.29882571  0.02006778  1  -0.048932  0.003635  -0.070954  -0.142615  0.001886  3.930896  0.003
C  C94  1  0.36197526  0.79882335  0.47993642  1  -0.049352  0.003636  -0.07092  -0.142458  0.001886  3.930831  0.003
C  C95  1  0.86196544  0.70117538  0.97992801  1  -0.049214  0.003635  -0.070939  -0.142551  0.001886  3.93094  0.003
C  C96  1  0.57430670  0.17857437  0.57867417  1  -0.040577  -0.004156  0.015559  0.071015  -0.004413  3.970042  -0.003
C  C97  1  0.07430370  0.32142983  0.07867457  1  -0.041125  -0.004156  0.015671  0.071166  -0.004413  3.970156  -0.003
C  C98  1  0.42569622  0.82142673  0.42132589  1  -0.040591  -0.004156  0.015568  0.071075  -0.004414  3.970134  -0.003
C  C99  1  0.92569143  0.67857056  0.92132519  1  -0.041101  -0.004156  0.015633  0.071134  -0.004413  3.970179  -0.003
C  C100  1  0.55355155  0.24851810  0.63728886  1  -0.040009  0.003694  -0.079862  -0.163866  0.00182  3.937841  0.003
C  C101  1  0.05355205  0.25148826  0.13729026  1  -0.039452  0.003694  -0.079801  -0.163802  0.00182  3.937701  0.003
C  C102  1  0.44645071  0.75148300  0.36271566  1  -0.040326  0.003695  -0.079843  -0.163828  0.00182  3.937668  0.003
C  C103  1  0.94644805  0.74851495  0.86271010  1  -0.039424  0.003694  -0.079897  -0.163924  0.00182  3.937679  0.003
C  C104  1  0.59595431  0.33641348  0.63476779  1  0.49536  -0.001361  0.04618  0.091457  -0.002192  3.959355  0.0
C  C105  1  0.09595334  0.16358797  0.13477089  1  0.495479  -0.001362  0.046164  0.091388  -0.002193  3.959284  0.0
C  C106  1  0.40404790  0.66358127  0.36523154  1  0.495132  -0.001359  0.046188  0.091368  -0.002194  3.959238  0.0
C  C107  1  0.90404604  0.83641454  0.86522939  1  0.495338  -0.001362  0.046222  0.091427  -0.002192  3.959306  0.0
C  C108  1  0.53114033  0.08409525  0.57745643  1  0.646003  -0.002464  0.152252  0.263971  -0.00262  3.906112  -0.001
C  C109  1  0.03113951  0.41590540  0.07745719  1  0.646127  -0.002463  0.152302  0.264004  -0.00262  3.906089  -0.001
C  C110  1  0.46886047  0.91590514  0.42254337  1  0.646063  -0.002463  0.152248  0.263908  -0.002619  3.906042  -0.001
C  C111  1  0.96885913  0.58409429  0.92254041  1  0.646011  -0.002464  0.152267  0.263885  -0.00262  3.906114  -0.001
C  C112  1  0.50358389  0.04313367  0.65977138  1  -0.098171  -1.7e-05  -0.242671  -0.467796  -0.000105  3.932238  0.0
C  C113  1  0.00358309  0.45687269  0.15977022  1  -0.097998  -1.7e-05  -0.242688  -0.467866  -0.000104  3.932252  0.0
C  C114  1  0.49642046  0.95686884  0.34022951  1  -0.098012  -1.7e-05  -0.242735  -0.467891  -0.000104  3.93222  0.0
C  C115  1  0.99641697  0.54313334  0.84022625  1  -0.09817  -1.7e-05  -0.242658  -0.467779  -0.000104  3.932126  0.0
C  C116  1  0.78689327  0.51997654  0.40871237  1  0.352291  -0.00821  0.042245  0.098997  -0.008608  3.928916  -0.005
C  C117  1  0.28689134  0.98001995  0.90871261  1  0.352314  -0.00821  0.042167  0.098911  -0.008607  3.929005  -0.005
C  C118  1  0.21310823  0.48001821  0.59128752  1  0.352385  -0.008211  0.042204  0.098913  -0.008608  3.928948  -0.005
C  C119  1  0.71310802  0.01998044  0.09128572  1  0.35229  -0.008209  0.042188  0.098936  -0.008607  3.929039  -0.005
C  C120  1  0.77527485  0.52196768  0.31802413  1  0.055225  0.005676  -0.081347  -0.159672  0.002808  3.930328  0.005
C  C121  1  0.27527363  0.97802660  0.81802510  1  0.055262  0.005675  -0.081283  -0.159657  0.002808  3.930204  0.005
C  C122  1  0.22472596  0.47803060  0.68197762  1  0.055218  0.005675  -0.0813  -0.15953  0.002808  3.930344  0.005
C  C123  1  0.72472432  0.02196675  0.18197436  1  0.055384  0.005675  -0.081329  -0.159624  0.002807  3.930461  0.005
C  C124  1  0.68531782  0.50401596  0.27032823  1  0.021306  -0.012743  0.004174  0.058929  -0.013355  4.005825  -0.008
C  C125  1  0.18531730  0.99598033  0.77032736  1  0.021208  -0.012742  0.004091  0.058798  -0.013354  4.006  -0.008
C  C126  1  0.31468016  0.49598654  0.72967318  1  0.021259  -0.01274  0.004185  0.058854  -0.013352  4.006087  -0.008
C  C127  1  0.81468132  0.00401020  0.22966764  1  0.021188  -0.012741  0.004215  0.058924  -0.013352  4.005889  -0.008
C  C128  1  0.61084149  0.48537662  0.31867275  1  -0.095835  0.005415  -0.089699  -0.169862  0.002511  3.953064  0.004
C  C129  1  0.11084559  0.01462504  0.81867005  1  -0.095737  0.005414  -0.089635  -0.169712  0.00251  3.95314  0.004
C  C130  1  0.38915651  0.51462307  0.68133191  1  -0.095751  0.005415  -0.089658  -0.169842  0.002511  3.953097  0.004
C  C131  1  0.88915870  0.98537465  0.18132499  1  -0.095779  0.005415  -0.089714  -0.169887  0.00251  3.953224  0.004
C  C132  1  0.62876809  0.48327487  0.40945914  1  0.493109  -0.009712  0.035576  0.08638  -0.010227  3.963066  -0.006
C  C133  1  0.12876793  0.01673183  0.90945528  1  0.493158  -0.009712  0.035475  0.086227  -0.010227  3.962818  -0.006
C  C134  1  0.37123275  0.51672341  0.59054521  1  0.49309  -0.009711  0.035504  0.08631  -0.010226  3.962981  -0.006
C  C135  1  0.87123354  0.98327772  0.09054007  1  0.493052  -0.009709  0.035599  0.086564  -0.010224  3.963044  -0.006
C  C136  1  0.67010739  0.50197892  0.17406391  1  0.616646  0.000193  0.139244  0.228607  -0.0005  3.940923  0.001
C  C137  1  0.17010970  0.99801655  0.67406209  1  0.616408  0.000192  0.13928  0.228679  -0.0005  3.940994  0.001
C  C138  1  0.32989132  0.49802288  0.82593953  1  0.616313  0.000192  0.139244  0.228611  -0.000501  3.940931  0.001
C  C139  1  0.82989320  0.00197398  0.32593538  1  0.616411  0.000193  0.139292  0.228643  -0.0005  3.940825  0.001
C  C140  1  0.57188228  0.50620926  0.12370436  1  -0.028099  -0.000277  -0.233398  -0.443699  -0.00027  3.946149  0.0
C  C141  1  0.07188176  0.99379245  0.62370284  1  -0.027668  -0.000277  -0.233439  -0.443821  -0.00027  3.946126  0.0
C  C142  1  0.42811710  0.49379466  0.87629527  1  -0.027863  -0.000276  -0.233422  -0.443761  -0.00027  3.946218  0.0
C  C143  1  0.92811761  0.00620090  0.37629614  1  -0.027968  -0.000277  -0.233543  -0.443943  -0.00027  3.946178  0.0
C  C144  1  0.72665664  0.54079116  0.77973219  1  0.516881  -0.008535  0.034495  0.078944  -0.008846  3.970144  -0.005
C  C145  1  0.22665232  0.95920094  0.27973386  1  0.51652  -0.008533  0.034407  0.078825  -0.008845  3.970011  -0.005
C  C146  1  0.27335055  0.45921205  0.22026839  1  0.517144  -0.008536  0.034407  0.078834  -0.008847  3.970027  -0.005
C  C147  1  0.77334563  0.04079664  0.72026431  1  0.517039  -0.008536  0.034376  0.078781  -0.008847  3.97009  -0.005
C  C148  1  0.72737115  0.52899418  0.86887747  1  -0.07735  0.005703  -0.08374  -0.164398  0.002734  3.974241  0.005
C  C149  1  0.22736896  0.97100013  0.36887875  1  -0.078117  0.005703  -0.083689  -0.164282  0.002734  3.974411  0.005
C  C150  1  0.27263317  0.47101326  0.13112017  1  -0.077981  0.005703  -0.083613  -0.164198  0.002734  3.974194  0.005
C  C151  1  0.77262897  0.02899604  0.63111811  1  -0.077623  0.005704  -0.083625  -0.164147  0.002735  3.974169  0.005
C  C152  1  0.75852803  0.44310904  0.90859516  1  -0.01431  -0.014481  0.007842  0.065375  -0.015117  3.972067  -0.009
C  C153  1  0.25852554  0.05688434  0.40859473  1  -0.014191  -0.014479  0.007886  0.065382  -0.015114  3.97208  -0.009
C  C154  1  0.24147067  0.55689346  0.09140764  1  -0.013771  -0.014476  0.007812  0.06531  -0.015112  3.97223  -0.009
C  C155  1  0.74147098  0.94311253  0.59140197  1  -0.014125  -0.014481  0.007846  0.065318  -0.015117  3.972118  -0.009
C  C156  1  0.78716795  0.37283063  0.85399112  1  -0.018318  0.005699  -0.0813  -0.150692  0.0026  3.914221  0.005
C  C157  1  0.28716553  0.12716341  0.35399271  1  -0.018401  0.005698  -0.081354  -0.150698  0.002599  3.914056  0.005
C  C158  1  0.21283075  0.62717117  0.14601167  1  -0.018243  0.005698  -0.081236  -0.150532  0.002599  3.914429  0.005
C  C159  1  0.71283314  0.87283416  0.64600684  1  -0.018372  0.005699  -0.08134  -0.150693  0.002599  3.914143  0.005
C  C160  1  0.78305177  0.39017348  0.76498259  1  0.451567  -0.011647  0.042158  0.091039  -0.012237  3.946888  -0.007
C  C161  1  0.28304862  0.10982047  0.26498342  1  0.451658  -0.011646  0.042145  0.090996  -0.012236  3.946793  -0.007
C  C162  1  0.21695261  0.60982903  0.23502154  1  0.451529  -0.011644  0.042128  0.091003  -0.012233  3.947035  -0.007
C  C163  1  0.71694862  0.89017781  0.73501530  1  0.45162  -0.011647  0.042227  0.091102  -0.012237  3.946662  -0.007
C  C164  1  0.76108752  0.42712694  0.00317264  1  0.645801  0.000492  0.142808  0.235552  -0.000349  3.938005  0.001
C  C165  1  0.26108743  0.07286812  0.50317338  1  0.645938  0.000492  0.142672  0.235278  -0.000349  3.938252  0.001
C  C166  1  0.23890977  0.57287627  0.99683063  1  0.64654  0.000492  0.142846  0.235543  -0.000349  3.937794  0.001
C  C167  1  0.73891193  0.92712734  0.49682430  1  0.645509  0.000493  0.142693  0.23535  -0.000349  3.938064  0.001
C  C168  1  0.78850308  0.33239280  0.04173053  1  -0.060462  -0.000225  -0.236887  -0.451247  -0.000217  3.927791  0.0
C  C169  1  0.28850377  0.16760232  0.54173015  1  -0.060751  -0.000224  -0.23682  -0.451127  -0.000217  3.927681  0.0
C  C170  1  0.21148849  0.66760759  0.95826946  1  -0.060333  -0.000224  -0.236859  -0.451191  -0.000217  3.927618  0.0
C  C171  1  0.71149844  0.83239173  0.45826918  1  -0.060408  -0.000224  -0.236893  -0.451279  -0.000217  3.927807  0.0
N  N172  1  0.65934780  0.35672623  0.58040353  1  -1.209914  0.074013  -0.325093  -0.227356  0.040888  3.575436  0.061
N  N173  1  0.15934680  0.14327520  0.08040530  1  -1.209954  0.07401  -0.325061  -0.227261  0.040887  3.575298  0.061
N  N174  1  0.34065376  0.64327416  0.41960156  1  -1.208793  0.074008  -0.324971  -0.227227  0.04089  3.57534  0.061
N  N175  1  0.84065043  0.85672520  0.91959277  1  -1.209877  0.074007  -0.325043  -0.227217  0.040885  3.575378  0.061
N  N176  1  0.52080274  0.04377618  0.50074627  1  -0.752301  -0.001124  -0.20806  -0.211776  -0.001184  3.294466  -0.001
N  N177  1  0.02080055  0.45622297  0.00074819  1  -0.77551  -0.001127  -0.208029  -0.211678  -0.001184  3.294408  -0.001
N  N178  1  0.47920159  0.95622351  0.49925267  1  -0.775462  -0.001127  -0.207921  -0.211586  -0.001185  3.29431  -0.001
N  N179  1  0.97919812  0.54377531  0.99925201  1  -0.752268  -0.001124  -0.208036  -0.21174  -0.001185  3.294388  -0.001
N  N180  1  0.71521858  0.49983289  0.45484413  1  -1.227842  0.049408  -0.335925  -0.252402  0.026833  3.617809  0.047
N  N181  1  0.21521772  0.00016968  0.95484276  1  -1.227901  0.049408  -0.335807  -0.25216  0.026833  3.617526  0.047
N  N182  1  0.28478437  0.50016539  0.54515853  1  -1.22786  0.04941  -0.335861  -0.252314  0.026834  3.617763  0.047
N  N183  1  0.78478377  0.99983565  0.04515518  1  -1.227815  0.049406  -0.33587  -0.252467  0.026833  3.617946  0.047
N  N184  1  0.74527971  0.49360693  0.13557916  1  -0.699513  -0.00977  -0.182012  -0.166367  -0.010085  3.418594  -0.007
N  N185  1  0.24527887  0.00638686  0.63557909  1  -0.699679  -0.009767  -0.181965  -0.166403  -0.010081  3.418604  -0.007
N  N186  1  0.25471616  0.50639558  0.86442459  1  -0.700044  -0.009768  -0.181937  -0.166304  -0.010083  3.418533  -0.007
N  N187  1  0.75471836  0.99360649  0.36441833  1  -0.699772  -0.009768  -0.182047  -0.166417  -0.010083  3.418498  -0.007
N  N188  1  0.75289687  0.47236795  0.72701242  1  -1.21021  0.046341  -0.336949  -0.254218  0.025003  3.632204  0.045
N  N189  1  0.25289510  0.02762383  0.22701529  1  -1.210105  0.046342  -0.336876  -0.254079  0.025003  3.631908  0.045
N  N190  1  0.24710606  0.52763386  0.27298764  1  -1.210198  0.046342  -0.336949  -0.254213  0.025003  3.632263  0.045
N  N191  1  0.74710428  0.97237374  0.77298434  1  -1.210099  0.046342  -0.336978  -0.254214  0.025003  3.632089  0.045
N  N192  1  0.73722929  0.49815363  0.04848152  1  -0.773773  -0.010729  -0.181959  -0.168813  -0.011073  3.43811  -0.008
N  N193  1  0.23723055  0.00184006  0.54847976  1  -0.773712  -0.010726  -0.181894  -0.168539  -0.011069  3.438072  -0.008
N  N194  1  0.26277154  0.50184606  0.95152218  1  -0.774002  -0.010728  -0.182102  -0.168933  -0.011071  3.438043  -0.008
N  N195  1  0.76276949  0.99815540  0.45151477  1  -0.77343  -0.01073  -0.181878  -0.168611  -0.011073  3.437861  -0.008
N  N196  1  0.91907360  0.45663996  0.60545694  1  0.826891  -0.010147  0.094403  0.698932  -0.011197  4.403017  -0.01
N  N197  1  0.41906756  0.04336093  0.10545737  1  0.825711  -0.01015  0.094418  0.698934  -0.011198  4.402972  -0.01
N  N198  1  0.08093217  0.54335550  0.39454347  1  0.82594  -0.01015  0.094452  0.698884  -0.011198  4.403011  -0.01
N  N199  1  0.58092827  0.95664298  0.89454183  1  0.826786  -0.010145  0.094378  0.698806  -0.011195  4.403175  -0.01
N  N200  1  0.61626338  0.62912607  0.59020079  1  0.832239  -0.010063  0.092315  0.6856  -0.01117  4.406918  -0.01
N  N201  1  0.11626180  0.87087563  0.09019817  1  0.832209  -0.010067  0.092418  0.685782  -0.011172  4.406552  -0.01
N  N202  1  0.38373600  0.37087151  0.40979949  1  0.832059  -0.010065  0.09236  0.685703  -0.011172  4.406847  -0.01
N  N203  1  0.88373471  0.12912758  0.90979788  1  0.832183  -0.010062  0.09228  0.685717  -0.01117  4.407059  -0.01
O  O204  1  0.85872721  0.38971471  0.58540634  1  -0.563851  0.086367  -0.193037  -0.453881  0.045789  2.029386  0.077
O  O205  1  0.35872408  0.11028824  0.08541043  1  -0.562769  0.086361  -0.193079  -0.453879  0.045785  2.029448  0.077
O  O206  1  0.14127427  0.61028498  0.41459030  1  -0.562861  0.086361  -0.193034  -0.453863  0.045787  2.029426  0.077
O  O207  1  0.64126966  0.88971849  0.91459436  1  -0.563786  0.086353  -0.193018  -0.453841  0.045782  2.029508  0.077
O  O208  1  0.88234494  0.53905710  0.60991197  1  -0.532525  0.087806  -0.183358  -0.419384  0.046727  1.996127  0.078
O  O209  1  0.38234132  0.96094406  0.10991243  1  -0.532512  0.087798  -0.183378  -0.419425  0.046724  1.996172  0.078
O  O210  1  0.11766371  0.46093765  0.39009267  1  -0.532737  0.087807  -0.183413  -0.419416  0.046729  1.996141  0.078
O  O211  1  0.61765518  0.03905775  0.89008297  1  -0.532584  0.087801  -0.183369  -0.419335  0.046725  1.996129  0.078
O  O212  1  0.00543186  0.44241677  0.61990261  1  -0.477714  0.011976  -0.158013  -0.384311  0.004529  1.948415  0.011
O  O213  1  0.50543099  0.05758462  0.11990271  1  -0.477628  0.011975  -0.15799  -0.384286  0.004528  1.948264  0.011
O  O214  1  0.99457105  0.55757517  0.38009615  1  -0.477527  0.011974  -0.158037  -0.384267  0.004528  1.948287  0.011
O  O215  1  0.49456694  0.94242070  0.88009415  1  -0.477651  0.011979  -0.158006  -0.384271  0.00453  1.948389  0.011
O  O216  1  0.70611196  0.64087944  0.59211858  1  -0.540008  0.075773  -0.170576  -0.41067  0.040167  2.014768  0.067
O  O217  1  0.20611036  0.85912231  0.09211529  1  -0.540107  0.075779  -0.170514  -0.410654  0.040166  2.014786  0.067
O  O218  1  0.29388671  0.35911955  0.40788162  1  -0.54017  0.075778  -0.170577  -0.410699  0.040165  2.014742  0.067
O  O219  1  0.79388684  0.14087949  0.90787954  1  -0.540021  0.075769  -0.170555  -0.410684  0.040166  2.014888  0.067
O  O220  1  0.58965631  0.54300345  0.59581744  1  -0.572125  0.07669  -0.171499  -0.430492  0.040787  2.099385  0.069
O  O221  1  0.08965479  0.95699964  0.09581555  1  -0.572102  0.076694  -0.171531  -0.430508  0.040788  2.099254  0.069
O  O222  1  0.41034521  0.45699624  0.40418375  1  -0.5721  0.076696  -0.171504  -0.430482  0.040789  2.099343  0.069
O  O223  1  0.91034314  0.04300427  0.90418131  1  -0.572095  0.076691  -0.171509  -0.430575  0.040788  2.099475  0.069
O  O224  1  0.55930244  0.69562499  0.58376962  1  -0.485539  0.008281  -0.155605  -0.381057  0.002256  1.924826  0.008
O  O225  1  0.05929869  0.80437596  0.08376732  1  -0.485543  0.008277  -0.155717  -0.381231  0.002254  1.924616  0.008
O  O226  1  0.44069693  0.30437258  0.41622937  1  -0.485433  0.008277  -0.155639  -0.381126  0.002254  1.924798  0.008
O  O227  1  0.94069498  0.19562655  0.91622838  1  -0.485524  0.008279  -0.15558  -0.381092  0.002255  1.924837  0.008
