# generated using pymatgen
data_CdH15C15(NO2)2
_symmetry_space_group_name_H-M   'P 1'
_cell_length_a   9.40209795
_cell_length_b   12.02337823
_cell_length_c   13.34930000
_cell_angle_alpha   90.00000000
_cell_angle_beta   91.93594855
_cell_angle_gamma   90.00000000
_symmetry_Int_Tables_number   1
_chemical_formula_structural   CdH15C15(NO2)2
_chemical_formula_sum   'Cd4 H60 C60 N8 O16'
_cell_volume   1508.20999612
_cell_formula_units_Z   4
loop_
 _symmetry_equiv_pos_site_id
 _symmetry_equiv_pos_as_xyz
  1  'x, y, z'
loop_
 _atom_site_type_symbol
 _atom_site_label
 _atom_site_symmetry_multiplicity
 _atom_site_fract_x
 _atom_site_fract_y
 _atom_site_fract_z
 _atom_site_occupancy
 _atom_site_hle17_bader_spin_density
 _atom_site_hle17_ddec_charge
 _atom_site_hle17_ddec_spin_density
 _atom_site_hle17_ddec_sum_bond_order
 _atom_site_hle17_magmom
 _atom_site_hse06_10hf_bader_spin_density
 _atom_site_hse06_10hf_ddec_charge
 _atom_site_hse06_10hf_ddec_spin_density
 _atom_site_hse06_10hf_ddec_sum_bond_order
 _atom_site_hse06_10hf_magmom
 _atom_site_hse06_bader_spin_density
 _atom_site_hse06_ddec_charge
 _atom_site_hse06_ddec_spin_density
 _atom_site_hse06_ddec_sum_bond_order
 _atom_site_hse06_magmom
 _atom_site_pbe_bader_charge
 _atom_site_pbe_bader_spin_density
 _atom_site_pbe_cm5_charge
 _atom_site_pbe_ddec_charge
 _atom_site_pbe_ddec_spin_density
 _atom_site_pbe_ddec_sum_bond_order
 _atom_site_pbe_magmom
Cd  Cd0  1  0.13678693  0.56375503  0.56135054  1  0  1.200748  0  1.69315  0  0  1.022984  0  2.140424  0  0  1.080829  0  2.082892  0  1.303415  0  0.793218  0.981947  0  2.179309  0
Cd  Cd1  1  0.36321247  0.06375579  0.93864884  1  0  1.200776  0  1.693116  0  0  1.023022  0  2.140393  0  0  1.080867  0  2.082859  0  1.303441  0  0.793231  0.981986  0  2.179278  0
Cd  Cd2  1  0.86321186  0.43624428  0.43864973  1  0  1.200727  0  1.693082  0  0  1.022985  0  2.140348  0  0  1.08083  0  2.082816  0  1.303493  0  0.793223  0.981948  0  2.179232  0
Cd  Cd3  1  0.63678845  0.93624352  0.06135148  1  0  1.200773  0  1.693118  0  0  1.023022  0  2.140395  0  0  1.080867  0  2.08286  0  1.303505  0  0.793227  0.981985  0  2.17928  0
H  H4  1  0.32054870  0.75165480  0.25832246  1  0  0.10242  0  0.953471  0  0  0.110315  0  1.020829  0  0  0.114486  0  1.017015  0  0.085464  0  0.103208  0.107092  0  1.024043  0
H  H5  1  0.17944963  0.25165473  0.24167765  1  0  0.102402  0  0.953478  0  0  0.110303  0  1.020838  0  0  0.114474  0  1.017025  0  0.085446  0  0.103198  0.107078  0  1.02405  0
H  H6  1  0.67945116  0.24834202  0.74167634  1  0  0.102386  0  0.953491  0  0  0.110291  0  1.020833  0  0  0.114461  0  1.017019  0  0.085085  0  0.103198  0.107067  0  1.024047  0
H  H7  1  0.82054703  0.74834542  0.75832331  1  0  0.102431  0  0.953471  0  0  0.110318  0  1.020838  0  0  0.114489  0  1.017024  0  0.085148  0  0.103202  0.107094  0  1.024052  0
H  H8  1  0.07804416  0.75732625  0.97932017  1  0  0.101918  0  0.951449  0  0  0.113951  0  1.011772  0  0  0.117055  0  1.009962  0  0.111112  0  0.10467  0.111643  0  1.013103  0
H  H9  1  0.42195523  0.25732618  0.52067997  1  0  0.102003  0  0.951599  0  0  0.114037  0  1.011894  0  0  0.117139  0  1.010087  0  0.111065  0  0.104727  0.111728  0  1.013225  0
H  H10  1  0.92195463  0.24267306  0.02068010  1  0  0.101995  0  0.951514  0  0  0.114024  0  1.011828  0  0  0.117127  0  1.01002  0  0.11103  0  0.104717  0.111716  0  1.013159  0
H  H11  1  0.57804249  0.74267313  0.47931878  1  0  0.102002  0  0.951452  0  0  0.114043  0  1.011764  0  0  0.117146  0  1.009956  0  0.111069  0  0.104716  0.111735  0  1.013094  0
H  H12  1  0.92925291  0.56820220  0.22867214  1  0  0.100236  0  0.958653  0  0  0.108781  0  1.02522  0  0  0.112167  0  1.023142  0  0.085067  0  0.099951  0.106277  0  1.026911  0
H  H13  1  0.57074527  0.06820379  0.27132826  1  0  0.100245  0  0.958662  0  0  0.108793  0  1.025226  0  0  0.112178  0  1.023149  0  0.085088  0  0.099963  0.106288  0  1.026917  0
H  H14  1  0.07074588  0.43179711  0.77132813  1  0  0.100263  0  0.958646  0  0  0.108807  0  1.025209  0  0  0.112194  0  1.023131  0  0.085085  0  0.099964  0.106303  0  1.026901  0
H  H15  1  0.42925245  0.93179802  0.72867198  1  0  0.100242  0  0.95862  0  0  0.108786  0  1.025191  0  0  0.112171  0  1.023115  0  0.085053  0  0.099957  0.106281  0  1.026883  0
H  H16  1  0.86791030  0.64718084  0.95554068  1  0  0.11487  0  0.948385  0  0  0.136087  0  1.00773  0  0  0.138121  0  1.006535  0  0.057752  0  0.092253  0.134376  0  1.009015  0
H  H17  1  0.63209001  0.14717993  0.54446053  1  0  0.114798  0  0.948414  0  0  0.136065  0  1.007708  0  0  0.1381  0  1.006513  0  0.057746  0  0.092244  0.134354  0  1.00899  0
H  H18  1  0.13208955  0.35282097  0.04446037  1  0  0.11478  0  0.94846  0  0  0.136085  0  1.007708  0  0  0.138119  0  1.006514  0  0.057787  0  0.092235  0.134373  0  1.008993  0
H  H19  1  0.36791091  0.85282021  0.45553904  1  0  0.114786  0  0.948494  0  0  0.13608  0  1.007758  0  0  0.138113  0  1.006564  0  0.057768  0  0.092258  0.134371  0  1.009036  0
H  H20  1  0.76578117  0.64347972  0.06458544  1  0  0.105406  0  0.940484  0  0  0.129067  0  1.000227  0  0  0.130257  0  0.999943  0  0.027726  0  0.091242  0.128502  0  0.9999  0
H  H21  1  0.73421807  0.14347881  0.43541499  1  0  0.105432  0  0.940474  0  0  0.129093  0  1.000227  0  0  0.130279  0  0.999951  0  0.027753  0  0.091251  0.12853  0  0.999894  0
H  H22  1  0.23421761  0.35652210  0.93541483  1  0  0.105442  0  0.940493  0  0  0.129098  0  1.000251  0  0  0.130285  0  0.999973  0  0.027687  0  0.091246  0.128536  0  0.999918  0
H  H23  1  0.26578072  0.85652134  0.56458454  1  0  0.105435  0  0.940466  0  0  0.129085  0  1.000233  0  0  0.130276  0  0.999949  0  0.027747  0  0.091247  0.128523  0  0.999899  0
H  H24  1  0.86198271  0.52339866  0.02959454  1  0  0.101694  0  0.960425  0  0  0.122699  0  1.02409  0  0  0.123406  0  1.025406  0  0.003563  0  0.087993  0.122343  0  1.022866  0
H  H25  1  0.63801547  0.02339858  0.47040512  1  0  0.101694  0  0.960441  0  0  0.122701  0  1.024112  0  0  0.123408  0  1.025427  0  0.003555  0  0.087994  0.122343  0  1.02289  0
H  H26  1  0.13801501  0.47660232  0.97040496  1  0  0.1017  0  0.960408  0  0  0.1227  0  1.024098  0  0  0.123407  0  1.025414  0  0.003538  0  0.087982  0.122346  0  1.02287  0
H  H27  1  0.36198332  0.97660240  0.52959440  1  0  0.101684  0  0.960484  0  0  0.12269  0  1.024153  0  0  0.123397  0  1.02547  0  0.003533  0  0.087984  0.122334  0  1.022926  0
H  H28  1  0.13261207  0.72090887  0.76288650  1  0  0.105013  0  0.958818  0  0  0.11654  0  1.017507  0  0  0.118974  0  1.016131  0  0.105661  0  0.117157  0.114626  0  1.018796  0
H  H29  1  0.36738945  0.22090880  0.73711219  1  0  0.105  0  0.958774  0  0  0.116532  0  1.017464  0  0  0.118964  0  1.016091  0  0.105675  0  0.117158  0.114626  0  1.018745  0
H  H30  1  0.86739097  0.27909377  0.23711312  1  0  0.105011  0  0.958789  0  0  0.116544  0  1.017477  0  0  0.118976  0  1.016104  0  0.105685  0  0.117168  0.114638  0  1.018758  0
H  H31  1  0.63261678  0.77908886  0.26288751  1  0  0.104897  0  0.958919  0  0  0.116481  0  1.017532  0  0  0.118922  0  1.016149  0  0.105687  0  0.117156  0.11457  0  1.018818  0
H  H32  1  0.34835624  0.72800754  0.91107596  1  0  0.123252  0  0.970455  0  0  0.132089  0  1.032431  0  0  0.13451  0  1.031559  0  0.133807  0  0.123743  0.130272  0  1.033248  0
H  H33  1  0.15164422  0.22800830  0.58892195  1  0  0.123117  0  0.970498  0  0  0.132029  0  1.032404  0  0  0.134449  0  1.031533  0  0.133815  0  0.123703  0.130212  0  1.03322  0
H  H34  1  0.65164574  0.27199261  0.08892214  1  0  0.123192  0  0.970414  0  0  0.132058  0  1.032366  0  0  0.13448  0  1.031493  0  0.133823  0  0.123717  0.130242  0  1.033183  0
H  H35  1  0.84836308  0.77198935  0.41107552  1  0  0.12318  0  0.970436  0  0  0.132064  0  1.032363  0  0  0.134485  0  1.031491  0  0.133905  0  0.123732  0.130248  0  1.03318  0
H  H36  1  0.41691838  0.44108735  0.60736692  1  0  0.150746  0  0.954598  0  0  0.170055  0  1.012967  0  0  0.172833  0  1.010964  0  0.102095  0  0.105084  0.168022  0  1.014395  0
H  H37  1  0.08307889  0.94108992  0.89263391  1  0  0.150731  0  0.954502  0  0  0.170051  0  1.012867  0  0  0.172828  0  1.010864  0  0.102117  0  0.105055  0.168017  0  1.014296  0
H  H38  1  0.58307935  0.55891114  0.39263332  1  0  0.150732  0  0.954594  0  0  0.170048  0  1.012954  0  0  0.172826  0  1.010952  0  0.102112  0  0.105057  0.168015  0  1.014382  0
H  H39  1  0.91692096  0.05891190  0.10736788  1  0  0.150692  0  0.954542  0  0  0.170006  0  1.012915  0  0  0.172784  0  1.010914  0  0.102131  0  0.105041  0.167973  0  1.014344  0
H  H40  1  0.50668683  0.39823167  0.72072213  1  0  0.125446  0  0.948324  0  0  0.144488  0  1.012529  0  0  0.146473  0  1.011502  0  0.054678  0  0.098173  0.143043  0  1.013353  0
H  H41  1  0.99330923  0.89823341  0.77927823  1  0  0.125484  0  0.948327  0  0  0.144526  0  1.012528  0  0  0.146513  0  1.011499  0  0.054717  0  0.098192  0.143082  0  1.013349  0
H  H42  1  0.49331090  0.60176764  0.27927812  1  0  0.125468  0  0.948328  0  0  0.144506  0  1.012533  0  0  0.146493  0  1.011506  0  0.054673  0  0.098169  0.143061  0  1.013356  0
H  H43  1  0.00669169  0.10176923  0.22072284  1  0  0.125424  0  0.948359  0  0  0.144466  0  1.012567  0  0  0.146453  0  1.011539  0  0.05467  0  0.098177  0.14302  0  1.013391  0
H  H44  1  0.57798502  0.50618968  0.64775096  1  0  0.143221  0  0.936153  0  0  0.160297  0  0.998325  0  0  0.162308  0  0.998321  0  0.077824  0  0.10187  0.158887  0  0.998221  0
H  H45  1  0.92201316  0.00619294  0.85224944  1  0  0.143229  0  0.936285  0  0  0.160321  0  0.998438  0  0  0.162333  0  0.998435  0  0.077772  0  0.101861  0.15891  0  0.998334  0
H  H46  1  0.42201377  0.49380797  0.35224856  1  0  0.143246  0  0.936247  0  0  0.160318  0  0.998416  0  0  0.162329  0  0.998414  0  0.077813  0  0.101874  0.158908  0  0.998311  0
H  H47  1  0.07798669  0.99380888  0.14775160  1  0  0.143208  0  0.936214  0  0  0.160282  0  0.998386  0  0  0.162294  0  0.998383  0  0.077807  0  0.101864  0.158874  0  0.998278  0
H  H48  1  0.49182634  0.40763585  0.91956326  1  0  0.074266  0  0.934946  0  0  0.091425  0  0.998434  0  0  0.092314  0  0.998549  0  0.03587  0  0.092096  0.090786  0  0.998159  0
H  H49  1  0.00817199  0.90763592  0.58043685  1  0  0.074279  0  0.934925  0  0  0.09145  0  0.998402  0  0  0.09234  0  0.998513  0  0.035884  0  0.092109  0.090812  0  0.998127  0
H  H50  1  0.50817351  0.59236430  0.08043629  1  0  0.074275  0  0.934938  0  0  0.091428  0  0.998438  0  0  0.092315  0  0.998553  0  0.035857  0  0.0921  0.09079  0  0.998161  0
H  H51  1  0.99182786  0.09236422  0.41956345  1  0  0.074298  0  0.934913  0  0  0.091465  0  0.998396  0  0  0.092354  0  0.998507  0  0.035883  0  0.09211  0.090827  0  0.998121  0
H  H52  1  0.64890543  0.45242359  0.98165431  1  0  0.070179  0  0.957208  0  0  0.087274  0  1.023107  0  0  0.087228  0  1.025075  0  0.038262  0  0.092773  0.087376  0  1.021491  0
H  H53  1  0.85109488  0.95242450  0.51834464  1  0  0.070186  0  0.957193  0  0  0.087273  0  1.023106  0  0  0.087227  0  1.025072  0  0.038275  0  0.092787  0.087375  0  1.02149  0
H  H54  1  0.35109442  0.54757572  0.01834523  1  0  0.070202  0  0.95714  0  0  0.087295  0  1.023044  0  0  0.087248  0  1.02501  0  0.038268  0  0.092798  0.087396  0  1.021428  0
H  H55  1  0.14890603  0.04757731  0.48165643  1  0  0.07025  0  0.957238  0  0  0.08735  0  1.023122  0  0  0.087303  0  1.025089  0  0.038241  0  0.092811  0.087451  0  1.021507  0
H  H56  1  0.60557440  0.64787366  0.91242724  1  0  0.082903  0  0.935232  0  0  0.098478  0  0.998092  0  0  0.098818  0  0.998613  0  0.066945  0  0.11398  0.098176  0  0.997753  0
H  H57  1  0.89442484  0.14787441  0.58757169  1  0  0.082855  0  0.93527  0  0  0.098419  0  0.998131  0  0  0.098758  0  0.99865  0  0.066912  0  0.113982  0.098116  0  0.997792  0
H  H58  1  0.39442545  0.35212566  0.08757231  1  0  0.082878  0  0.935269  0  0  0.098431  0  0.998124  0  0  0.09877  0  0.998644  0  0.06693  0  0.113989  0.098128  0  0.997786  0
H  H59  1  0.10558033  0.85212740  0.41242873  1  0  0.082859  0  0.935328  0  0  0.098409  0  0.998173  0  0  0.098748  0  0.998693  0  0.066915  0  0.11397  0.098106  0  0.997834  0
H  H60  1  0.64538718  0.54409001  0.82409343  1  0  0.079663  0  0.918732  0  0  0.098179  0  0.976042  0  0  0.098034  0  0.977446  0  0.069602  0  0.115428  0.098118  0  0.975287  0
H  H61  1  0.85461206  0.04409077  0.67590550  1  0  0.07966  0  0.918677  0  0  0.098148  0  0.975997  0  0  0.098003  0  0.9774  0  0.069615  0  0.115416  0.098088  0  0.975241  0
H  H62  1  0.35461373  0.45591014  0.17590614  1  0  0.079669  0  0.918694  0  0  0.098148  0  0.976004  0  0  0.098002  0  0.977407  0  0.069615  0  0.115417  0.098088  0  0.975249  0
H  H63  1  0.14539098  0.95591104  0.32409562  1  0  0.079663  0  0.918752  0  0  0.098154  0  0.976036  0  0  0.098008  0  0.977438  0  0.069598  0  0.11542  0.098094  0  0.975279  0
C  C64  1  0.13414239  0.62922499  0.36265623  1  0  0.640862  0  3.930224  0  0  0.589359  0  4.219352  0  0  0.624574  0  4.212594  0  1.531857  0  0.193589  0.565556  0  4.223088  0
C  C65  1  0.36585807  0.12922741  0.13734393  1  0  0.640949  0  3.930122  0  0  0.589437  0  4.219252  0  0  0.624651  0  4.212494  0  1.531842  0  0.193609  0.565634  0  4.222991  0
C  C66  1  0.86585853  0.37077183  0.63734334  1  0  0.640922  0  3.930347  0  0  0.589409  0  4.219451  0  0  0.624624  0  4.212689  0  1.532007  0  0.193617  0.565606  0  4.223188  0
C  C67  1  0.63414178  0.87077357  0.86265637  1  0  0.641038  0  3.930057  0  0  0.58953  0  4.219185  0  0  0.624746  0  4.21242  0  1.531846  0  0.19365  0.565728  0  4.222923  0
C  C68  1  0.12527548  0.65725538  0.25406130  1  0  -0.067551  0  3.804858  0  0  -0.042896  0  4.044736  0  0  -0.051681  0  4.067692  0  -0.078005  0  -0.025507  -0.03731  0  4.029546  0
C  C69  1  0.37472498  0.15725780  0.24593811  1  0  -0.067634  0  3.804863  0  0  -0.04295  0  4.044722  0  0  -0.051734  0  4.067677  0  -0.078164  0  -0.025497  -0.037365  0  4.029532  0
C  C70  1  0.87472438  0.34273978  0.74593750  1  0  -0.067565  0  3.80487  0  0  -0.042865  0  4.044683  0  0  -0.051648  0  4.067636  0  -0.078171  0  -0.025549  -0.03728  0  4.029495  0
C  C71  1  0.62527274  0.84274235  0.75406138  1  0  -0.067735  0  3.805018  0  0  -0.043063  0  4.044888  0  0  -0.051847  0  4.067843  0  -0.077934  0  -0.025533  -0.037477  0  4.0297  0
C  C72  1  0.22917756  0.72437961  0.21247573  1  0  -0.089392  0  3.733772  0  0  -0.129422  0  3.98913  0  0  -0.127231  0  4.00773  0  -0.039094  0  -0.086881  -0.130879  0  3.976977  0
C  C73  1  0.27082183  0.22437953  0.28752290  1  0  -0.089387  0  3.733834  0  0  -0.129435  0  3.989202  0  0  -0.127245  0  4.007805  0  -0.039097  0  -0.086912  -0.130882  0  3.977038  0
C  C74  1  0.77082335  0.27561804  0.78752234  1  0  -0.089376  0  3.733761  0  0  -0.129414  0  3.989111  0  0  -0.127223  0  4.007712  0  -0.03549  0  -0.086876  -0.130868  0  3.97695  0
C  C75  1  0.72917589  0.77562061  0.71247734  1  0  -0.089312  0  3.733817  0  0  -0.129348  0  3.989174  0  0  -0.127158  0  4.007775  0  -0.038744  0  -0.086871  -0.1308  0  3.977011  0
C  C76  1  0.21168850  0.75995031  0.11348965  1  0  -0.068799  0  3.799539  0  0  -0.044358  0  4.041025  0  0  -0.052729  0  4.063852  0  -0.063748  0  -0.024748  -0.038991  0  4.025486  0
C  C77  1  0.28831089  0.25995107  0.38650974  1  0  -0.068902  0  3.799326  0  0  -0.044466  0  4.040845  0  0  -0.052838  0  4.063675  0  -0.06364  0  -0.024794  -0.039104  0  4.025316  0
C  C78  1  0.78831241  0.24004734  0.88650993  1  0  -0.068763  0  3.799366  0  0  -0.044347  0  4.040874  0  0  -0.052718  0  4.063702  0  -0.06687  0  -0.024727  -0.038979  0  4.025336  0
C  C79  1  0.71168470  0.74004908  0.61348896  1  0  -0.068921  0  3.799571  0  0  -0.044463  0  4.041052  0  0  -0.052835  0  4.06388  0  -0.063703  0  -0.024786  -0.039095  0  4.025514  0
C  C80  1  0.09209798  0.72622185  0.05570274  1  0  -0.121299  0  3.689594  0  0  -0.155179  0  3.931816  0  0  -0.154721  0  3.950979  0  -0.077582  0  -0.082547  -0.15483  0  3.918174  0
C  C81  1  0.40790141  0.22622344  0.44430189  1  0  -0.121228  0  3.689497  0  0  -0.155125  0  3.931701  0  0  -0.154665  0  3.950862  0  -0.077545  0  -0.082497  -0.154776  0  3.918062  0
C  C82  1  0.90790081  0.27377663  0.94429978  1  0  -0.121352  0  3.689586  0  0  -0.155235  0  3.931811  0  0  -0.154777  0  3.950974  0  -0.077572  0  -0.082576  -0.154887  0  3.918171  0
C  C83  1  0.59209738  0.77377837  0.55569987  1  0  -0.121305  0  3.689543  0  0  -0.155202  0  3.931761  0  0  -0.154743  0  3.950923  0  -0.077472  0  -0.082522  -0.154853  0  3.91812  0
C  C84  1  0.99130215  0.65411400  0.09462903  1  0  0.13664  0  3.771784  0  0  0.168897  0  4.006536  0  0  0.167691  0  4.031395  0  -0.005109  0  -0.008596  0.169555  0  3.989458  0
C  C85  1  0.50869816  0.15411476  0.40537067  1  0  0.136563  0  3.771906  0  0  0.168887  0  4.006594  0  0  0.167682  0  4.031451  0  -0.005192  0  -0.00861  0.169544  0  3.989516  0
C  C86  1  0.00869664  0.34588449  0.90537049  1  0  0.136635  0  3.771839  0  0  0.168926  0  4.006562  0  0  0.167722  0  4.03142  0  -0.005115  0  -0.008585  0.169583  0  3.989484  0
C  C87  1  0.49130062  0.84588705  0.59462885  1  0  0.136608  0  3.771752  0  0  0.168875  0  4.00651  0  0  0.16767  0  4.031367  0  -0.005369  0  -0.008609  0.169532  0  3.989433  0
C  C88  1  0.00855085  0.62112244  0.19483313  1  0  -0.111525  0  3.675398  0  0  -0.144693  0  3.916343  0  0  -0.143655  0  3.93514  0  0.033137  0  -0.083802  -0.145444  0  3.904002  0
C  C89  1  0.49144961  0.12112403  0.30516553  1  0  -0.111486  0  3.67541  0  0  -0.144694  0  3.916347  0  0  -0.143656  0  3.935142  0  0.03327  0  -0.083817  -0.145445  0  3.904008  0
C  C90  1  0.99144901  0.37887605  0.80516566  1  0  -0.111576  0  3.675375  0  0  -0.14477  0  3.916297  0  0  -0.143735  0  3.935094  0  0.033056  0  -0.083821  -0.145521  0  3.903959  0
C  C91  1  0.50855024  0.87887778  0.69483477  1  0  -0.11146  0  3.675404  0  0  -0.14464  0  3.916347  0  0  -0.143603  0  3.935145  0  0.033018  0  -0.083809  -0.145391  0  3.904009  0
C  C92  1  0.31847564  0.83740691  0.07048051  1  0  0.663066  0  3.908653  0  0  0.610663  0  4.20534  0  0  0.646425  0  4.196601  0  1.568537  0  0.20547  0.586414  0  4.210575  0
C  C93  1  0.18152269  0.33740517  0.42952035  1  0  0.66315  0  3.908498  0  0  0.610745  0  4.20519  0  0  0.646503  0  4.196456  0  1.568519  0  0.205493  0.586498  0  4.210425  0
C  C94  1  0.68152422  0.16259241  0.92951903  1  0  0.66312  0  3.908583  0  0  0.610736  0  4.205247  0  0  0.646498  0  4.196508  0  1.568542  0  0.205483  0.586486  0  4.210482  0
C  C95  1  0.81847290  0.66259331  0.57048060  1  0  0.663216  0  3.908429  0  0  0.610808  0  4.205134  0  0  0.64657  0  4.196394  0  1.568534  0  0.205566  0.586558  0  4.210371  0
C  C96  1  0.86547435  0.61477979  0.03220734  1  0  -0.328256  0  3.724047  0  0  -0.410009  0  3.956566  0  0  -0.412067  0  3.96648  0  -0.022634  0  -0.239316  -0.408579  0  3.949595  0
C  C97  1  0.63452383  0.11477972  0.46779232  1  0  -0.328206  0  3.724146  0  0  -0.410026  0  3.956637  0  0  -0.412086  0  3.966552  0  -0.022634  0  -0.239327  -0.408595  0  3.949667  0
C  C98  1  0.13452337  0.38522118  0.96779216  1  0  -0.328254  0  3.724107  0  0  -0.410099  0  3.956584  0  0  -0.412157  0  3.966499  0  -0.022533  0  -0.239323  -0.408667  0  3.949614  0
C  C99  1  0.36547496  0.88522209  0.53220645  1  0  -0.328205  0  3.72416  0  0  -0.410023  0  3.956658  0  0  -0.412082  0  3.96657  0  -0.022496  0  -0.239329  -0.40859  0  3.949688  0
C  C100  1  0.23079515  0.67404350  0.77073150  1  0  -0.003703  0  3.786745  0  0  -0.039519  0  4.05624  0  0  -0.037673  0  4.077666  0  0.42309  0  -0.010334  -0.040793  0  4.041837  0
C  C101  1  0.26920105  0.17404426  0.72926706  1  0  -0.003645  0  3.78686  0  0  -0.039475  0  4.056394  0  0  -0.037627  0  4.077822  0  0.423055  0  -0.010332  -0.040755  0  4.041988  0
C  C102  1  0.76920258  0.32595831  0.22926724  1  0  -0.003736  0  3.786961  0  0  -0.039565  0  4.056486  0  0  -0.037718  0  4.077915  0  0.423049  0  -0.010359  -0.040845  0  4.042079  0
C  C103  1  0.73080199  0.82595339  0.27073182  1  0  -0.003578  0  3.78678  0  0  -0.03943  0  4.056278  0  0  -0.037589  0  4.077703  0  0.423101  0  -0.0103  -0.040704  0  4.041874  0
C  C104  1  0.33474938  0.67649124  0.84507985  1  0  -0.052201  0  3.680568  0  0  -0.096089  0  3.948962  0  0  -0.094052  0  3.968108  0  0.302836  0  0.000189  -0.097487  0  3.936237  0
C  C105  1  0.16525214  0.17649033  0.65492258  1  0  -0.052091  0  3.680714  0  0  -0.096059  0  3.949091  0  0  -0.09402  0  3.968239  0  0.302774  0  0.000217  -0.097458  0  3.936368  0
C  C106  1  0.66525473  0.32351057  0.15492280  1  0  -0.052072  0  3.680773  0  0  -0.096001  0  3.949162  0  0  -0.093963  0  3.968309  0  0.302929  0  0.000234  -0.097399  0  3.936436  0
C  C107  1  0.83475516  0.82350898  0.34508089  1  0  -0.052085  0  3.680312  0  0  -0.096003  0  3.948705  0  0  -0.093965  0  3.967855  0  0.30282  0  0.000176  -0.097402  0  3.935981  0
C  C108  1  0.39415408  0.55328210  0.72879947  1  0  0.38306  0  3.688661  0  0  0.359719  0  3.952484  0  0  0.376163  0  3.96832  0  0.967229  0  0.22174  0.348927  0  3.941251  0
C  C109  1  0.10584425  0.05328453  0.77120064  1  0  0.383239  0  3.688554  0  0  0.3599  0  3.952347  0  0  0.376345  0  3.968181  0  0.967199  0  0.221801  0.349107  0  3.941114  0
C  C110  1  0.60584577  0.44671721  0.27120082  1  0  0.383185  0  3.688611  0  0  0.359817  0  3.952443  0  0  0.376264  0  3.968277  0  0.967206  0  0.221771  0.349025  0  3.941208  0
C  C111  1  0.89415986  0.94671895  0.22880051  1  0  0.383275  0  3.688356  0  0  0.359849  0  3.952325  0  0  0.376296  0  3.96816  0  0.967137  0  0.221793  0.349056  0  3.941092  0
C  C112  1  0.47805347  0.47029544  0.67363467  1  0  -0.400922  0  3.697091  0  0  -0.479284  0  3.934154  0  0  -0.483323  0  3.939145  0  -0.04846  0  -0.23285  -0.476217  0  3.930455  0
C  C113  1  0.02194380  0.97029801  0.82636542  1  0  -0.40102  0  3.697137  0  0  -0.479401  0  3.934172  0  0  -0.483444  0  3.939168  0  -0.048437  0  -0.232848  -0.476334  0  3.930473  0
C  C114  1  0.52194532  0.52970387  0.32636486  1  0  -0.401008  0  3.697192  0  0  -0.479359  0  3.934252  0  0  -0.483396  0  3.939233  0  -0.048458  0  -0.232838  -0.476291  0  3.930551  0
C  C115  1  0.97805499  0.02970380  0.17363635  1  0  -0.40086  0  3.697149  0  0  -0.479184  0  3.934213  0  0  -0.483221  0  3.939193  0  -0.048435  0  -0.23279  -0.476116  0  3.930514  0
C  C116  1  0.54273021  0.48062615  0.95556577  1  0  -0.131284  0  3.673787  0  0  -0.173588  0  3.936585  0  0  -0.175074  0  3.950522  0  -0.013386  0  -0.165724  -0.172574  0  3.926833  0
C  C117  1  0.95727010  0.98062706  0.54443394  1  0  -0.131265  0  3.673748  0  0  -0.173593  0  3.936526  0  0  -0.175075  0  3.950453  0  -0.04253  0  -0.165739  -0.17258  0  3.926775  0
C  C118  1  0.45726964  0.51937316  0.04443378  1  0  -0.131262  0  3.673713  0  0  -0.173587  0  3.936476  0  0  -0.175065  0  3.950404  0  -0.042498  0  -0.165734  -0.172572  0  3.926723  0
C  C119  1  0.04273188  0.01937392  0.45556641  1  0  -0.131384  0  3.673846  0  0  -0.173731  0  3.936595  0  0  -0.175212  0  3.950521  0  -0.013388  0  -0.16578  -0.172717  0  3.926844  0
C  C120  1  0.56551154  0.57115562  0.87697632  1  0  0.006565  0  3.611103  0  0  -0.053834  0  3.867235  0  0  -0.049582  0  3.879207  0  0.32335  0  -0.049828  -0.05652  0  3.859121  0
C  C121  1  0.93448771  0.07115637  0.62302261  1  0  0.006656  0  3.611084  0  0  -0.053689  0  3.867117  0  0  -0.049433  0  3.879078  0  0.32349  0  -0.049822  -0.056375  0  3.859004  0
C  C122  1  0.43448832  0.42884370  0.12302322  1  0  0.006604  0  3.611151  0  0  -0.053686  0  3.8671  0  0  -0.049429  0  3.879059  0  0.323411  0  -0.049823  -0.056373  0  3.858987  0
C  C123  1  0.06551640  0.92884460  0.37697779  1  0  0.00661  0  3.611192  0  0  -0.053645  0  3.8671  0  0  -0.049391  0  3.87906  0  0.323451  0  -0.049797  -0.056332  0  3.858987  0
N  N124  1  0.26876580  0.59741862  0.69900942  1  0  -0.468207  0  3.25136  0  0  -0.389925  0  3.532736  0  0  -0.414608  0  3.549042  0  -1.224794  0  -0.365834  -0.372964  0  3.520948  0
N  N125  1  0.23123253  0.09742021  0.80099069  1  0  -0.468264  0  3.25137  0  0  -0.389983  0  3.532746  0  0  -0.414667  0  3.549051  0  -1.224768  0  -0.365846  -0.373023  0  3.520961  0
N  N126  1  0.73123512  0.40258153  0.30099090  1  0  -0.468231  0  3.25134  0  0  -0.389953  0  3.53273  0  0  -0.414638  0  3.549034  0  -1.224827  0  -0.365871  -0.372995  0  3.52095  0
N  N127  1  0.76876732  0.90258077  0.19901036  1  0  -0.468317  0  3.251215  0  0  -0.390042  0  3.53267  0  0  -0.414729  0  3.54898  0  -1.22476  0  -0.365894  -0.373083  0  3.520889  0
N  N128  1  0.43642729  0.59984805  0.81816049  1  0  -0.114749  0  3.507888  0  0  -0.024133  0  3.724598  0  0  -0.040195  0  3.750416  0  -1.232148  0  -0.239358  -0.013487  0  3.707077  0
N  N129  1  0.06357211  0.09985047  0.68183815  1  0  -0.114896  0  3.507965  0  0  -0.024267  0  3.724643  0  0  -0.040331  0  3.750461  0  -1.232235  0  -0.239389  -0.01362  0  3.707122  0
N  N130  1  0.56357469  0.40015043  0.18183836  1  0  -0.114883  0  3.508051  0  0  -0.024245  0  3.724694  0  0  -0.040309  0  3.750511  0  -1.232268  0  -0.239367  -0.013598  0  3.707173  0
N  N131  1  0.93643200  0.90015051  0.31816150  1  0  -0.114928  0  3.507702  0  0  -0.024347  0  3.724441  0  0  -0.040414  0  3.750257  0  -1.232285  0  -0.239386  -0.0137  0  3.706921  0
O  O132  1  0.02871424  0.57668900  0.39858647  1  0  -0.704448  0  2.162066  0  0  -0.625757  0  2.42617  0  0  -0.658137  0  2.414411  0  -1.184348  0  -0.344278  -0.603092  0  2.433295  0
O  O133  1  0.47128622  0.07669059  0.10141369  1  0  -0.70453  0  2.161925  0  0  -0.625843  0  2.426051  0  0  -0.658222  0  2.414294  0  -1.184311  0  -0.344344  -0.603179  0  2.433175  0
O  O134  1  0.97128455  0.42331031  0.60141380  1  0  -0.704462  0  2.162044  0  0  -0.625782  0  2.426182  0  0  -0.658162  0  2.414425  0  -1.184306  0  -0.344287  -0.603114  0  2.433299  0
O  O135  1  0.52871257  0.92331039  0.89858583  1  0  -0.704534  0  2.16196  0  0  -0.62585  0  2.426082  0  0  -0.658229  0  2.414321  0  -1.184342  0  -0.344338  -0.603185  0  2.433206  0
O  O136  1  0.23984510  0.66016055  0.41759797  1  0  -0.63467  0  1.913616  0  0  -0.575529  0  2.147163  0  0  -0.602908  0  2.137746  0  -1.158995  0  -0.326063  -0.556265  0  2.152721  0
O  O137  1  0.26015642  0.16016131  0.08240147  1  0  -0.634636  0  1.913621  0  0  -0.575501  0  2.147179  0  0  -0.602881  0  2.137762  0  -1.158996  0  -0.326024  -0.556236  0  2.152737  0
O  O138  1  0.76015688  0.33983710  0.58240088  1  0  -0.634646  0  1.913651  0  0  -0.575521  0  2.147212  0  0  -0.602899  0  2.137791  0  -1.159015  0  -0.326035  -0.556253  0  2.152769  0
O  O139  1  0.73984024  0.83983801  0.91759725  1  0  -0.634702  0  1.913604  0  0  -0.575562  0  2.147149  0  0  -0.60294  0  2.137729  0  -1.158963  0  -0.326062  -0.556297  0  2.152709  0
O  O140  1  0.26926704  0.90485551  0.00442538  1  0  -0.656214  0  2.044068  0  0  -0.589992  0  2.296573  0  0  -0.619278  0  2.285092  0  -1.174721  0  -0.329783  -0.569466  0  2.303731  0
O  O141  1  0.23072917  0.40485294  0.49557618  1  0  -0.656282  0  2.044105  0  0  -0.59004  0  2.296591  0  0  -0.619324  0  2.285112  0  -1.174655  0  -0.329809  -0.569518  0  2.303756  0
O  O142  1  0.73073282  0.09514215  0.99557492  1  0  -0.656251  0  2.044076  0  0  -0.590011  0  2.296543  0  0  -0.6193  0  2.285061  0  -1.174762  0  -0.329777  -0.569489  0  2.303714  0
O  O143  1  0.76926749  0.59514555  0.50442554  1  0  -0.656212  0  2.044005  0  0  -0.590005  0  2.296521  0  0  -0.619289  0  2.285037  0  -1.174725  0  -0.329811  -0.569485  0  2.303692  0
O  O144  1  0.44661594  0.82771995  0.10384035  1  0  -0.658969  0  1.986664  0  0  -0.597172  0  2.241587  0  0  -0.625788  0  2.228665  0  -1.171354  0  -0.338394  -0.577074  0  2.249459  0
O  O145  1  0.05338239  0.32771738  0.39616051  1  0  -0.658948  0  1.986565  0  0  -0.597157  0  2.24149  0  0  -0.62577  0  2.228569  0  -1.17138  0  -0.33838  -0.57706  0  2.249361  0
O  O146  1  0.55338285  0.17228020  0.89616067  1  0  -0.65899  0  1.986636  0  0  -0.597197  0  2.241539  0  0  -0.625811  0  2.228616  0  -1.171353  0  -0.3384  -0.577099  0  2.249413  0
O  O147  1  0.94661746  0.67228110  0.60383903  1  0  -0.659046  0  1.986542  0  0  -0.59724  0  2.241463  0  0  -0.625857  0  2.228543  0  -1.171334  0  -0.338439  -0.577143  0  2.249337  0
