# generated using pymatgen
data_CuH6C6(NCl)4
_symmetry_space_group_name_H-M   'P 1'
_cell_length_a   3.78649084
_cell_length_b   10.47790598
_cell_length_c   13.54892053
_cell_angle_alpha   87.82582490
_cell_angle_beta   87.74033757
_cell_angle_gamma   80.37466689
_symmetry_Int_Tables_number   1
_chemical_formula_structural   CuH6C6(NCl)4
_chemical_formula_sum   'Cu2 H12 C12 N8 Cl8'
_cell_volume   529.29888178
_cell_formula_units_Z   2
loop_
 _symmetry_equiv_pos_site_id
 _symmetry_equiv_pos_as_xyz
  1  'x, y, z'
loop_
 _atom_site_type_symbol
 _atom_site_label
 _atom_site_symmetry_multiplicity
 _atom_site_fract_x
 _atom_site_fract_y
 _atom_site_fract_z
 _atom_site_occupancy
 _atom_site_hle17_ddec_charge
 _atom_site_hle17_ddec_spin_density
 _atom_site_hle17_ddec_sum_bond_order
 _atom_site_hle17_magmom
 _atom_site_hse06_10hf_ddec_charge
 _atom_site_hse06_10hf_ddec_spin_density
 _atom_site_hse06_10hf_ddec_sum_bond_order
 _atom_site_hse06_10hf_magmom
 _atom_site_hse06_ddec_charge
 _atom_site_hse06_ddec_spin_density
 _atom_site_hse06_ddec_sum_bond_order
 _atom_site_hse06_magmom
 _atom_site_pbe_cm5_charge
 _atom_site_pbe_ddec_charge
 _atom_site_pbe_ddec_spin_density
 _atom_site_pbe_ddec_sum_bond_order
 _atom_site_pbe_magmom
Cu  Cu0  1  0.49814095  0.99974559  0.25084053  1  0.721742  -0.637435  1.92708  -0.466  0.711711  -0.738988  2.317067  -0.586  0.805882  -0.806613  2.24161  -0.672  0.607345  0.658985  -0.695247  2.363274  -0.534
Cu  Cu1  1  0.50186922  0.00025272  0.74916028  1  0.721681  -0.6374  1.927074  -0.466  0.711745  -0.738973  2.317049  -0.586  0.805924  -0.806629  2.241597  -0.672  0.607365  0.659037  -0.695251  2.363242  -0.534
H  H2  1  0.71175893  0.09679189  0.44476857  1  0.295523  -6e-06  0.895182  0.0  0.273335  -0.000519  0.964179  0.0  0.282052  -0.000393  0.95588  0.0  0.306654  0.267163  -0.000603  0.970214  0.0
H  H3  1  0.28822881  0.90320350  0.55523551  1  0.295544  -7e-06  0.895259  0.0  0.273352  -0.000519  0.964227  0.0  0.282065  -0.000392  0.955938  0.0  0.306711  0.267177  -0.000602  0.970264  0.0
H  H4  1  0.82441939  0.90831664  0.05579654  1  0.292178  -0.00032  0.907391  0.0  0.270321  -0.000732  0.976864  0.0  0.279255  -0.000531  0.968765  0.0  0.302497  0.264538  -0.000918  0.981997  0.0
H  H5  1  0.17556828  0.09168456  0.94420589  1  0.292141  -0.000322  0.907341  0.0  0.270228  -0.000733  0.976885  0.0  0.279166  -0.000531  0.968782  0.0  0.302338  0.264444  -0.000919  0.982021  0.0
H  H6  1  0.53834482  0.32226057  0.51560695  1  0.11845  -0.000776  0.967641  -0.001  0.123874  -0.000613  1.039776  -0.001  0.127539  -0.000445  1.035453  -0.001  0.112164  0.121239  -0.000671  1.042628  -0.001
H  H7  1  0.46163590  0.67773287  0.48439653  1  0.118624  -0.000779  0.967599  -0.001  0.124051  -0.000613  1.039744  -0.001  0.127717  -0.000445  1.035421  -0.001  0.112245  0.121415  -0.000671  1.042594  -0.001
H  H8  1  0.09619234  0.29052999  0.22702165  1  0.116074  -7e-05  0.970882  -0.001  0.120966  -0.000171  1.043013  0.0  0.123979  -0.000111  1.03949  0.0  0.107347  0.119189  -0.000196  1.044575  0.0
H  H9  1  0.90382579  0.70946832  0.77297538  1  0.116128  -6.9e-05  0.970811  -0.001  0.120988  -0.000171  1.042964  0.0  0.124004  -0.000111  1.039443  0.0  0.107365  0.119209  -0.000196  1.044526  0.0
H  H10  1  0.90192163  0.68069260  0.98315256  1  0.117019  -0.001213  0.972019  -0.001  0.123506  -0.001089  1.043431  -0.001  0.127158  -0.000832  1.039088  -0.001  0.111177  0.121088  -0.001192  1.045928  -0.001
H  H11  1  0.09807828  0.31931636  0.01684729  1  0.117026  -0.001212  0.971993  -0.001  0.123531  -0.001089  1.043389  -0.001  0.127183  -0.000832  1.039046  -0.001  0.111205  0.121114  -0.001192  1.045892  -0.001
H  H12  1  0.37197565  0.70372178  0.27455743  1  0.108751  0.000181  0.991339  0.0  0.11541  4.9e-05  1.061218  0.0  0.11855  6e-05  1.057504  0.0  0.101145  0.112937  3.2e-05  1.064041  0.0
H  H13  1  0.62802525  0.29627943  0.72544265  1  0.10874  0.000175  0.991335  0.0  0.115402  4.9e-05  1.061205  0.0  0.118543  6e-05  1.057486  0.0  0.101135  0.112929  3.2e-05  1.064029  0.0
C  C14  1  0.45193414  0.29458987  0.44545779  1  -0.002414  0.007249  3.662862  0.004  -0.062259  0.000934  3.932151  0.0  -0.052372  0.002546  3.942936  0.001  0.013039  -0.067979  3.1e-05  3.923854  0.0
C  C15  1  0.54806473  0.70539874  0.55454121  1  -0.002662  0.00726  3.662735  0.004  -0.062526  0.000935  3.932006  0.0  -0.052657  0.002548  3.94281  0.001  0.012891  -0.068233  3e-05  3.923682  0.0
C  C16  1  0.24790603  0.36399159  0.37174404  1  0.0099  -0.005061  3.865437  -0.006  0.024793  -0.001958  4.149354  -0.003  0.020525  -0.001706  4.169474  -0.002  -0.017374  0.026959  -0.002115  4.136478  -0.003
C  C17  1  0.75209011  0.63600283  0.62825482  1  0.009967  -0.00506  3.865439  -0.006  0.024854  -0.001958  4.149334  -0.003  0.020598  -0.001706  4.169437  -0.002  -0.017339  0.02702  -0.002115  4.136457  -0.003
C  C18  1  0.23260693  0.27688862  0.29626752  1  0.000549  0.009212  3.691096  0.005  -0.049752  0.001835  3.968195  0.0  -0.039484  0.003672  3.983467  0.002  0.009822  -0.056316  0.000369  3.958399  -0.001
C  C19  1  0.76740635  0.72310872  0.70373107  1  0.000566  0.009211  3.690875  0.005  -0.049669  0.001835  3.967932  0.0  -0.039409  0.003673  3.983203  0.002  0.009832  -0.056238  0.00037  3.958135  -0.001
C  C20  1  0.77576665  0.70648152  0.05431888  1  0.008109  0.005956  3.656667  0.004  -0.050815  0.000666  3.921775  0.0  -0.040207  0.001972  3.931818  0.001  0.016821  -0.057725  -3.5e-05  3.915109  0.0
C  C21  1  0.22423337  0.29352161  0.94567746  1  0.00815  0.00594  3.657311  0.004  -0.050836  0.000666  3.922435  0.0  -0.040224  0.001971  3.932477  0.001  0.016812  -0.057746  -3.6e-05  3.915774  0.0
C  C22  1  0.62788523  0.63419963  0.12866798  1  0.011194  -0.003779  3.860318  -0.005  0.027236  -0.001532  4.142899  -0.002  0.022809  -0.001343  4.162393  -0.002  -0.01657  0.029235  -0.001672  4.130591  -0.002
C  C23  1  0.37211785  0.36580255  0.87133278  1  0.011205  -0.003783  3.860337  -0.005  0.027252  -0.001533  4.14291  -0.002  0.022821  -0.001342  4.162408  -0.002  -0.016578  0.029249  -0.001673  4.130613  -0.002
C  C24  1  0.50753545  0.71994664  0.20464658  1  -0.001175  0.006508  3.703523  0.003  -0.050672  0.001074  3.978895  0.0  -0.040317  0.002594  3.994765  0.001  0.006276  -0.0571  -5.6e-05  3.968677  -0.001
C  C25  1  0.49247518  0.28005070  0.79535424  1  -0.001135  0.006525  3.703405  0.003  -0.05063  0.001077  3.978826  0.0  -0.040275  0.002595  3.994697  0.001  0.006313  -0.05706  -5.6e-05  3.968613  -0.001
N  N26  1  0.41846431  0.16130820  0.32279937  1  -0.18422  -0.068766  3.310825  -0.088  -0.147771  -0.04876  3.611942  -0.066  -0.177001  -0.040804  3.638246  -0.059  -0.279368  -0.131356  -0.052946  3.596658  -0.068
N  N27  1  0.58154187  0.83869301  0.67719991  1  -0.184272  -0.06878  3.310741  -0.088  -0.147853  -0.048762  3.6119  -0.066  -0.177078  -0.040805  3.638201  -0.059  -0.279388  -0.131441  -0.052948  3.596613  -0.068
N  N28  1  0.54603275  0.17318836  0.41273196  1  -0.13275  -0.003425  3.507032  -0.003  -0.065126  -0.002593  3.732064  -0.002  -0.07532  -0.001959  3.751931  -0.002  -0.279739  -0.057848  -0.003113  3.718731  -0.003
N  N29  1  0.45395448  0.82681380  0.58726897  1  -0.132757  -0.003418  3.506774  -0.003  -0.065112  -0.002594  3.731867  -0.002  -0.075306  -0.00196  3.751727  -0.002  -0.279781  -0.057835  -0.003114  3.718537  -0.003
N  N30  1  0.57902503  0.83793833  0.17800115  1  -0.201845  -0.059198  3.294965  -0.075  -0.170098  -0.04283  3.604169  -0.057  -0.199771  -0.036223  3.630326  -0.051  -0.280954  -0.153057  -0.046417  3.58787  -0.059
N  N31  1  0.42098115  0.16206288  0.82199887  1  -0.201817  -0.059191  3.29507  -0.075  -0.170168  -0.042831  3.604359  -0.057  -0.199843  -0.036222  3.630517  -0.051  -0.281038  -0.153128  -0.046415  3.58806  -0.059
N  N32  1  0.73990557  0.82760382  0.08741913  1  -0.130746  -0.003128  3.510049  -0.003  -0.061767  -0.002457  3.734795  -0.002  -0.072059  -0.001891  3.754953  -0.002  -0.281153  -0.054667  -0.002927  3.720737  -0.002
N  N33  1  0.26009518  0.17240901  0.91257912  1  -0.130857  -0.003121  3.510448  -0.003  -0.061729  -0.002459  3.735057  -0.002  -0.072025  -0.001891  3.755221  -0.002  -0.280969  -0.054626  -0.002927  3.720999  -0.002
Cl  Cl34  1  0.82826500  0.09937988  0.12844301  1  -0.511775  -0.122515  0.935766  -0.15  -0.523206  -0.080161  1.223735  -0.105  -0.557802  -0.058358  1.201642  -0.084  -0.297741  -0.504582  -0.094893  1.237995  -0.117
Cl  Cl35  1  0.17172790  0.90062713  0.87155623  1  -0.511757  -0.12252  0.935802  -0.15  -0.5232  -0.080163  1.223744  -0.105  -0.557795  -0.058357  1.201649  -0.084  -0.297738  -0.504582  -0.094894  1.238005  -0.117
Cl  Cl36  1  0.11410694  0.91511639  0.36905855  1  -0.513867  -0.119763  0.958904  -0.146  -0.524666  -0.07961  1.249601  -0.103  -0.558952  -0.057909  1.225649  -0.082  -0.294603  -0.504814  -0.094077  1.26645  -0.115
Cl  Cl37  1  0.88589968  0.08488386  0.63094297  1  -0.513812  -0.119771  0.958871  -0.146  -0.524652  -0.079613  1.249586  -0.103  -0.558943  -0.057907  1.225638  -0.082  -0.294605  -0.504797  -0.094077  1.266422  -0.115
Cl  Cl38  1  0.05357443  0.52320085  0.37175788  1  -0.057603  -0.00206  1.51452  -0.002  -0.039528  -0.001429  1.776735  -0.002  -0.04459  -0.000961  1.774721  -0.001  0.028244  -0.035358  -0.001823  1.77822  -0.002
Cl  Cl39  1  0.94641817  0.47679550  0.62824169  1  -0.057621  -0.002061  1.514644  -0.002  -0.039541  -0.001429  1.776836  -0.002  -0.044607  -0.000961  1.774815  -0.001  0.028252  -0.035371  -0.001823  1.778313  -0.002
Cl  Cl40  1  0.59504162  0.47365659  0.12835112  1  -0.063099  -0.001603  1.519125  -0.002  -0.045501  -0.001121  1.781664  -0.001  -0.049876  -0.000761  1.779569  -0.001  0.024966  -0.040546  -0.001529  1.781572  -0.002
Cl  Cl41  1  0.40496986  0.52634462  0.87164589  1  -0.063075  -0.001603  1.519068  -0.002  -0.04548  -0.001121  1.781623  -0.001  -0.049856  -0.000761  1.779529  -0.001  0.024977  -0.040523  -0.001528  1.781531  -0.002
