# generated using pymatgen
data_CoH13C18N3O4
_symmetry_space_group_name_H-M   'P 1'
_cell_length_a   11.29982171
_cell_length_b   14.30702298
_cell_length_c   16.80263708
_cell_angle_alpha   89.99993007
_cell_angle_beta   90.00004588
_cell_angle_gamma   89.99984474
_symmetry_Int_Tables_number   1
_chemical_formula_structural   CoH13C18N3O4
_chemical_formula_sum   'Co4 H52 C72 N12 O16'
_cell_volume   2716.42871661
_cell_formula_units_Z   4
loop_
 _symmetry_equiv_pos_site_id
 _symmetry_equiv_pos_as_xyz
  1  'x, y, z'
loop_
 _atom_site_type_symbol
 _atom_site_label
 _atom_site_symmetry_multiplicity
 _atom_site_fract_x
 _atom_site_fract_y
 _atom_site_fract_z
 _atom_site_occupancy
 _atom_site_pbe_bader_charge
 _atom_site_pbe_bader_spin_density
 _atom_site_pbe_cm5_charge
 _atom_site_pbe_ddec_charge
 _atom_site_pbe_ddec_spin_density
 _atom_site_pbe_ddec_sum_bond_order
 _atom_site_pbe_magmom
Co  Co0  1  0.99999927  0.86383411  0.02758298  1  1.335204  2.614769  0.687441  0.882867  2.859818  2.512227  2.591
Co  Co1  1  0.00000036  0.13616669  0.97241693  1  1.335285  2.614771  0.687467  0.882861  2.859827  2.512243  2.591
Co  Co2  1  0.99999774  0.36383179  0.47241759  1  1.334946  2.614782  0.687474  0.882909  2.859831  2.512056  2.591
Co  Co3  1  0.99999819  0.63616654  0.52758319  1  1.335039  2.614779  0.687477  0.882832  2.859829  2.512152  2.591
H  H4  1  0.99999755  0.90028320  0.21528505  1  0.141973  7.6e-05  0.103103  0.131446  -0.000128  1.06895  0.0
H  H5  1  0.00000296  0.09971829  0.78471487  1  0.141903  7.6e-05  0.103093  0.131452  -0.000128  1.068954  0.0
H  H6  1  0.99999934  0.40028605  0.28471608  1  0.141969  7.5e-05  0.103091  0.131414  -0.000128  1.068999  0.0
H  H7  1  0.99999926  0.59971647  0.71528172  1  0.141891  7.5e-05  0.103058  0.131369  -0.000128  1.06901  0.0
H  H8  1  0.99999919  0.03045009  0.44746334  1  0.020521  0.000546  0.100136  0.111025  0.00025  1.036098  0.0
H  H9  1  0.99999852  0.96955174  0.55253624  1  0.020443  0.000546  0.100142  0.111035  0.00025  1.036033  0.0
H  H10  1  0.99999808  0.53044817  0.05253698  1  0.020094  0.000546  0.100133  0.111018  0.00025  1.036111  0.0
H  H11  1  0.00000154  0.46955193  0.94746175  1  0.020551  0.000546  0.100107  0.110982  0.00025  1.036024  0.0
H  H12  1  0.99999876  0.20077009  0.23724030  1  0.041808  0.001064  0.094774  0.098152  0.000592  1.062049  0.0
H  H13  1  0.00000175  0.79923071  0.76275962  1  0.04185  0.001065  0.094749  0.098072  0.000592  1.062041  0.0
H  H14  1  0.99999792  0.70076997  0.26276163  1  0.041789  0.001064  0.094814  0.098282  0.000592  1.062141  0.0
H  H15  1  0.99999890  0.29923186  0.73723676  1  0.041819  0.001064  0.094736  0.098083  0.000592  1.062034  0.0
H  H16  1  0.19203849  0.80209403  0.91368360  1  0.109263  0.001326  0.121898  0.097925  0.000218  1.000092  0.001
H  H17  1  0.19203637  0.19790603  0.08631497  1  0.109086  0.001326  0.121896  0.097959  0.000218  1.000082  0.001
H  H18  1  0.80795861  0.30209650  0.58632171  1  0.109184  0.001326  0.121909  0.097924  0.000218  1.00001  0.001
H  H19  1  0.80796224  0.69790224  0.41368075  1  0.109229  0.001326  0.121879  0.097931  0.000218  1.000105  0.001
H  H20  1  0.80796202  0.19790607  0.08631692  1  0.10925  0.001326  0.12189  0.097916  0.000218  1.000087  0.001
H  H21  1  0.80795972  0.80209477  0.91368376  1  0.109299  0.001326  0.121871  0.09787  0.000218  1.00011  0.001
H  H22  1  0.19204102  0.69790290  0.41368178  1  0.109265  0.001326  0.121885  0.09793  0.000218  1.000077  0.001
H  H23  1  0.19204446  0.30209646  0.58631798  1  0.109278  0.001326  0.12192  0.097896  0.000218  1.000129  0.001
H  H24  1  0.41056584  0.80017097  0.90679843  1  0.067425  0.000921  0.108319  0.111973  0.000487  1.006832  0.0
H  H25  1  0.41056371  0.19982863  0.09320204  1  0.067448  0.000921  0.108336  0.11199  0.000487  1.006798  0.0
H  H26  1  0.58942950  0.30017041  0.59320391  1  0.067349  0.000921  0.108324  0.112006  0.000488  1.006725  0.0
H  H27  1  0.58943313  0.69982881  0.40679665  1  0.067403  0.000921  0.108324  0.111985  0.000488  1.006794  0.0
H  H28  1  0.58943379  0.19982983  0.09320209  1  0.058315  0.000964  0.108337  0.112006  0.000488  1.006795  0.0
H  H29  1  0.58943326  0.80017147  0.90679788  1  0.058314  0.000964  0.108329  0.112004  0.000487  1.00681  0.0
H  H30  1  0.41056924  0.69982760  0.40679720  1  0.058296  0.000964  0.108319  0.112002  0.000487  1.006801  0.0
H  H31  1  0.41057358  0.30017130  0.59320327  1  0.058091  0.000964  0.108322  0.11199  0.000487  1.006751  0.0
H  H32  1  0.41236694  0.93050191  0.13968008  1  0.054756  0.000882  0.107798  0.110742  0.000473  1.008789  0.0
H  H33  1  0.41236886  0.06949698  0.86031979  1  0.044891  0.000924  0.107769  0.110677  0.000473  1.008776  0.0
H  H34  1  0.58763088  0.43050167  0.36032016  1  0.054881  0.000882  0.107798  0.110762  0.000473  1.008804  0.0
H  H35  1  0.58763169  0.56949615  0.63967862  1  0.054905  0.000882  0.107783  0.110715  0.000473  1.008851  0.0
H  H36  1  0.58763180  0.06949469  0.86032103  1  0.054902  0.000882  0.107769  0.110673  0.000473  1.008832  0.0
H  H37  1  0.58762988  0.93050173  0.13968072  1  0.044855  0.000924  0.107813  0.110762  0.000473  1.008761  0.0
H  H38  1  0.41237141  0.56949493  0.63967857  1  0.044874  0.000924  0.107781  0.110674  0.000473  1.008763  0.0
H  H39  1  0.41237590  0.43050326  0.36032190  1  0.044842  0.000924  0.107811  0.110746  0.000473  1.008799  0.0
H  H40  1  0.19426350  0.92596452  0.13579611  1  0.1288  0.001384  0.121063  0.094818  0.000129  1.002407  0.001
H  H41  1  0.19426541  0.07403274  0.86420424  1  0.128798  0.001384  0.121071  0.094825  0.000129  1.002341  0.001
H  H42  1  0.80573256  0.42596800  0.36420770  1  0.128701  0.001383  0.12105  0.094787  0.000128  1.002402  0.001
H  H43  1  0.80573512  0.57402935  0.63579297  1  0.128652  0.001383  0.121125  0.094845  0.000129  1.002351  0.001
H  H44  1  0.80573612  0.07403349  0.86420500  1  0.128818  0.001384  0.121074  0.094812  0.000129  1.002332  0.001
H  H45  1  0.80573244  0.92596526  0.13579627  1  0.128845  0.001384  0.121033  0.094782  0.000129  1.002332  0.001
H  H46  1  0.19426796  0.57403280  0.63579460  1  0.128844  0.001383  0.121054  0.094797  0.000129  1.002324  0.001
H  H47  1  0.19427424  0.42596865  0.36420457  1  0.128892  0.001383  0.121085  0.094836  0.000129  1.002379  0.001
H  H48  1  0.99999864  0.85589226  0.43057687  1  0.494921  0.000295  0.291205  0.315332  0.000198  1.00957  0.0
H  H49  1  0.99999906  0.14410747  0.56942271  1  0.494903  0.000295  0.291203  0.315331  0.000198  1.009583  0.0
H  H50  1  0.00000297  0.35589300  0.06942463  1  0.494935  0.000295  0.291217  0.315376  0.000197  1.009545  0.0
H  H51  1  0.99999843  0.64410710  0.93057410  1  0.494937  0.000295  0.291218  0.315357  0.000197  1.0096  0.0
H  H52  1  0.99999778  0.80820946  0.33624825  1  0.447976  0.000198  0.297545  0.296755  0.000111  0.982973  0.0
H  H53  1  0.99999904  0.19179028  0.66375074  1  0.447965  0.000198  0.297563  0.296739  0.000111  0.982996  0.0
H  H54  1  0.00000134  0.30820935  0.16375152  1  0.447982  0.000198  0.297542  0.296746  0.000111  0.983003  0.0
H  H55  1  0.99999917  0.69179145  0.83624781  1  0.447949  0.000198  0.297522  0.296697  0.000111  0.983038  0.0
C  C56  1  0.99999717  0.05816188  0.12834556  1  1.540288  -0.005348  0.213064  0.572723  -0.006118  4.173149  0.0
C  C57  1  0.00000334  0.94184661  0.87165317  1  1.540378  -0.00535  0.213129  0.572849  -0.00612  4.172835  0.0
C  C58  1  0.99999646  0.55816370  0.37165294  1  1.540034  -0.005347  0.213054  0.572739  -0.006117  4.17299  0.0
C  C59  1  0.99999416  0.44184162  0.62834664  1  1.540142  -0.005349  0.213028  0.572566  -0.006119  4.173176  0.0
C  C60  1  0.00000005  0.05100976  0.21705043  1  -0.107068  0.010527  -0.034169  -0.040102  0.005091  4.080364  0.009
C  C61  1  0.00000327  0.94899071  0.78294804  1  -0.106029  0.010525  -0.034152  -0.040144  0.00509  4.080481  0.009
C  C62  1  0.99999819  0.55101133  0.28294961  1  -0.107171  0.010526  -0.034207  -0.040222  0.00509  4.080453  0.009
C  C63  1  0.99999775  0.44898910  0.71705176  1  -0.107235  0.010526  -0.034163  -0.040142  0.00509  4.080466  0.009
C  C64  1  0.00000027  0.96261587  0.25258902  1  0.002024  -0.004776  -0.109105  -0.238462  -0.005196  3.90659  -0.003
C  C65  1  0.00000305  0.03738670  0.74741123  1  0.000888  -0.004775  -0.109118  -0.23842  -0.005196  3.906585  -0.003
C  C66  1  0.00000024  0.46261738  0.24741212  1  0.002062  -0.004775  -0.109024  -0.238212  -0.005196  3.906496  -0.003
C  C67  1  0.99999939  0.53738622  0.75258721  1  0.002173  -0.004775  -0.109045  -0.238229  -0.005196  3.906446  -0.003
C  C68  1  0.99999930  0.95265390  0.33623568  1  0.480672  0.001654  0.096922  0.319906  0.000723  4.134008  0.002
C  C69  1  0.00000121  0.04734550  0.66376364  1  0.480666  0.001654  0.096858  0.31974  0.000723  4.134031  0.002
C  C70  1  0.99999932  0.45265660  0.16376454  1  0.480724  0.001654  0.096913  0.319794  0.000723  4.134281  0.002
C  C71  1  0.00000134  0.54734457  0.83623334  1  0.480735  0.001654  0.096821  0.319689  0.000723  4.133793  0.002
C  C72  1  0.99999737  0.03482072  0.38277468  1  0.018204  -0.004415  -0.099888  -0.212255  -0.004816  3.900684  -0.002
C  C73  1  0.00000137  0.96517939  0.61722464  1  0.017815  -0.004415  -0.099912  -0.212296  -0.004815  3.900667  -0.002
C  C74  1  0.99999989  0.53482360  0.11722563  1  0.018199  -0.004414  -0.099902  -0.212299  -0.004815  3.901003  -0.002
C  C75  1  0.00000328  0.46517930  0.88277310  1  0.018044  -0.004415  -0.099893  -0.212266  -0.004816  3.900658  -0.002
C  C76  1  0.99999808  0.12290056  0.34703561  1  -0.082321  0.00485  -0.029061  -0.020707  0.00258  4.058882  0.004
C  C77  1  0.00000155  0.87709884  0.65296253  1  -0.082298  0.00485  -0.029026  -0.02061  0.00258  4.05876  0.004
C  C78  1  0.00000079  0.62290306  0.15296257  1  -0.082297  0.00485  -0.028947  -0.020424  0.002581  4.058581  0.004
C  C79  1  0.00000341  0.37709741  0.84703768  1  -0.082182  0.004851  -0.028968  -0.020533  0.002581  4.058562  0.004
C  C80  1  0.99999890  0.13178367  0.26404803  1  0.00929  -0.002622  -0.111389  -0.165839  -0.003083  4.001012  -0.001
C  C81  1  0.00000161  0.86821853  0.73595129  1  0.009311  -0.002621  -0.111336  -0.165737  -0.003082  4.001017  -0.001
C  C82  1  0.99999891  0.63178778  0.23595159  1  0.009406  -0.002622  -0.111472  -0.166095  -0.003083  4.00116  -0.001
C  C83  1  0.00000072  0.36821651  0.76404893  1  0.009306  -0.002621  -0.11138  -0.165829  -0.003082  4.000937  -0.001
C  C84  1  0.99999885  0.20885062  0.39693190  1  1.49208  -0.005173  0.199854  0.55516  -0.007078  4.193394  -0.007
C  C85  1  0.00000255  0.79114808  0.60306624  1  1.492138  -0.005173  0.199867  0.555129  -0.007078  4.193295  -0.007
C  C86  1  0.99999973  0.70885669  0.10306679  1  1.492167  -0.005172  0.1998  0.555021  -0.007077  4.193487  -0.007
C  C87  1  0.00000182  0.29114518  0.89693465  1  1.492178  -0.005173  0.199787  0.55504  -0.007077  4.193539  -0.007
C  C88  1  0.24527206  0.82981459  0.96236345  1  0.499923  -0.009704  0.048627  0.10057  -0.010262  3.943508  -0.006
C  C89  1  0.24527174  0.17018466  0.03763574  1  0.499472  -0.009701  0.048638  0.100558  -0.010261  3.943516  -0.006
C  C90  1  0.75472671  0.32981795  0.53764063  1  0.499989  -0.009705  0.048669  0.100664  -0.010263  3.943474  -0.006
C  C91  1  0.75472785  0.67018301  0.46236180  1  0.49928  -0.009701  0.048659  0.100576  -0.010261  3.943747  -0.006
C  C92  1  0.75472845  0.17018621  0.03763646  1  0.499933  -0.009704  0.048664  0.100635  -0.010262  3.94341  -0.006
C  C93  1  0.75472523  0.82981684  0.96236359  1  0.499936  -0.009702  0.048623  0.100633  -0.010261  3.943569  -0.006
C  C94  1  0.24527380  0.67018425  0.46236286  1  0.499931  -0.009701  0.048625  0.10056  -0.01026  3.943548  -0.006
C  C95  1  0.24527620  0.32981709  0.53763812  1  0.499994  -0.009699  0.048629  0.100694  -0.010258  3.943446  -0.006
C  C96  1  0.36808196  0.82940347  0.95935860  1  -0.053841  0.000983  -0.084775  -0.176889  -0.000248  3.958076  0.002
C  C97  1  0.36808076  0.17059552  0.04064065  1  -0.05376  0.000983  -0.084784  -0.176908  -0.000248  3.957999  0.002
C  C98  1  0.63191593  0.32940569  0.54064370  1  -0.054196  0.000985  -0.084812  -0.177019  -0.000247  3.957985  0.002
C  C99  1  0.63191883  0.67059273  0.45935688  1  -0.053979  0.000982  -0.084813  -0.176954  -0.000249  3.958232  0.002
C  C100  1  0.63191767  0.17059593  0.04064132  1  -0.053838  0.000983  -0.084822  -0.177011  -0.000248  3.958015  0.002
C  C101  1  0.63191621  0.82940528  0.95935867  1  -0.054203  0.000981  -0.084779  -0.176944  -0.000249  3.958109  0.002
C  C102  1  0.36808281  0.67059511  0.45935860  1  -0.05404  0.000982  -0.08478  -0.176952  -0.000249  3.958072  0.002
C  C103  1  0.36808787  0.32940457  0.54064185  1  -0.054032  0.00098  -0.084795  -0.176947  -0.00025  3.95803  0.002
C  C104  1  0.43458326  0.86573308  0.02303772  1  0.071987  -0.016058  0.005583  0.093249  -0.0174  3.993263  -0.009
C  C105  1  0.43458422  0.13426506  0.97696336  1  -0.086183  -0.016684  0.005607  0.093309  -0.017397  3.993348  -0.009
C  C106  1  0.56541655  0.36573342  0.47696378  1  0.072291  -0.016057  0.005591  0.093343  -0.0174  3.993396  -0.009
C  C107  1  0.56541700  0.63426305  0.52303498  1  0.071959  -0.016057  0.005613  0.093332  -0.017398  3.993329  -0.009
C  C108  1  0.56541637  0.13426562  0.97696339  1  0.071863  -0.016056  0.005609  0.093321  -0.017397  3.993177  -0.009
C  C109  1  0.56541364  0.86573294  0.02303775  1  -0.085627  -0.016684  0.005631  0.093337  -0.017398  3.993359  -0.009
C  C110  1  0.43458750  0.63426458  0.52303614  1  -0.085893  -0.016685  0.005616  0.093279  -0.017398  3.993313  -0.009
C  C111  1  0.43458794  0.36573216  0.47696375  1  -0.085712  -0.016676  0.005629  0.093301  -0.017389  3.993425  -0.009
C  C112  1  0.36903176  0.90116326  0.08750256  1  -0.054945  0.000934  -0.084471  -0.175027  -0.000243  3.95722  0.002
C  C113  1  0.36903365  0.09883572  0.91249967  1  -0.055063  0.000934  -0.084421  -0.174951  -0.000243  3.957251  0.002
C  C114  1  0.63096527  0.40116565  0.41249890  1  -0.055049  0.000937  -0.084468  -0.175083  -0.000242  3.957122  0.002
C  C115  1  0.63096769  0.59883138  0.58749930  1  -0.055047  0.000935  -0.084457  -0.175045  -0.000243  3.957181  0.002
C  C116  1  0.63096875  0.09883335  0.91249974  1  -0.055057  0.000934  -0.084443  -0.17498  -0.000243  3.957227  0.002
C  C117  1  0.63096421  0.90116298  0.08750263  1  -0.055108  0.000934  -0.084478  -0.175045  -0.000243  3.957185  0.002
C  C118  1  0.36903436  0.59883376  0.58750042  1  -0.055075  0.000934  -0.084452  -0.174933  -0.000243  3.957066  0.002
C  C119  1  0.36903990  0.40116523  0.41249823  1  -0.055059  0.000932  -0.084426  -0.174966  -0.000244  3.956931  0.002
C  C120  1  0.24630770  0.89919023  0.08615334  1  0.513258  -0.010499  0.049238  0.104841  -0.011324  3.937891  -0.006
C  C121  1  0.24630870  0.10080761  0.91384704  1  0.513266  -0.010499  0.049182  0.104798  -0.011324  3.937763  -0.006
C  C122  1  0.75369288  0.39919166  0.41384872  1  0.513444  -0.0105  0.049208  0.104824  -0.011325  3.937935  -0.006
C  C123  1  0.75369263  0.60080511  0.58615133  1  0.513496  -0.010498  0.049095  0.104752  -0.011323  3.937937  -0.006
C  C124  1  0.75369192  0.10080847  0.91384837  1  0.513262  -0.010497  0.049222  0.104858  -0.011322  3.937915  -0.006
C  C125  1  0.75368828  0.89919039  0.08615347  1  0.513261  -0.010497  0.04926  0.104893  -0.011322  3.93763  -0.006
C  C126  1  0.24631118  0.60080705  0.58615179  1  0.513268  -0.010496  0.04922  0.104831  -0.011321  3.937781  -0.006
C  C127  1  0.24631053  0.39919290  0.41384740  1  0.513253  -0.010494  0.0492  0.104821  -0.011319  3.937592  -0.006
N  N128  1  0.18392444  0.86448152  0.02453027  1  -1.209888  0.042103  -0.324224  -0.239868  0.021929  3.579279  0.041
N  N129  1  0.18392451  0.13551716  0.97546948  1  -1.209349  0.042103  -0.324202  -0.239866  0.02193  3.579294  0.041
N  N130  1  0.81607272  0.36448342  0.47547301  1  -1.20981  0.042108  -0.324194  -0.239836  0.02193  3.579659  0.041
N  N131  1  0.81607405  0.63551531  0.52452886  1  -1.209295  0.042104  -0.324107  -0.23972  0.02193  3.579482  0.041
N  N132  1  0.81607607  0.13551788  0.97547024  1  -1.209894  0.042104  -0.324197  -0.239834  0.021929  3.579353  0.041
N  N133  1  0.81607247  0.86448294  0.02452984  1  -1.2098  0.042104  -0.324194  -0.239886  0.021929  3.579204  0.041
N  N134  1  0.18392603  0.63551598  0.52452929  1  -1.209804  0.042101  -0.324189  -0.23984  0.021928  3.579328  0.041
N  N135  1  0.18393000  0.36448409  0.47547046  1  -1.209743  0.042098  -0.32426  -0.240026  0.021927  3.579312  0.041
N  N136  1  0.00000139  0.86625891  0.37046283  1  -1.30117  0.001192  -0.602452  -0.631605  0.000547  3.365523  0.001
N  N137  1  0.00000104  0.13374295  0.62953802  1  -1.301164  0.001192  -0.602411  -0.631488  0.000547  3.365446  0.001
N  N138  1  0.99999576  0.36626022  0.12953926  1  -1.301141  0.001192  -0.602491  -0.631645  0.000547  3.365728  0.001
N  N139  1  0.00000033  0.63374338  0.87046185  1  -1.301138  0.001192  -0.602362  -0.631454  0.000547  3.365353  0.001
O  O140  1  0.99999025  0.98374091  0.08686112  1  -1.181005  0.097327  -0.3137  -0.582811  0.051554  2.540099  0.082
O  O141  1  0.00000673  0.01626059  0.91313701  1  -1.180577  0.097319  -0.313711  -0.582841  0.051542  2.540217  0.082
O  O142  1  0.99999662  0.48374358  0.41313754  1  -1.180389  0.097322  -0.313702  -0.58282  0.051545  2.539851  0.082
O  O143  1  0.99999136  0.51625546  0.58686085  1  -1.181069  0.097306  -0.313639  -0.582645  0.05154  2.540099  0.082
O  O144  1  0.00000159  0.13940350  0.09616579  1  -1.140249  0.084277  -0.305931  -0.547047  0.045012  2.350893  0.071
O  O145  1  0.99999804  0.86059870  0.90383354  1  -1.140023  0.084297  -0.30598  -0.547121  0.045023  2.350402  0.071
O  O146  1  0.99999634  0.63940699  0.40383297  1  -1.140039  0.084281  -0.305941  -0.547034  0.045015  2.350761  0.071
O  O147  1  0.99999871  0.36059344  0.59616721  1  -1.13991  0.084287  -0.305972  -0.547026  0.045021  2.350606  0.071
O  O148  1  0.99999338  0.28898542  0.36304789  1  -1.151656  0.099163  -0.310334  -0.540583  0.050757  2.287523  0.087
O  O149  1  0.00000625  0.71101259  0.63695203  1  -1.151784  0.099179  -0.310327  -0.54055  0.050764  2.287371  0.087
O  O150  1  0.00000315  0.78898794  0.13695190  1  -1.151936  0.099161  -0.310294  -0.54052  0.050755  2.287622  0.087
O  O151  1  0.99999647  0.21101216  0.86304920  1  -1.151852  0.099174  -0.310286  -0.540489  0.050762  2.287519  0.087
O  O152  1  0.00000436  0.20561267  0.47294530  1  -1.137782  0.082371  -0.306205  -0.548718  0.041651  2.230915  0.071
O  O153  1  0.99999792  0.79438394  0.52705462  1  -1.137852  0.08237  -0.306241  -0.548738  0.04165  2.231051  0.071
O  O154  1  0.99999688  0.70561671  0.02705398  1  -1.137869  0.082378  -0.306264  -0.548769  0.041654  2.231026  0.071
O  O155  1  0.00000451  0.29438339  0.97294653  1  -1.137892  0.082373  -0.306237  -0.548771  0.041652  2.231155  0.071
