# generated using pymatgen
data_Zr3H35C36O19
_symmetry_space_group_name_H-M   'P 1'
_cell_length_a   14.79601107
_cell_length_b   14.72907902
_cell_length_c   14.74319153
_cell_angle_alpha   60.57984605
_cell_angle_beta   59.97236139
_cell_angle_gamma   59.63672925
_symmetry_Int_Tables_number   1
_chemical_formula_structural   Zr3H35C36O19
_chemical_formula_sum   'Zr6 H70 C72 O38'
_cell_volume   2274.86520826
_cell_formula_units_Z   2
loop_
 _symmetry_equiv_pos_site_id
 _symmetry_equiv_pos_as_xyz
  1  'x, y, z'
loop_
 _atom_site_type_symbol
 _atom_site_label
 _atom_site_symmetry_multiplicity
 _atom_site_fract_x
 _atom_site_fract_y
 _atom_site_fract_z
 _atom_site_occupancy
 _atom_site_pbe_bader_charge
 _atom_site_pbe_bader_spin_density
 _atom_site_pbe_cm5_charge
 _atom_site_pbe_ddec_charge
 _atom_site_pbe_ddec_spin_density
 _atom_site_pbe_ddec_sum_bond_order
 _atom_site_pbe_magmom
Zr  Zr0  1  0.88491774  0.87583549  0.62128220  1  2.6352  0  1.634595  2.372548  0  2.736699  0
Zr  Zr1  1  0.11882037  0.11809956  0.38364465  1  2.625424  0  1.627099  2.366228  0  2.744965  0
Zr  Zr2  1  0.12494249  0.87662947  0.61750003  1  2.629741  0  1.631424  2.367576  0  2.770137  0
Zr  Zr3  1  0.87950939  0.11487845  0.38862167  1  2.625169  0  1.635292  2.36059  0  2.802094  0
Zr  Zr4  1  0.12281486  0.88011355  0.37730089  1  2.631143  0  1.632658  2.364731  0  2.75947  0
Zr  Zr5  1  0.88357990  0.11506945  0.62606764  1  2.628368  0  1.629599  2.36831  0  2.751679  0
H  H6  1  0.09672187  0.71351609  0.59010657  1  0.595643  0  0.320984  0.408842  0  0.890085  0
H  H7  1  0.09072007  0.09469498  0.22031748  1  0.617499  0  0.324289  0.41095  0  0.884506  0
H  H8  1  0.09678328  0.09112918  0.59680762  1  0.608652  0  0.322714  0.406725  0  0.894509  0
H  H9  1  0.71959186  0.08907964  0.60277971  1  0.590926  0  0.32656  0.4127  0  0.879471  0
H  H10  1  0.23060750  0.28986651  0.55103809  1  0.028774  0  0.091735  0.124234  0  1.003374  0
H  H11  1  0.18565153  0.23438258  0.50451635  1  0.035038  0  0.087425  0.121097  0  1.056663  0
H  H12  1  0.26731620  0.31851082  0.40805756  1  0.048561  0  0.098912  0.14113  0  0.972704  0
H  H13  1  0.73165935  0.68662946  0.58281472  1  0.036538  0  0.09592  0.13537  0  0.982844  0
H  H14  1  0.80712494  0.77607828  0.48165881  1  0.053121  0  0.092331  0.13364  0  1.040012  0
H  H15  1  0.75793112  0.71787202  0.44196070  1  0.035192  0  0.090369  0.121036  0  1.011858  0
H  H16  1  0.26472760  0.43064678  0.48771232  1  0.031316  0  0.091337  0.126454  0  1.019016  0
H  H17  1  0.24544936  0.55543917  0.37589673  1  0.069872  0  0.100773  0.147047  0  0.971518  0
H  H18  1  0.19128817  0.56035155  0.51048689  1  0.039493  0  0.088677  0.123471  0  1.037642  0
H  H19  1  0.76577513  0.56884331  0.43899876  1  0.046134  0  0.090653  0.12461  0  1.010674  0
H  H20  1  0.79837047  0.42495620  0.51596062  1  0.071719  0  0.091178  0.135622  0  1.051183  0
H  H21  1  0.72395855  0.52535439  0.58395943  1  0.058006  0  0.095692  0.133519  0  0.981543  0
H  H22  1  0.41175350  0.26681177  0.98429394  1  0.045955  0  0.091102  0.126452  0  1.007794  0
H  H23  1  0.29259372  0.22707406  0.07118465  1  0.056597  0  0.091148  0.133386  0  1.014187  0
H  H24  1  0.38326910  0.20583606  0.12897038  1  0.04012  0  0.094731  0.13335  0  1.02696  0
H  H25  1  0.62135049  0.79138495  0.87666335  1  0.030419  0  0.094649  0.133789  0  1.02108  0
H  H26  1  0.71835126  0.76623802  0.92894001  1  0.054231  0  0.095467  0.14496  0  1.005372  0
H  H27  1  0.59970614  0.72571226  0.02002879  1  0.034165  0  0.090156  0.124013  0  1.013405  0
H  H28  1  0.57244892  0.18787845  0.00202533  1  0.001929  0  0.089702  0.12464  0  1.01533  0
H  H29  1  0.70065612  0.10674799  0.92705751  1  0.074171  0  0.096825  0.145885  0  1.003784  0
H  H30  1  0.60985238  0.22072467  0.85766523  1  0.049785  0  0.094055  0.129355  0  1.01414  0
H  H31  1  0.40584964  0.76861142  0.15055868  1  0.052173  0  0.098126  0.1398  0  0.997848  0
H  H32  1  0.31052452  0.88329416  0.08671782  1  0.089974  0  0.094758  0.140179  0  1.013  0
H  H33  1  0.43691748  0.80604939  0.00654700  1  0.016592  0  0.090543  0.126243  0  1.011462  0
H  H34  1  0.82093439  0.86117277  0.08667502  1  0.036435  0  0.090843  0.123488  0  1.001218  0
H  H35  1  0.89605401  0.87131131  0.94531771  1  0.039998  0  0.093895  0.13546  0  0.999495  0
H  H36  1  0.95599375  0.76365756  0.04744558  1  0.071957  0  0.094515  0.136444  0  1.008478  0
H  H37  1  0.06995274  0.22380741  0.92463913  1  0.061644  0  0.092577  0.129347  0  1.017674  0
H  H38  1  0.05625672  0.15738722  0.06522928  1  -0.00733  0  0.087829  0.119897  0  1.033503  0
H  H39  1  0.18208218  0.10640205  0.96369149  1  0.034806  0  0.091384  0.126802  0  0.991249  0
H  H40  1  0.92138213  0.85117549  0.28617425  1  0.026156  0  0.095075  0.135612  0  1.012724  0
H  H41  1  0.81259218  0.88026890  0.24560543  1  0.020813  0  0.091491  0.122519  0  1.002311  0
H  H42  1  0.93721013  0.76637143  0.22267605  1  0.058449  0  0.098643  0.139259  0  0.980001  0
H  H43  1  0.17270915  0.14235573  0.78290598  1  0.024852  0  0.094029  0.129095  0  0.999024  0
H  H44  1  0.13695426  0.09227598  0.72303318  1  -0.002144  0  0.088287  0.115129  0  1.025947  0
H  H45  1  0.04363106  0.21506408  0.75969914  1  0.085005  0  0.094249  0.135957  0  0.999337  0
H  H46  1  0.44109282  0.76611917  0.30350684  1  0.066531  0  0.094258  0.139401  0  1.03198  0
H  H47  1  0.57303208  0.73723511  0.30378459  1  0.035639  0  0.091451  0.124489  0  0.991949  0
H  H48  1  0.56368242  0.68337668  0.22634660  1  0.026138  0  0.094719  0.133036  0  0.998966  0
H  H49  1  0.41641237  0.28917417  0.72097742  1  0.039742  0  0.091937  0.123719  0  1.014076  0
H  H50  1  0.56249331  0.22603404  0.66927309  1  0.016838  0  0.088306  0.11918  0  1.024052  0
H  H51  1  0.50408152  0.30480767  0.75670866  1  0.063471  0  0.096063  0.13516  0  1.000028  0
H  H52  1  0.73086560  0.58301506  0.28406149  1  0.011206  0  0.089979  0.120727  0  1.013139  0
H  H53  1  0.78972085  0.43682386  0.33705645  1  0.037449  0  0.092052  0.130413  0  1.0174  0
H  H54  1  0.71888159  0.49638448  0.24280482  1  0.079181  0  0.095159  0.138928  0  0.999225  0
H  H55  1  0.29539255  0.51007013  0.74944811  1  0.049057  0  0.097091  0.140182  0  0.977305  0
H  H56  1  0.22553263  0.56653346  0.65585777  1  0.016307  0  0.086629  0.114188  0  1.058107  0
H  H57  1  0.28297459  0.42182511  0.71046899  1  0.03134  0  0.091334  0.12646  0  1.007603  0
H  H58  1  0.30165156  0.88574644  0.73527734  1  0.0598  0  0.093259  0.137115  0  1.004459  0
H  H59  1  0.38857288  0.78761721  0.66493445  1  0.051578  0  0.098939  0.146538  0  0.998114  0
H  H60  1  0.43363748  0.79597524  0.75046389  1  0.014144  0  0.089888  0.124794  0  1.025294  0
H  H61  1  0.59841510  0.16814041  0.23350643  1  0.024287  0  0.086677  0.119469  0  1.037733  0
H  H62  1  0.62428653  0.19573886  0.32063306  1  0.0596  0  0.097621  0.145664  0  0.993457  0
H  H63  1  0.72255056  0.08633156  0.26721460  1  0.067981  0  0.093579  0.141012  0  1.01715  0
H  H64  1  0.59852433  0.80782574  0.72683007  1  0.049454  0  0.096314  0.132215  0  0.99415  0
H  H65  1  0.57646341  0.94197959  0.71388977  1  0.044387  0  0.090908  0.130266  0  1.029356  0
H  H66  1  0.46126790  0.89840241  0.77491969  1  0.042727  0  0.091029  0.125955  0  1.008092  0
H  H67  1  0.55292498  0.07555563  0.21978280  1  0.024588  0  0.090489  0.124841  0  1.009891  0
H  H68  1  0.42925791  0.04488446  0.28406029  1  0.051562  0  0.093693  0.137898  0  1.02891  0
H  H69  1  0.42235071  0.17571855  0.26480971  1  0.039253  0  0.095156  0.130165  0  0.995792  0
H  H70  1  0.10116079  0.37671150  0.18947046  1  0.651086  0  0.31121  0.355506  0  0.973721  0
H  H71  1  0.12142877  0.67504724  0.87648865  1  0.644895  0  0.314506  0.358866  0  0.951787  0
H  H72  1  0.82053605  0.31786863  0.19626886  1  0.671943  0  0.305314  0.352382  0  1.005388  0
H  H73  1  0.73895983  0.31882693  0.05340089  1  0.629288  0  0.331426  0.377499  0  0.884004  0
H  H74  1  0.84382752  0.39460225  0.78664382  1  0.618463  0  0.344478  0.384671  0  0.855626  0
H  H75  1  0.00302934  0.53554320  0.66557407  1  0.617505  0  0.315556  0.346552  0  0.94014  0
C  C76  1  0.99972580  0.70341511  0.48523253  1  1.544459  0  0.237636  0.649809  0  4.093021  0
C  C77  1  0.30166231  0.00625253  0.19098383  1  1.515169  0  0.235512  0.637387  0  4.07159  0
C  C78  1  0.99626809  0.30613325  0.50165578  1  1.560176  0  0.241135  0.662728  0  4.073168  0
C  C79  1  0.71081439  0.98517918  0.81850203  1  1.530957  0  0.237801  0.642576  0  4.068117  0
C  C80  1  0.01313960  0.68409085  0.79839290  1  1.508353  0  0.232453  0.649058  0  4.082363  0
C  C81  1  0.69590478  0.99882177  0.50357935  1  1.521919  0  0.23721  0.642602  0  4.068878  0
C  C82  1  0.98474694  0.31301717  0.19989227  1  1.456876  0  0.228045  0.631192  0  4.081524  0
C  C83  1  0.31434494  0.98930403  0.49306012  1  1.551936  0  0.238838  0.649269  0  4.053325  0
C  C84  1  0.31266459  0.69730253  0.48961143  1  1.546222  0  0.241226  0.664157  0  4.084748  0
C  C85  1  0.00518862  0.99099454  0.80895845  1  1.551099  0  0.239987  0.664001  0  4.105834  0
C  C86  1  0.70149472  0.30511292  0.50455861  1  1.52038  0  0.239629  0.659855  0  4.093899  0
C  C87  1  0.99645675  0.99754688  0.19979110  1  1.562758  0  0.238587  0.659908  0  4.109541  0
C  C88  1  0.99664725  0.40988467  0.49684784  1  -0.034052  0  -0.016491  -0.149662  0  3.914789  0
C  C89  1  0.99953950  0.60241543  0.48420598  1  -0.074471  0  -0.021416  -0.173781  0  3.945906  0
C  C90  1  0.09659334  0.41061923  0.48635212  1  0.0234  0  -0.006104  0.093983  0  3.916783  0
C  C91  1  0.89982554  0.60131293  0.49523468  1  0.00777  0  -0.004972  0.097346  0  3.933809  0
C  C92  1  0.09877846  0.50905404  0.47782185  1  -0.008889  0  -0.007089  0.086805  0  3.927218  0
C  C93  1  0.89857108  0.50371671  0.50087454  1  0.041425  0  -0.006357  0.096181  0  3.923719  0
C  C94  1  0.40043072  0.00756471  0.08672331  1  -0.004137  0  -0.018926  -0.168818  0  3.89725  0
C  C95  1  0.61177644  0.98372421  0.92281290  1  -0.080261  0  -0.017387  -0.16382  0  3.888215  0
C  C96  1  0.44702678  0.09148189  0.03885035  1  0.002286  0  -0.001479  0.102312  0  3.895561  0
C  C97  1  0.56454844  0.90053827  0.96942965  1  0.03592  0  -0.001339  0.100349  0  3.895508  0
C  C98  1  0.55657540  0.07511673  0.96319850  1  0.033941  0  -0.00153  0.099793  0  3.893099  0
C  C99  1  0.45551553  0.91620204  0.04628160  1  -0.065028  0  -0.000381  0.102715  0  3.894882  0
C  C100  1  0.00393984  0.99169833  0.91086412  1  -0.057374  0  -0.020874  -0.156328  0  3.956272  0
C  C101  1  0.99680157  0.99753247  0.09792507  1  -0.014744  0  -0.020389  -0.152486  0  3.951591  0
C  C102  1  0.95417616  0.92472149  0.01401330  1  0.032229  0  -0.008702  0.092144  0  3.945806  0
C  C103  1  0.04440835  0.06656870  0.99466441  1  -0.009287  0  -0.012839  0.084396  0  3.946105  0
C  C104  1  0.95253738  0.92615421  0.10958415  1  0.009266  0  -0.00947  0.086373  0  3.948256  0
C  C105  1  0.04983199  0.06202914  0.89894731  1  0.040417  0  -0.012329  0.081996  0  3.950327  0
C  C106  1  0.41408478  0.59518336  0.49131367  1  -0.05304  0  -0.017281  -0.151844  0  3.935434  0
C  C107  1  0.60141014  0.40826685  0.50122731  1  -0.000186  0  -0.019193  -0.155333  0  3.945957  0
C  C108  1  0.51406454  0.59846186  0.40242436  1  0.01738  0  -0.007156  0.093439  0  3.936271  0
C  C109  1  0.50132129  0.40474920  0.59019854  1  -0.024584  0  -0.010354  0.085547  0  3.940215  0
C  C110  1  0.60977477  0.50290164  0.40757818  1  0.013869  0  -0.006531  0.093742  0  3.936477  0
C  C111  1  0.40570904  0.50027536  0.58538219  1  0.039159  0  -0.00772  0.090554  0  3.935529  0
C  C112  1  0.02386068  0.57635381  0.88860576  1  0.037253  0  -0.032728  -0.197034  0  3.956436  0
C  C113  1  0.97453220  0.50213075  0.90913700  1  0.074213  0  -0.028201  -0.039944  0  4.032681  0
C  C114  1  0.06564915  0.55739099  0.96490977  1  0.541304  0  0.083844  0.200906  0  4.057874  0
C  C115  1  0.96598001  0.49565589  0.82144224  1  0.53199  0  0.055373  0.14664  0  4.094893  0
C  C116  1  0.89861556  0.44217333  0.84360492  1  0.486197  0  0.047043  0.079347  0  4.164045  0
C  C117  1  0.98514993  0.40881422  0.09781230  1  0.002988  0  -0.044509  -0.240604  0  3.942895  0
C  C118  1  0.05412179  0.46680843  0.06608992  1  0.581652  0  0.092145  0.225262  0  4.02571  0
C  C119  1  0.93343463  0.43418472  0.02120466  1  -0.026365  0  -0.026874  -0.043769  0  4.001078  0
C  C120  1  0.85305718  0.39437359  0.04134924  1  0.547234  0  0.046557  0.12253  0  4.116363  0
C  C121  1  0.83757809  0.39839518  0.95319951  1  0.514069  0  0.047263  0.091961  0  4.16327  0
C  C122  1  0.41923676  0.98272105  0.49274283  1  -0.069578  0  -0.016963  -0.160507  0  3.887903  0
C  C123  1  0.59516923  0.99971943  0.50128089  1  -0.071895  0  -0.017092  -0.159993  0  3.890367  0
C  C124  1  0.44468762  0.92520417  0.59231803  1  -0.028602  0  -0.001826  0.101078  0  3.891644  0
C  C125  1  0.57214206  0.05426672  0.40058954  1  0.034348  0  -0.001381  0.102793  0  3.890045  0
C  C126  1  0.52925975  0.93930113  0.59766956  1  0.047277  0  -0.003591  0.097017  0  3.905067  0
C  C127  1  0.48611509  0.04182252  0.39600450  1  0.035194  0  -0.003687  0.098294  0  3.908849  0
C  C128  1  0.19958506  0.30794933  0.48790023  1  -0.039076  0  -0.240725  -0.402999  0  3.972287  0
C  C129  1  0.79467985  0.70113099  0.49988027  1  -0.054824  0  -0.242008  -0.407855  0  3.971599  0
C  C130  1  0.20524155  0.51352537  0.46285591  1  -0.055256  0  -0.242273  -0.403163  0  3.959987  0
C  C131  1  0.79216055  0.50449309  0.51015438  1  -0.111457  0  -0.242712  -0.406307  0  3.957616  0
C  C132  1  0.38036293  0.20316697  0.05744926  1  -0.045863  0  -0.244497  -0.408348  0  3.974043  0
C  C133  1  0.62945218  0.79058022  0.94716632  1  -0.035065  0  -0.244036  -0.410627  0  3.966593  0
C  C134  1  0.61259946  0.15189338  0.93557632  1  -0.033649  0  -0.243158  -0.410591  0  3.972965  0
C  C135  1  0.39936038  0.83930189  0.07454286  1  -0.059202  0  -0.243942  -0.414358  0  3.969949  0
C  C136  1  0.90417641  0.85184039  0.02348813  1  -0.072056  0  -0.237775  -0.400616  0  3.955333  0
C  C137  1  0.09076679  0.14201812  0.98658751  1  -0.045394  0  -0.238867  -0.397627  0  3.960855  0
C  C138  1  0.90358935  0.85255023  0.22168118  1  -0.040206  0  -0.23584  -0.39707  0  3.955798  0
C  C139  1  0.10310780  0.13156242  0.78568605  1  -0.064533  0  -0.236781  -0.392941  0  3.959434  0
C  C140  1  0.52236828  0.70189829  0.30444370  1  -0.050585  0  -0.240221  -0.405588  0  3.957435  0
C  C141  1  0.49581484  0.30102861  0.68859841  1  -0.070527  0  -0.236689  -0.389496  0  3.964758  0
C  C142  1  0.71802102  0.50451491  0.31365412  1  -0.062978  0  -0.241875  -0.409138  0  3.973031  0
C  C143  1  0.29732461  0.49973023  0.67935171  1  -0.032823  0  -0.240837  -0.399582  0  3.973533  0
C  C144  1  0.38901082  0.84510676  0.69125517  1  -0.015706  0  -0.245578  -0.412074  0  3.967583  0
C  C145  1  0.63273861  0.12924315  0.29978449  1  -0.068813  0  -0.249326  -0.418562  0  3.969083  0
C  C146  1  0.54215400  0.89469572  0.70890655  1  -0.065948  0  -0.244283  -0.413496  0  3.997008  0
C  C147  1  0.47169627  0.08652697  0.28566676  1  -0.045722  0  -0.245443  -0.415533  0  3.993416  0
O  O148  1  0.92532916  0.73992456  0.56588919  1  -1.175413  0  -0.352068  -0.613503  0  2.317311  0
O  O149  1  0.26088003  0.08165109  0.23487071  1  -1.180547  0  -0.357578  -0.620731  0  2.326008  0
O  O150  1  0.06989583  0.26701157  0.42215668  1  -1.192456  0  -0.361369  -0.620809  0  2.285868  0
O  O151  1  0.74723475  0.91350383  0.77192305  1  -1.177534  0  -0.354056  -0.614356  0  2.332983  0
O  O152  1  0.08459372  0.73032777  0.76442420  1  -1.186376  0  -0.354614  -0.645278  0  2.315005  0
O  O153  1  0.73412012  0.07735372  0.43213941  1  -1.17994  0  -0.357262  -0.608562  0  2.355134  0
O  O154  1  0.91517998  0.26304021  0.24240126  1  -1.199193  0  -0.350315  -0.612955  0  2.424148  0
O  O155  1  0.27193583  0.91469105  0.56743097  1  -1.188598  0  -0.356271  -0.608775  0  2.372744  0
O  O156  1  0.27176678  0.73628181  0.41391398  1  -1.176324  0  -0.35137  -0.619511  0  2.268889  0
O  O157  1  0.92819212  0.06918652  0.77036667  1  -1.182466  0  -0.351646  -0.613156  0  2.273927  0
O  O158  1  0.74011608  0.26477217  0.58224627  1  -1.179742  0  -0.349205  -0.618065  0  2.267164  0
O  O159  1  0.07867878  0.92475940  0.23287871  1  -1.178932  0  -0.351439  -0.612106  0  2.27  0
O  O160  1  0.08261564  0.91404634  0.76762634  1  -1.193144  0  -0.352802  -0.624667  0  2.247944  0
O  O161  1  0.74019568  0.26340812  0.42883648  1  -1.176301  0  -0.356816  -0.612098  0  2.291347  0
O  O162  1  0.91573235  0.07006392  0.24529920  1  -1.194999  0  -0.349737  -0.619841  0  2.275678  0
O  O163  1  0.27309995  0.73750450  0.56660428  1  -1.175369  0  -0.354203  -0.610393  0  2.296681  0
O  O164  1  0.93234542  0.72961575  0.76323222  1  -1.169666  0  -0.34401  -0.599708  0  2.311731  0
O  O165  1  0.26813615  0.07243298  0.42315486  1  -1.188601  0  -0.350008  -0.617604  0  2.300549  0
O  O166  1  0.05780649  0.27702023  0.24457134  1  -1.181203  0  -0.336427  -0.612446  0  2.3283  0
O  O167  1  0.74149329  0.91820324  0.57471667  1  -1.183607  0  -0.346619  -0.610274  0  2.322473  0
O  O168  1  0.74886147  0.06378746  0.77507949  1  -1.185797  0  -0.354876  -0.613592  0  2.356684  0
O  O169  1  0.07536384  0.74381423  0.40892498  1  -1.179043  0  -0.350899  -0.605511  0  2.293289  0
O  O170  1  0.26627580  0.92541555  0.23682326  1  -1.185778  0  -0.351341  -0.608647  0  2.361316  0
O  O171  1  0.92486366  0.26273241  0.58340763  1  -1.179829  0  -0.346712  -0.610516  0  2.259778  0
O  O172  1  0.80015137  0.06290130  0.57503588  1  -1.222108  0  -0.698035  -1.070444  0  2.394035  0
O  O173  1  0.07028754  0.06412063  0.56980364  1  -1.239251  0  -0.697773  -1.067615  0  2.396383  0
O  O174  1  0.06497982  0.06876409  0.30042293  1  -1.251073  0  -0.700282  -1.069521  0  2.39104  0
O  O175  1  0.07259855  0.79406720  0.56427456  1  -1.229283  0  -0.692159  -1.060311  0  2.351651  0
O  O176  1  0.15061181  0.94949781  0.44944429  1  -1.194241  0  -0.795012  -1.147966  0  2.155715  0
O  O177  1  0.95277604  0.94768149  0.45234250  1  -1.199746  0  -0.797678  -1.15085  0  2.163914  0
O  O178  1  0.95003845  0.14637058  0.45644860  1  -1.198154  0  -0.794795  -1.146272  0  2.140718  0
O  O179  1  0.95574201  0.94586364  0.65017109  1  -1.196461  0  -0.794325  -1.148971  0  2.147102  0
O  O180  1  0.11059505  0.44618660  0.12622605  1  -1.13345  0  -0.338076  -0.39975  0  2.2844  0
O  O181  1  0.11616554  0.61960208  0.95207504  1  -1.136371  0  -0.339573  -0.407564  0  2.302733  0
O  O182  1  0.78182814  0.35218688  0.14157271  1  -1.194983  0  -0.378852  -0.48234  0  2.334597  0
O  O183  1  0.76574072  0.35315588  0.97274835  1  -1.135474  0  -0.364887  -0.442879  0  2.256974  0
O  O184  1  0.89379859  0.43488440  0.75693485  1  -1.121246  0  -0.346468  -0.430395  0  2.326621  0
O  O185  1  0.02920786  0.53616677  0.71454721  1  -1.139935  0  -0.354013  -0.432951  0  2.381583  0
