# generated using pymatgen
data_CdH18C26N2(ClO2)2
_symmetry_space_group_name_H-M   'P 1'
_cell_length_a   9.78918414
_cell_length_b   11.20119916
_cell_length_c   11.53400000
_cell_angle_alpha   88.23793266
_cell_angle_beta   71.27141031
_cell_angle_gamma   82.86661491
_symmetry_Int_Tables_number   1
_chemical_formula_structural   CdH18C26N2(ClO2)2
_chemical_formula_sum   'Cd2 H36 C52 N4 Cl4 O8'
_cell_volume   1188.41701530
_cell_formula_units_Z   2
loop_
 _symmetry_equiv_pos_site_id
 _symmetry_equiv_pos_as_xyz
  1  'x, y, z'
loop_
 _atom_site_type_symbol
 _atom_site_label
 _atom_site_symmetry_multiplicity
 _atom_site_fract_x
 _atom_site_fract_y
 _atom_site_fract_z
 _atom_site_occupancy
 _atom_site_pbe_bader_charge
 _atom_site_pbe_bader_spin_density
 _atom_site_pbe_cm5_charge
 _atom_site_pbe_ddec_charge
 _atom_site_pbe_ddec_spin_density
 _atom_site_pbe_ddec_sum_bond_order
 _atom_site_pbe_magmom
Cd  Cd0  1  0.07884841  0.11106737  0.58030014  1  1.286287  0  0.772907  0.882097  0  2.202454  0
Cd  Cd1  1  0.92115310  0.88893306  0.41969926  1  1.286281  0  0.772904  0.882113  0  2.20243  0
H  H2  1  0.74146410  0.19905119  0.69728948  1  0.111389  0  0.110941  0.082284  0  1.025912  0
H  H3  1  0.25853552  0.80094744  0.30271136  1  0.111423  0  0.110941  0.082306  0  1.025906  0
H  H4  1  0.56293213  0.37918476  0.70614702  1  0.070539  0  0.10274  0.107745  0  1.024669  0
H  H5  1  0.43706735  0.62081477  0.29385209  1  0.070609  0  0.102717  0.107722  0  1.024622  0
H  H6  1  0.88779569  0.52157035  0.40138273  1  0.123051  0  0.105987  0.121438  0  1.027044  0
H  H7  1  0.11220393  0.47842827  0.59861724  1  0.123033  0  0.105982  0.121423  0  1.027039  0
H  H8  1  0.05522235  0.33334787  0.40746691  1  0.110636  0  0.11379  0.088121  0  1.014871  0
H  H9  1  0.94477713  0.66665165  0.59253394  1  0.110608  0  0.1138  0.088139  0  1.014842  0
H  H10  1  0.66987197  0.64029295  0.47806292  1  0.14931  0  0.109388  0.12673  0  1.038014  0
H  H11  1  0.33012873  0.35970568  0.52193503  1  0.149288  0  0.109377  0.126739  0  1.038044  0
H  H12  1  0.44759834  0.56510203  0.71800488  1  0.042282  0  0.099147  0.093583  0  1.032025  0
H  H13  1  0.55240127  0.43489660  0.28199596  1  0.042288  0  0.099142  0.093581  0  1.032053  0
H  H14  1  0.23180829  0.70543706  0.79740655  1  0.073604  0  0.104428  0.111256  0  1.025094  0
H  H15  1  0.76819133  0.29456157  0.20259255  1  0.073601  0  0.104415  0.111241  0  1.025077  0
H  H16  1  0.07779673  0.89555985  0.77565180  1  0.111167  0  0.118015  0.090327  0  1.004339  0
H  H17  1  0.92220478  0.10444058  0.22434934  1  0.111168  0  0.118024  0.090345  0  1.004343  0
H  H18  1  0.38927806  0.98438945  0.45788756  1  0.095777  0  0.108017  0.078498  0  1.043187  0
H  H19  1  0.61072237  0.01561098  0.54211387  1  0.095871  0  0.108019  0.078501  0  1.043162  0
H  H20  1  0.55897679  0.80200107  0.46671347  1  0.131602  0  0.108426  0.126583  0  1.021011  0
H  H21  1  0.44102377  0.19799846  0.53328709  1  0.131608  0  0.108423  0.126601  0  1.020943  0
H  H22  1  0.97429557  0.22460280  0.01105672  1  0.100387  0  0.104594  0.108059  0  1.003967  0
H  H23  1  0.02570270  0.77539762  0.98894356  1  0.100377  0  0.104599  0.108062  0  1.00397  0
H  H24  1  0.01177576  0.33588252  0.18316197  1  0.059542  0  0.100318  0.106803  0  1.021922  0
H  H25  1  0.98822130  0.66411881  0.81683775  1  0.059537  0  0.100331  0.106783  0  1.021936  0
H  H26  1  0.32525115  0.52706254  0.91974316  1  0.062561  0  0.09756  0.104364  0  1.01624  0
H  H27  1  0.67474699  0.47293879  0.08025627  1  0.062546  0  0.097551  0.104353  0  1.016276  0
H  H28  1  0.28454906  0.41592948  0.74878950  1  0.091796  0  0.099378  0.098386  0  1.027977  0
H  H29  1  0.71544921  0.58407094  0.25121252  1  0.091786  0  0.099402  0.098397  0  1.027852  0
H  H30  1  0.40042077  0.22932659  0.19076860  1  0.102282  0  0.099082  0.103139  0  1.020583  0
H  H31  1  0.59958384  0.77067474  0.80922646  1  0.102332  0  0.099108  0.103167  0  1.02056  0
H  H32  1  0.50791964  0.23916735  0.96192898  1  0.074175  0  0.101873  0.114673  0  0.990581  0
H  H33  1  0.49208213  0.76083128  0.03806694  1  0.074437  0  0.101859  0.114607  0  0.990586  0
H  H34  1  0.24549414  0.97043855  0.92450727  1  0.082457  0  0.101106  0.112259  0  1.006794  0
H  H35  1  0.75450319  0.02956098  0.07549416  1  0.082478  0  0.101087  0.112213  0  1.006763  0
H  H36  1  0.14294065  0.95782560  0.15128089  1  0.149315  0  0.102851  0.12129  0  1.051201  0
H  H37  1  0.85705965  0.04217573  0.84872055  1  0.149292  0  0.102865  0.121322  0  1.05119  0
C  C38  1  0.76935561  0.27321187  0.63397315  1  0.45783  0  0.039752  0.089409  0  3.967463  0
C  C39  1  0.23064496  0.72678765  0.36602740  1  0.457559  0  0.03975  0.089391  0  3.967438  0
C  C40  1  0.67063372  0.37452846  0.63811857  1  -0.030113  0  -0.087736  -0.176377  0  3.943963  0
C  C41  1  0.32936387  0.62546927  0.36188112  1  -0.029824  0  -0.087739  -0.176345  0  3.943894  0
C  C42  1  0.71207781  0.46860551  0.55534258  1  -0.017671  0  0.005643  0.145124  0  4.01032  0
C  C43  1  0.28792072  0.53139312  0.44465682  1  -0.01769  0  0.005693  0.145165  0  4.010416  0
C  C44  1  0.85184710  0.45147482  0.46814058  1  -0.039058  0  -0.083486  -0.178329  0  3.917615  0
C  C45  1  0.14815251  0.54852380  0.53186112  1  -0.0392  0  -0.083501  -0.178311  0  3.917566  0
C  C46  1  0.94438188  0.34771717  0.47084603  1  0.48342  0  0.043801  0.091751  0  3.959641  0
C  C47  1  0.05561653  0.65228236  0.52915424  1  0.48356  0  0.043817  0.091758  0  3.959605  0
C  C48  1  0.62257807  0.58218053  0.55460340  1  -0.036389  0  -0.073347  -0.100339  0  3.910197  0
C  C49  1  0.37741696  0.41781990  0.44539950  1  -0.036356  0  -0.073374  -0.10041  0  3.910218  0
C  C50  1  0.49416992  0.62102981  0.63931707  1  -0.041145  0  -0.082557  -0.121052  0  3.943205  0
C  C51  1  0.50583185  0.37896881  0.36068058  1  -0.041071  0  -0.082541  -0.121017  0  3.943159  0
C  C52  1  0.40810631  0.73502953  0.63222653  1  0.006877  0  0.012211  0.160857  0  4.001203  0
C  C53  1  0.59189331  0.26496910  0.36777344  1  0.006864  0  0.012241  0.160882  0  4.001317  0
C  C54  1  0.27135633  0.76544349  0.72085776  1  -0.057999  0  -0.086137  -0.18906  0  3.927674  0
C  C55  1  0.72864423  0.23455604  0.27914193  1  -0.057994  0  -0.086136  -0.18903  0  3.927647  0
C  C56  1  0.18510454  0.87057059  0.70936783  1  0.480961  0  0.046124  0.097618  0  3.964064  0
C  C57  1  0.81489710  0.12942894  0.29063330  1  0.480967  0  0.046136  0.097565  0  3.964102  0
C  C58  1  0.35976122  0.91986528  0.53188532  1  0.456353  0  0.038323  0.080305  0  3.975429  0
C  C59  1  0.64023921  0.08013514  0.46811525  1  0.45631  0  0.038323  0.080312  0  3.975407  0
C  C60  1  0.45297928  0.81767233  0.53703688  1  -0.026199  0  -0.07828  -0.160536  0  3.891261  0
C  C61  1  0.54702236  0.18232720  0.46296252  1  -0.026235  0  -0.078266  -0.160541  0  3.891236  0
C  C62  1  0.10676799  0.24473421  0.76961918  1  1.548766  0  0.180985  0.541903  0  4.279469  0
C  C63  1  0.89323028  0.75526621  0.23038024  1  1.548744  0  0.180969  0.541868  0  4.279483  0
C  C64  1  0.12664704  0.31434027  0.87063294  1  0.037095  0  -0.023441  -0.040898  0  3.985132  0
C  C65  1  0.87335163  0.68565746  0.12936818  1  0.03714  0  -0.02342  -0.040794  0  3.985143  0
C  C66  1  0.04966215  0.29204312  0.99279923  1  -0.072158  0  -0.08054  -0.069985  0  3.96451  0
C  C67  1  0.95033707  0.70795821  0.00720077  1  -0.072155  0  -0.080526  -0.070026  0  3.964429  0
C  C68  1  0.07047705  0.35319765  0.08784190  1  0.010144  0  -0.097091  -0.153144  0  3.99244  0
C  C69  1  0.92952110  0.64680367  0.91215752  1  0.010195  0  -0.097159  -0.153133  0  3.992481  0
C  C70  1  0.17014378  0.43713882  0.05965388  1  0.054365  0  0.014759  0.159286  0  4.045405  0
C  C71  1  0.82985545  0.56286251  0.94034612  1  0.054341  0  0.014814  0.159334  0  4.045303  0
C  C72  1  0.24791664  0.46118512  0.93839888  1  -0.012053  0  -0.105416  -0.175142  0  4.031318  0
C  C73  1  0.75208042  0.53881621  0.06160171  1  -0.012025  0  -0.105391  -0.175133  0  4.031285  0
C  C74  1  0.22530923  0.39964458  0.84440677  1  -0.0881  0  -0.088574  -0.087095  0  3.998192  0
C  C75  1  0.77468999  0.60035674  0.15559236  1  -0.088138  0  -0.08861  -0.087142  0  3.998246  0
C  C76  1  0.20347402  0.08951702  0.32148217  1  1.556197  0  0.192922  0.558321  0  4.232941  0
C  C77  1  0.79652938  0.91048520  0.67851666  1  1.556408  0  0.19286  0.558327  0  4.232843  0
C  C78  1  0.26528421  0.09388630  0.18510411  1  -0.053664  0  -0.0288  -0.057747  0  4.008299  0
C  C79  1  0.73471824  0.90611503  0.81489501  1  -0.053643  0  -0.028721  -0.05766  0  4.008189  0
C  C80  1  0.36809052  0.17280765  0.13125203  1  -0.025197  0  -0.084323  -0.075816  0  3.977995  0
C  C81  1  0.63191207  0.82719277  0.86874534  1  -0.025299  0  -0.084385  -0.075928  0  3.978028  0
C  C82  1  0.42737566  0.17863365  0.00454494  1  0.012037  0  -0.09693  -0.155946  0  4.004629  0
C  C83  1  0.57262719  0.82136497  0.99545155  1  0.011806  0  -0.096909  -0.15578  0  4.004653  0
C  C84  1  0.38174850  0.10535654  0.93180974  1  -0.021903  0  0.019182  0.157742  0  4.036782  0
C  C85  1  0.61825220  0.89464208  0.06818820  1  -0.021894  0  0.019172  0.157685  0  4.036809  0
C  C86  1  0.27940581  0.02625163  0.98347749  1  0.017065  0  -0.094327  -0.141621  0  3.982609  0
C  C87  1  0.72059381  0.97374699  0.01652161  1  0.017075  0  -0.094317  -0.141525  0  3.982528  0
C  C88  1  0.22189729  0.02027717  0.11045743  1  -0.044719  0  -0.087417  -0.091232  0  3.95272  0
C  C89  1  0.77810409  0.97972415  0.88954285  1  -0.044746  0  -0.087439  -0.091329  0  3.952727  0
N  N90  1  0.90469642  0.26018323  0.55298466  1  -1.203825  0  -0.330548  -0.230956  0  3.488231  0
N  N91  1  0.09530225  0.73981450  0.44701646  1  -1.203814  0  -0.330546  -0.230989  0  3.488245  0
N  N92  1  0.22740814  0.94606833  0.61531021  1  -1.213486  0  -0.332588  -0.238434  0  3.51867  0
N  N93  1  0.77259431  0.05393300  0.38469064  1  -1.213504  0  -0.332624  -0.238449  0  3.518713  0
Cl  Cl94  1  0.20034780  0.51144076  0.17686753  1  -0.225852  0  0.006909  -0.072061  0  1.586282  0
Cl  Cl95  1  0.79964926  0.48856056  0.82313219  1  -0.225862  0  0.006874  -0.07211  0  1.586231  0
Cl  Cl96  1  0.45307696  0.11331139  0.77400438  1  -0.22149  0  0.025811  -0.060283  0  1.642433  0
Cl  Cl97  1  0.54692292  0.88668544  0.22599384  1  -0.221458  0  0.025801  -0.0603  0  1.64244  0
O  O98  1  0.01976445  0.16494368  0.79736398  1  -1.161694  0  -0.338001  -0.566912  0  2.199832  0
O  O99  1  0.98023490  0.83505674  0.20263774  1  -1.161657  0  -0.33801  -0.566937  0  2.199838  0
O  O100  1  0.17928769  0.26747225  0.65920536  1  -1.180367  0  -0.336881  -0.577563  0  2.244039  0
O  O101  1  0.82070721  0.73252907  0.34079582  1  -1.180384  0  -0.33685  -0.577518  0  2.243971  0
O  O102  1  0.11153580  0.01606446  0.37124687  1  -1.205494  0  -0.34152  -0.591656  0  2.344649  0
O  O103  1  0.88846760  0.98393777  0.62875283  1  -1.20536  0  -0.34151  -0.591664  0  2.344566  0
O  O104  1  0.24380966  0.16012902  0.38537482  1  -1.170783  0  -0.329048  -0.547808  0  2.198517  0
O  O105  1  0.75619361  0.83987410  0.61462402  1  -1.171133  0  -0.329003  -0.547789  0  2.19853  0
