# generated using pymatgen
data_SnH13C9NO2
_symmetry_space_group_name_H-M   'P 1'
_cell_length_a   6.39352839
_cell_length_b   9.09949725
_cell_length_c   9.74828562
_cell_angle_alpha   79.56926780
_cell_angle_beta   71.35148047
_cell_angle_gamma   75.81300033
_symmetry_Int_Tables_number   1
_chemical_formula_structural   SnH13C9NO2
_chemical_formula_sum   'Sn2 H26 C18 N2 O4'
_cell_volume   517.70540799
_cell_formula_units_Z   2
loop_
 _symmetry_equiv_pos_site_id
 _symmetry_equiv_pos_as_xyz
  1  'x, y, z'
loop_
 _atom_site_type_symbol
 _atom_site_label
 _atom_site_symmetry_multiplicity
 _atom_site_fract_x
 _atom_site_fract_y
 _atom_site_fract_z
 _atom_site_occupancy
 _atom_site_hle17_bader_spin_density
 _atom_site_hle17_ddec_charge
 _atom_site_hle17_ddec_spin_density
 _atom_site_hle17_ddec_sum_bond_order
 _atom_site_hle17_magmom
 _atom_site_hse06_10hf_bader_spin_density
 _atom_site_hse06_10hf_ddec_charge
 _atom_site_hse06_10hf_ddec_spin_density
 _atom_site_hse06_10hf_ddec_sum_bond_order
 _atom_site_hse06_10hf_magmom
 _atom_site_hse06_bader_spin_density
 _atom_site_hse06_ddec_charge
 _atom_site_hse06_ddec_spin_density
 _atom_site_hse06_ddec_sum_bond_order
 _atom_site_hse06_magmom
 _atom_site_pbe_bader_spin_density
 _atom_site_pbe_cm5_charge
 _atom_site_pbe_ddec_charge
 _atom_site_pbe_ddec_spin_density
 _atom_site_pbe_ddec_sum_bond_order
 _atom_site_pbe_magmom
Sn  Sn0  1  0.28273954  0.15018474  0.22928113  1  0  1.300368  0  2.899846  0  0  1.16478  0  3.384688  0  0  1.201729  0  3.372546  0  0  0.512273  1.139808  0  3.391453  0
Sn  Sn1  1  0.71729219  0.84978605  0.77069615  1  0  1.30036  0  2.899873  0  0  1.164756  0  3.384706  0  0  1.201647  0  3.372662  0  0  0.512245  1.139782  0  3.391466  0
H  H2  1  0.58739713  0.33753411  0.10856080  1  0  0.133416  0  1.021236  0  0  0.148726  0  1.087319  0  0  0.150571  0  1.08913  0  0  0.075437  0.147534  0  1.08602  0
H  H3  1  0.41260362  0.66245579  0.89145255  1  0  0.133462  0  1.021316  0  0  0.14875  0  1.087422  0  0  0.150597  0  1.089228  0  0  0.075398  0.14756  0  1.086122  0
H  H4  1  0.65042451  0.18278428  0.00227351  1  0  0.160772  0  0.996135  0  0  0.181907  0  1.048228  0  0  0.18455  0  1.048859  0  0  0.089052  0.179822  0  1.048269  0
H  H5  1  0.34958126  0.81720566  0.99773368  1  0  0.160759  0  0.99616  0  0  0.181903  0  1.048226  0  0  0.184549  0  1.048857  0  0  0.089025  0.179817  0  1.048265  0
H  H6  1  0.42864387  0.34166260  0.98571149  1  0  0.137617  0  1.021027  0  0  0.152256  0  1.08704  0  0  0.153988  0  1.089211  0  0  0.077445  0.150634  0  1.086259  0
H  H7  1  0.57136118  0.65832961  0.01429753  1  0  0.13764  0  1.021165  0  0  0.152292  0  1.087128  0  0  0.154024  0  1.089298  0  0  0.077478  0.150675  0  1.086343  0
H  H8  1  0.12928446  0.03795579  0.05283594  1  0  0.154259  0  1.010702  0  0  0.170044  0  1.073911  0  0  0.173291  0  1.073539  0  0  0.085322  0.167798  0  1.074598  0
H  H9  1  0.87073262  0.96205262  0.94714134  1  0  0.154106  0  1.01066  0  0  0.169939  0  1.073838  0  0  0.173191  0  1.073456  0  0  0.085283  0.167695  0  1.074522  0
H  H10  1  0.02523380  0.95439747  0.23741233  1  0  0.161839  0  1.00404  0  0  0.17812  0  1.062313  0  0  0.181183  0  1.062551  0  0  0.08718  0.175701  0  1.063248  0
H  H11  1  0.97478522  0.04559388  0.76256012  1  0  0.161855  0  1.003989  0  0  0.178124  0  1.062292  0  0  0.181187  0  1.062524  0  0  0.087212  0.175705  0  1.063232  0
H  H12  1  0.88930375  0.13964433  0.17659574  1  0  0.149471  0  1.011258  0  0  0.167978  0  1.0708  0  0  0.170142  0  1.072156  0  0  0.083345  0.166575  0  1.069649  0
H  H13  1  0.11071688  0.86035714  0.82339424  1  0  0.14949  0  1.01115  0  0  0.167991  0  1.070713  0  0  0.170161  0  1.07206  0  0  0.083365  0.166587  0  1.069562  0
H  H14  1  0.36709484  0.23827977  0.45435443  1  0  0.14128  0  1.009384  0  0  0.157112  0  1.073008  0  0  0.158956  0  1.075057  0  0  0.07764  0.155532  0  1.071939  0
H  H15  1  0.63288427  0.76171707  0.54564478  1  0  0.141269  0  1.009317  0  0  0.157117  0  1.072936  0  0  0.158964  0  1.074979  0  0  0.077657  0.155534  0  1.071867  0
H  H16  1  0.08283427  0.20877492  0.50971567  1  0  0.173057  0  0.995296  0  0  0.189262  0  1.053061  0  0  0.192758  0  1.0526  0  0  0.087018  0.186531  0  1.053861  0
H  H17  1  0.91716289  0.79120025  0.49028437  1  0  0.173061  0  0.995367  0  0  0.189265  0  1.053119  0  0  0.192763  0  1.052655  0  0  0.087046  0.186531  0  1.053919  0
H  H18  1  0.31216826  0.04891072  0.50236688  1  0  0.164219  0  0.987431  0  0  0.183608  0  1.04045  0  0  0.186436  0  1.04112  0  0  0.089108  0.181509  0  1.040211  0
H  H19  1  0.68783986  0.95108270  0.49763209  1  0  0.164263  0  0.987332  0  0  0.183648  0  1.040356  0  0  0.186477  0  1.041021  0  0  0.089112  0.181549  0  1.040117  0
H  H20  1  0.44035077  0.52322545  0.38027718  1  0  0.112394  0  0.953598  0  0  0.120911  0  1.015136  0  0  0.124471  0  1.01406  0  0  0.110258  0.117963  0  1.016594  0
H  H21  1  0.55964836  0.47678035  0.61974317  1  0  0.112543  0  0.953593  0  0  0.12103  0  1.015133  0  0  0.124592  0  1.014052  0  0  0.110321  0.118067  0  1.016609  0
H  H22  1  0.74671445  0.28744533  0.36177604  1  0  0.084472  0  0.950228  0  0  0.094202  0  1.012442  0  0  0.096963  0  1.010144  0  0  0.120873  0.092489  0  1.013861  0
H  H23  1  0.25327832  0.71256060  0.63822713  1  0  0.084443  0  0.950275  0  0  0.094208  0  1.012434  0  0  0.096961  0  1.010152  0  0  0.120866  0.09249  0  1.013851  0
H  H24  1  0.23497643  0.53795933  0.12788685  1  0  0.074903  0  0.965482  0  0  0.086327  0  1.028276  0  0  0.088218  0  1.027292  0  0  0.114048  0.084716  0  1.029439  0
H  H25  1  0.76500627  0.46208095  0.87209538  1  0  0.074823  0  0.965306  0  0  0.086137  0  1.028282  0  0  0.088029  0  1.0273  0  0  0.113975  0.084533  0  1.029422  0
H  H26  1  0.94914700  0.78216983  0.14115657  1  0  0.114658  0  0.964532  0  0  0.124994  0  1.02606  0  0  0.127868  0  1.025694  0  0  0.113168  0.122181  0  1.027455  0
H  H27  1  0.05081060  0.21784856  0.85885587  1  0  0.114537  0  0.964426  0  0  0.124892  0  1.025954  0  0  0.127767  0  1.025588  0  0  0.1131  0.122114  0  1.027316  0
C  C28  1  0.51550025  0.26831698  0.06132466  1  0  -0.713337  0  3.52853  0  0  -0.751975  0  3.762878  0  0  -0.764525  0  3.769145  0  0  -0.345053  -0.743242  0  3.758706  0
C  C29  1  0.48449859  0.73166836  0.93868776  1  0  -0.713456  0  3.528568  0  0  -0.752082  0  3.762914  0  0  -0.764625  0  3.769173  0  0  -0.345093  -0.74336  0  3.758727  0
C  C30  1  0.05094288  0.06027532  0.16670109  1  0  -0.705348  0  3.501567  0  0  -0.749026  0  3.736086  0  0  -0.761807  0  3.741161  0  0  -0.33758  -0.740357  0  3.733269  0
C  C31  1  0.94906104  0.93971146  0.83327210  1  0  -0.705212  0  3.501396  0  0  -0.748898  0  3.735907  0  0  -0.76167  0  3.740967  0  0  -0.337549  -0.740229  0  3.733085  0
C  C32  1  0.25814229  0.16345068  0.45150053  1  0  -0.707455  0  3.502307  0  0  -0.746005  0  3.730214  0  0  -0.759618  0  3.736752  0  0  -0.336385  -0.736746  0  3.726251  0
C  C33  1  0.74185119  0.83653710  0.54849105  1  0  -0.707402  0  3.502352  0  0  -0.74597  0  3.730226  0  0  -0.759577  0  3.736751  0  0  -0.336354  -0.736708  0  3.726265  0
C  C34  1  0.67179068  0.67073351  0.26166311  1  0  0.000224  0  3.71877  0  0  0.018538  0  3.951295  0  0  0.017074  0  3.970774  0  0  0.008818  0.018759  0  3.938433  0
C  C35  1  0.32820614  0.32926884  0.73836134  1  0  0.000266  0  3.718665  0  0  0.018672  0  3.951061  0  0  0.017215  0  3.970537  0  0  0.008771  0.018883  0  3.938214  0
C  C36  1  0.61514068  0.52922117  0.32246090  1  0  -0.137976  0  3.727994  0  0  -0.159753  0  3.978387  0  0  -0.165274  0  3.998236  0  0  -0.079103  -0.155998  0  3.965969  0
C  C37  1  0.38486129  0.47079719  0.67755685  1  0  -0.138322  0  3.728033  0  0  -0.160119  0  3.978429  0  0  -0.165637  0  3.998259  0  0  -0.079166  -0.156348  0  3.966022  0
C  C38  1  0.78449431  0.39877642  0.31124214  1  0  0.115405  0  3.722924  0  0  0.085806  0  3.975479  0  0  0.092155  0  3.992127  0  0  0.051748  0.080972  0  3.964114  0
C  C39  1  0.21549096  0.60123165  0.68877965  1  0  0.115561  0  3.723097  0  0  0.085977  0  3.975586  0  0  0.092329  0  3.992224  0  0  0.051834  0.081146  0  3.964209  0
C  C40  1  0.05716440  0.53840229  0.18265991  1  0  0.120352  0  3.70559  0  0  0.091492  0  3.953398  0  0  0.097548  0  3.97117  0  0  0.049936  0.087605  0  3.940861  0
C  C41  1  0.94285435  0.46161054  0.81733684  1  0  0.120484  0  3.705988  0  0  0.091691  0  3.953809  0  0  0.097743  0  3.971581  0  0  0.049941  0.087806  0  3.941284  0
C  C42  1  0.89811298  0.67430255  0.18942987  1  0  -0.109728  0  3.678408  0  0  -0.133592  0  3.92591  0  0  -0.138183  0  3.945825  0  0  -0.070989  -0.128983  0  3.911261  0
C  C43  1  0.10187224  0.32572272  0.81057787  1  0  -0.109671  0  3.678756  0  0  -0.133562  0  3.92619  0  0  -0.138157  0  3.946112  0  0  -0.07085  -0.128979  0  3.911523  0
C  C44  1  0.49025464  0.81413903  0.28139479  1  0  0.623081  0  3.925998  0  0  0.574733  0  4.220262  0  0  0.607226  0  4.213371  0  0  0.216538  0.552625  0  4.224422  0
C  C45  1  0.50976493  0.18586010  0.71860400  1  0  0.622915  0  3.926576  0  0  0.57452  0  4.220871  0  0  0.607015  0  4.213973  0  0  0.216389  0.552417  0  4.225038  0
N  N46  1  0.00257069  0.40249777  0.24218646  1  0  -0.330097  0  3.225451  0  0  -0.254051  0  3.468572  0  0  -0.269876  0  3.489181  0  0  -0.29038  -0.241885  0  3.453838  0
N  N47  1  0.99741648  0.59751046  0.75781440  1  0  -0.330082  0  3.225996  0  0  -0.254057  0  3.46907  0  0  -0.269869  0  3.489672  0  0  -0.290428  -0.24189  0  3.454329  0
O  O48  1  0.54646322  0.93573842  0.19943448  1  0  -0.613876  0  2.005114  0  0  -0.537987  0  2.237346  0  0  -0.564895  0  2.232234  0  0  -0.285603  -0.519077  0  2.240254  0
O  O49  1  0.45356134  0.06424925  0.80057232  1  0  -0.614003  0  2.004971  0  0  -0.538094  0  2.23718  0  0  -0.565007  0  2.232078  0  0  -0.285585  -0.51918  0  2.240095  0
O  O50  1  0.30468969  0.80670202  0.37369315  1  0  -0.603961  0  1.931229  0  0  -0.558424  0  2.149142  0  0  -0.580967  0  2.143403  0  0  -0.304127  -0.542485  0  2.152555  0
O  O51  1  0.69526797  0.19330627  0.62629833  1  0  -0.603697  0  1.932082  0  0  -0.558115  0  2.149946  0  0  -0.580652  0  2.144211  0  0  -0.303983  -0.542177  0  2.15336  0
