# generated using pymatgen
data_SiAgH14C7S4(OF)3
_symmetry_space_group_name_H-M   'P 1'
_cell_length_a   6.63117218
_cell_length_b   8.55820995
_cell_length_c   13.50461672
_cell_angle_alpha   89.99971113
_cell_angle_beta   92.11305951
_cell_angle_gamma   90.00076968
_symmetry_Int_Tables_number   1
_chemical_formula_structural   SiAgH14C7S4(OF)3
_chemical_formula_sum   'Si2 Ag2 H28 C14 S8 O6 F6'
_cell_volume   765.87887285
_cell_formula_units_Z   2
loop_
 _symmetry_equiv_pos_site_id
 _symmetry_equiv_pos_as_xyz
  1  'x, y, z'
loop_
 _atom_site_type_symbol
 _atom_site_label
 _atom_site_symmetry_multiplicity
 _atom_site_fract_x
 _atom_site_fract_y
 _atom_site_fract_z
 _atom_site_occupancy
 _atom_site_hle17_bader_spin_density
 _atom_site_hle17_ddec_charge
 _atom_site_hle17_ddec_spin_density
 _atom_site_hle17_ddec_sum_bond_order
 _atom_site_hle17_magmom
 _atom_site_hse06_10hf_bader_spin_density
 _atom_site_hse06_10hf_ddec_charge
 _atom_site_hse06_10hf_ddec_spin_density
 _atom_site_hse06_10hf_ddec_sum_bond_order
 _atom_site_hse06_10hf_magmom
 _atom_site_hse06_bader_spin_density
 _atom_site_hse06_ddec_charge
 _atom_site_hse06_ddec_spin_density
 _atom_site_hse06_ddec_sum_bond_order
 _atom_site_hse06_magmom
 _atom_site_pbe_bader_spin_density
 _atom_site_pbe_cm5_charge
 _atom_site_pbe_ddec_charge
 _atom_site_pbe_ddec_spin_density
 _atom_site_pbe_ddec_sum_bond_order
 _atom_site_pbe_magmom
Si  Si0  1  0.67916215  0.26900034  0.87691042  1  0  1.097689  0  3.403564  0  0  0.990313  0  3.800243  0  0  1.007576  0  3.797724  0  0  0.107174  0.978165  0  3.801975  0
Si  Si1  1  0.32084532  0.76900077  0.12308968  1  0  1.097703  0  3.403777  0  0  0.990262  0  3.800564  0  0  1.007522  0  3.798051  0  0  0.107121  0.978123  0  3.802264  0
Ag  Ag2  1  0.28122928  0.94128900  0.41448425  1  0  0.393135  0  1.549142  0  0  0.276896  0  1.992758  0  0  0.299613  0  1.953983  0  0  0.363968  0.26077  0  2.019714  0
Ag  Ag3  1  0.71877375  0.44128767  0.58551144  1  0  0.393186  0  1.549083  0  0  0.27694  0  1.992685  0  0  0.299659  0  1.953909  0  0  0.363984  0.260817  0  2.019643  0
H  H4  1  0.14721775  0.26375821  0.56767874  1  0  0.13461  0  0.935845  0  0  0.152405  0  0.992913  0  0  0.15357  0  0.992729  0  0  0.106166  0.15143  0  0.993223  0
H  H5  1  0.85278663  0.76376407  0.43232055  1  0  0.134578  0  0.935809  0  0  0.152399  0  0.992851  0  0  0.153554  0  0.992694  0  0  0.106189  0.151428  0  0.993152  0
H  H6  1  0.21365267  0.08495457  0.62875261  1  0  0.123962  0  0.977077  0  0  0.131761  0  1.049184  0  0  0.133587  0  1.048278  0  0  0.0948  0.130462  0  1.049781  0
H  H7  1  0.78635311  0.58495905  0.37124735  1  0  0.123969  0  0.977078  0  0  0.13177  0  1.04918  0  0  0.133597  0  1.048273  0  0  0.094796  0.13047  0  1.049778  0
H  H8  1  0.51831748  0.07251142  0.76437344  1  0  0.138285  0  0.94688  0  0  0.148805  0  1.002657  0  0  0.151098  0  1.001508  0  0  0.107372  0.147263  0  1.003397  0
H  H9  1  0.48167900  0.57251265  0.23562781  1  0  0.138308  0  0.946895  0  0  0.148846  0  1.00263  0  0  0.15114  0  1.001476  0  0  0.10736  0.147303  0  1.003371  0
H  H10  1  0.60143814  0.95153273  0.60178670  1  0  0.126968  0  0.960205  0  0  0.136022  0  1.030684  0  0  0.137206  0  1.030955  0  0  0.099195  0.135059  0  1.030703  0
H  H11  1  0.39855292  0.45153888  0.39821162  1  0  0.126966  0  0.960055  0  0  0.136071  0  1.030506  0  0  0.137223  0  1.030805  0  0  0.099202  0.13511  0  1.030518  0
H  H12  1  0.76289963  0.03880680  0.51318638  1  0  0.150255  0  0.936352  0  0  0.167341  0  0.990372  0  0  0.168833  0  0.99033  0  0  0.111152  0.166105  0  0.990685  0
H  H13  1  0.23709626  0.53881065  0.48681497  1  0  0.150244  0  0.936287  0  0  0.167345  0  0.990313  0  0  0.168841  0  0.990262  0  0  0.11113  0.166107  0  0.990627  0
H  H14  1  0.94204868  0.16206066  0.99112400  1  0  0.153397  0  0.980693  0  0  0.173739  0  1.033979  0  0  0.175678  0  1.034168  0  0  0.091995  0.172288  0  1.033957  0
H  H15  1  0.05794789  0.66205343  0.00887546  1  0  0.153343  0  0.980746  0  0  0.173727  0  1.033988  0  0  0.175667  0  1.034175  0  0  0.091986  0.172276  0  1.033968  0
H  H16  1  0.98873534  0.10841581  0.86672839  1  0  0.153232  0  0.989884  0  0  0.165437  0  1.059273  0  0  0.168004  0  1.05874  0  0  0.084961  0.16378  0  1.059388  0
H  H17  1  0.01126482  0.60841066  0.13327134  1  0  0.153231  0  0.989872  0  0  0.165444  0  1.059273  0  0  0.16801  0  1.058738  0  0  0.084949  0.163787  0  1.059389  0
H  H18  1  0.80353285  0.00638510  0.93331835  1  0  0.158625  0  0.969557  0  0  0.178862  0  1.023029  0  0  0.180656  0  1.023692  0  0  0.092668  0.177535  0  1.022643  0
H  H19  1  0.19646551  0.50638351  0.06668244  1  0  0.158621  0  0.969617  0  0  0.178861  0  1.023095  0  0  0.180654  0  1.023757  0  0  0.092645  0.177532  0  1.022709  0
H  H20  1  0.93013904  0.44817487  0.80672278  1  0  0.149329  0  0.994498  0  0  0.162855  0  1.064271  0  0  0.165052  0  1.064177  0  0  0.082853  0.16121  0  1.064474  0
H  H21  1  0.06986401  0.94816753  0.19327658  1  0  0.149386  0  0.994416  0  0  0.162925  0  1.064172  0  0  0.165122  0  1.064079  0  0  0.082911  0.161281  0  1.064372  0
H  H22  1  0.86481836  0.50716656  0.92684314  1  0  0.154004  0  0.986951  0  0  0.174014  0  1.042161  0  0  0.175876  0  1.042842  0  0  0.091095  0.172638  0  1.041751  0
H  H23  1  0.13518460  0.00716313  0.07315553  1  0  0.154025  0  0.986918  0  0  0.174042  0  1.042132  0  0  0.175904  0  1.042812  0  0  0.091097  0.172665  0  1.041724  0
H  H24  1  0.70088992  0.54984793  0.82346376  1  0  0.164058  0  0.974107  0  0  0.179948  0  1.035959  0  0  0.182677  0  1.034678  0  0  0.087019  0.177917  0  1.037007  0
H  H25  1  0.29911831  0.04984657  0.17653489  1  0  0.164063  0  0.974023  0  0  0.179962  0  1.035883  0  0  0.182691  0  1.034601  0  0  0.087019  0.17793  0  1.036932  0
H  H26  1  0.51300733  0.32396977  0.03447306  1  0  0.151578  0  0.973777  0  0  0.168452  0  1.032874  0  0  0.170911  0  1.032032  0  0  0.089152  0.16672  0  1.033416  0
H  H27  1  0.48699518  0.82396671  0.96552228  1  0  0.151528  0  0.973803  0  0  0.168425  0  1.032864  0  0  0.170886  0  1.03202  0  0  0.089126  0.166692  0  1.033408  0
H  H28  1  0.38474595  0.17139630  0.96900317  1  0  0.157521  0  0.966975  0  0  0.179342  0  1.01792  0  0  0.180905  0  1.019188  0  0  0.094453  0.17821  0  1.017039  0
H  H29  1  0.61525086  0.67139459  0.03099330  1  0  0.157544  0  0.966944  0  0  0.179364  0  1.017888  0  0  0.180929  0  1.01915  0  0  0.094459  0.178231  0  1.017009  0
H  H30  1  0.34807961  0.36877281  0.93128646  1  0  0.154741  0  0.977772  0  0  0.174121  0  1.033204  0  0  0.176  0  1.033995  0  0  0.091447  0.172724  0  1.032741  0
H  H31  1  0.65192674  0.86877002  0.06870734  1  0  0.154749  0  0.9778  0  0  0.174116  0  1.033236  0  0  0.175993  0  1.034031  0  0  0.091423  0.17272  0  1.032773  0
C  C32  1  0.27187274  0.19708239  0.60300542  1  0  -0.223549  0  3.618174  0  0  -0.256705  0  3.883599  0  0  -0.256117  0  3.894054  0  0  -0.154136  -0.257056  0  3.876518  0
C  C33  1  0.72813504  0.69708608  0.39699271  1  0  -0.223495  0  3.618007  0  0  -0.256744  0  3.883583  0  0  -0.256158  0  3.894029  0  0  -0.154163  -0.257094  0  3.876507  0
C  C34  1  0.57196809  0.19232886  0.75165223  1  0  -0.428946  0  3.603862  0  0  -0.401912  0  3.864641  0  0  -0.406698  0  3.876615  0  0  -0.115723  -0.398693  0  3.856424  0
C  C35  1  0.42802910  0.69233294  0.24834344  1  0  -0.429019  0  3.603865  0  0  -0.401878  0  3.86441  0  0  -0.406662  0  3.876385  0  0  -0.115675  -0.398659  0  3.856191  0
C  C36  1  0.65093860  0.06188211  0.56931939  1  0  -0.223396  0  3.5931  0  0  -0.259138  0  3.855132  0  0  -0.258423  0  3.865403  0  0  -0.149362  -0.259609  0  3.848189  0
C  C37  1  0.34905771  0.56188869  0.43068115  1  0  -0.223314  0  3.593014  0  0  -0.259148  0  3.855105  0  0  -0.258407  0  3.865406  0  0  -0.149337  -0.259628  0  3.848186  0
C  C38  1  0.87060025  0.12177410  0.92100550  1  0  -0.712566  0  3.619178  0  0  -0.74944  0  3.837947  0  0  -0.759123  0  3.843568  0  0  -0.297199  -0.742463  0  3.833867  0
C  C39  1  0.12939864  0.62176940  0.07899416  1  0  -0.712526  0  3.619191  0  0  -0.74944  0  3.837927  0  0  -0.759139  0  3.843578  0  0  -0.297184  -0.742465  0  3.833847  0
C  C40  1  0.80297294  0.46121064  0.85607960  1  0  -0.725219  0  3.624305  0  0  -0.761948  0  3.844483  0  0  -0.771376  0  3.84933  0  0  -0.304108  -0.755198  0  3.841298  0
C  C41  1  0.19703341  0.96120381  0.14391758  1  0  -0.725307  0  3.624205  0  0  -0.762057  0  3.844383  0  0  -0.771485  0  3.849226  0  0  -0.304132  -0.755308  0  3.841197  0
C  C42  1  0.46044623  0.28456057  0.96043011  1  0  -0.706762  0  3.616934  0  0  -0.742531  0  3.83293  0  0  -0.752309  0  3.839279  0  0  -0.293911  -0.735546  0  3.828575  0
C  C43  1  0.53955557  0.78455802  0.03956609  1  0  -0.706743  0  3.616949  0  0  -0.742495  0  3.8329  0  0  -0.752274  0  3.839245  0  0  -0.293856  -0.735511  0  3.828545  0
C  C44  1  0.76234780  0.26390160  0.24660720  1  0  0.59218  0  3.669321  0  0  0.521595  0  4.039595  0  0  0.550783  0  4.010363  0  0  0.289553  0.501216  0  4.059704  0
C  C45  1  0.23764588  0.76390228  0.75339702  1  0  0.592027  0  3.669631  0  0  0.521511  0  4.039796  0  0  0.550687  0  4.010586  0  0  0.289527  0.501136  0  4.059902  0
S  S46  1  0.44566896  0.16211605  0.50388323  1  0  0.077833  0  2.730068  0  0  0.108828  0  3.157493  0  0  0.104141  0  3.147046  0  0  -0.003279  0.111851  0  3.1648  0
S  S47  1  0.55433366  0.66211839  0.49611564  1  0  0.077813  0  2.729978  0  0  0.108855  0  3.157409  0  0  0.10417  0  3.146962  0  0  -0.003264  0.111875  0  3.164718  0
S  S48  1  0.36712936  0.31329604  0.70541486  1  0  0.055232  0  2.503411  0  0  0.060457  0  2.862615  0  0  0.055691  0  2.862102  0  0  0.00288  0.063975  0  2.862776  0
S  S49  1  0.63288041  0.81329836  0.29458439  1  0  0.055205  0  2.503297  0  0  0.060407  0  2.862494  0  0  0.055654  0  2.86196  0  0  0.002858  0.063925  0  2.862654  0
S  S50  1  0.77449240  0.17731773  0.66538753  1  0  0.115633  0  2.670059  0  0  0.151292  0  3.050767  0  0  0.144363  0  3.048256  0  0  0.02693  0.156094  0  3.05247  0
S  S51  1  0.22550894  0.67732494  0.33461273  1  0  0.115673  0  2.670218  0  0  0.151314  0  3.050905  0  0  0.144387  0  3.048387  0  0  0.026952  0.156116  0  3.052606  0
S  S52  1  0.96811528  0.23883046  0.34383818  1  0  1.112165  0  5.814381  0  0  1.010376  0  6.349257  0  0  1.053869  0  6.330026  0  0  0.479531  0.980513  0  6.361382  0
S  S53  1  0.03188400  0.73883561  0.65616626  1  0  1.112424  0  5.814446  0  0  1.010598  0  6.349287  0  0  1.054092  0  6.330046  0  0  0.479648  0.980737  0  6.361408  0
O  O54  1  0.94315629  0.07518151  0.37451256  1  0  -0.611825  0  2.05676  0  0  -0.560735  0  2.329598  0  0  -0.581158  0  2.316315  0  0  -0.343152  -0.546372  0  2.338342  0
O  O55  1  0.05684608  0.57516961  0.62549622  1  0  -0.611939  0  2.056362  0  0  -0.5608  0  2.329159  0  0  -0.581228  0  2.315872  0  0  -0.343181  -0.546436  0  2.337903  0
O  O56  1  0.91624407  0.35211645  0.42011469  1  0  -0.615744  0  2.042156  0  0  -0.573916  0  2.322595  0  0  -0.593313  0  2.308303  0  0  -0.343312  -0.560216  0  2.331932  0
O  O57  1  0.08375266  0.85210284  0.57988930  1  0  -0.615796  0  2.042521  0  0  -0.574004  0  2.323051  0  0  -0.593398  0  2.308757  0  0  -0.34332  -0.560305  0  2.332385  0
O  O58  1  0.15108520  0.27236854  0.29232622  1  0  -0.579648  0  1.995565  0  0  -0.5505  0  2.247696  0  0  -0.569318  0  2.237154  0  0  -0.332002  -0.537213  0  2.254382  0
O  O59  1  0.84890577  0.77235827  0.70767198  1  0  -0.57973  0  1.995552  0  0  -0.550573  0  2.24773  0  0  -0.56939  0  2.237184  0  0  -0.332057  -0.537285  0  2.254412  0
F  F60  1  0.57765701  0.24630455  0.28472875  1  0  -0.228381  0  1.257944  0  0  -0.184146  0  1.438685  0  0  -0.194341  0  1.423042  0  0  -0.087163  -0.17673  0  1.449388  0
F  F61  1  0.42233021  0.74629922  0.71527982  1  0  -0.228162  0  1.25804  0  0  -0.184022  0  1.438826  0  0  -0.194209  0  1.423194  0  0  -0.087127  -0.176605  0  1.449529  0
F  F62  1  0.77903647  0.15947125  0.17186691  1  0  -0.215714  0  1.207051  0  0  -0.176526  0  1.378794  0  0  -0.18697  0  1.364572  0  0  -0.081312  -0.168913  0  1.388407  0
F  F63  1  0.22094777  0.65947704  0.82814040  1  0  -0.215728  0  1.207102  0  0  -0.176543  0  1.378818  0  0  -0.18698  0  1.364602  0  0  -0.081324  -0.168932  0  1.388432  0
F  F64  1  0.76973187  0.41024315  0.20616781  1  0  -0.242739  0  1.204429  0  0  -0.195413  0  1.370207  0  0  -0.206987  0  1.356037  0  0  -0.089732  -0.187967  0  1.380512  0
F  F65  1  0.23027199  0.91024344  0.79383319  1  0  -0.242771  0  1.204473  0  0  -0.195428  0  1.370205  0  0  -0.207006  0  1.356049  0  0  -0.089733  -0.187984  0  1.380512  0
