# generated using pymatgen
data_ZnH10C12(NO2)2
_symmetry_space_group_name_H-M   'P 1'
_cell_length_a   7.97706003
_cell_length_b   7.97705637
_cell_length_c   17.62700000
_cell_angle_alpha   90.00000000
_cell_angle_beta   90.00000000
_cell_angle_gamma   90.00000000
_symmetry_Int_Tables_number   1
_chemical_formula_structural   ZnH10C12(NO2)2
_chemical_formula_sum   'Zn4 H40 C48 N8 O16'
_cell_volume   1121.66695624
_cell_formula_units_Z   4
loop_
 _symmetry_equiv_pos_site_id
 _symmetry_equiv_pos_as_xyz
  1  'x, y, z'
loop_
 _atom_site_type_symbol
 _atom_site_label
 _atom_site_symmetry_multiplicity
 _atom_site_fract_x
 _atom_site_fract_y
 _atom_site_fract_z
 _atom_site_occupancy
 _atom_site_hle17_bader_spin_density
 _atom_site_hle17_ddec_charge
 _atom_site_hle17_ddec_spin_density
 _atom_site_hle17_ddec_sum_bond_order
 _atom_site_hle17_magmom
 _atom_site_hse06_10hf_bader_spin_density
 _atom_site_hse06_10hf_ddec_charge
 _atom_site_hse06_10hf_ddec_spin_density
 _atom_site_hse06_10hf_ddec_sum_bond_order
 _atom_site_hse06_10hf_magmom
 _atom_site_hse06_bader_spin_density
 _atom_site_hse06_ddec_charge
 _atom_site_hse06_ddec_spin_density
 _atom_site_hse06_ddec_sum_bond_order
 _atom_site_hse06_magmom
 _atom_site_pbe_bader_charge
 _atom_site_pbe_bader_spin_density
 _atom_site_pbe_cm5_charge
 _atom_site_pbe_ddec_charge
 _atom_site_pbe_ddec_spin_density
 _atom_site_pbe_ddec_sum_bond_order
 _atom_site_pbe_magmom
Zn  Zn0  1  0.73533106  0.73533014  0.00000000  1  0  0.995939  0  1.818049  0  0  0.819535  0  2.249581  0  0  0.867971  0  2.200591  0  1.326097  0  0.670371  0.785631  0  2.282957  0
Zn  Zn1  1  0.26466894  0.26466906  0.50000000  1  0  0.99595  0  1.818072  0  0  0.819541  0  2.249604  0  0  0.867977  0  2.200614  0  1.326094  0  0.670361  0.785637  0  2.282981  0
Zn  Zn2  1  0.76466894  0.23532992  0.75000000  1  0  0.995978  0  1.818021  0  0  0.819588  0  2.249544  0  0  0.868023  0  2.200554  0  1.326102  0  0.670373  0.785687  0  2.282919  0
Zn  Zn3  1  0.23533106  0.76466929  0.25000000  1  0  0.995962  0  1.818066  0  0  0.819563  0  2.249592  0  0  0.867998  0  2.200603  0  1.326102  0  0.670357  0.78566  0  2.28297  0
H  H4  1  0.68351623  0.40009621  0.07389176  1  0  0.089104  0  0.958592  0  0  0.098679  0  1.02058  0  0  0.101019  0  1.019535  0  0.134128  0  0.119082  0.09699  0  1.021312  0
H  H5  1  0.31648377  0.59990425  0.57389176  1  0  0.089071  0  0.958609  0  0  0.098661  0  1.020579  0  0  0.101002  0  1.019534  0  0.134129  0  0.119077  0.096974  0  1.021309  0
H  H6  1  0.09990397  0.18351632  0.82389176  1  0  0.08905  0  0.958623  0  0  0.098641  0  1.020595  0  0  0.100982  0  1.019549  0  0.134134  0  0.119062  0.096952  0  1.021329  0
H  H7  1  0.90009602  0.81648414  0.32389176  1  0  0.089058  0  0.958616  0  0  0.098651  0  1.020588  0  0  0.100992  0  1.019542  0  0.134138  0  0.119065  0.096964  0  1.021319  0
H  H8  1  0.81648251  0.90009518  0.67610768  1  0  0.08908  0  0.958593  0  0  0.098672  0  1.020561  0  0  0.101018  0  1.019503  0  0.134118  0  0.119069  0.096968  0  1.021331  0
H  H9  1  0.18351623  0.09990527  0.17610824  1  0  0.089065  0  0.958613  0  0  0.098655  0  1.020583  0  0  0.100997  0  1.019538  0  0.134134  0  0.119067  0.096967  0  1.021315  0
H  H10  1  0.40009602  0.68351654  0.92610824  1  0  0.089106  0  0.958576  0  0  0.098686  0  1.020562  0  0  0.101028  0  1.019514  0  0.134126  0  0.119075  0.096996  0  1.021298  0
H  H11  1  0.59990397  0.31648391  0.42610824  1  0  0.089056  0  0.958618  0  0  0.098648  0  1.020592  0  0  0.100989  0  1.019545  0  0.134135  0  0.119063  0.09696  0  1.021324  0
H  H12  1  0.47275688  0.16577168  0.07391956  1  0  0.124086  0  0.957286  0  0  0.130443  0  1.022841  0  0  0.134534  0  1.02076  0  0.130819  0  0.11142  0.12744  0  1.02452  0
H  H13  1  0.52724312  0.83422753  0.57391956  1  0  0.124086  0  0.957295  0  0  0.130444  0  1.022845  0  0  0.134535  0  1.020765  0  0.130823  0  0.111421  0.12744  0  1.024528  0
H  H14  1  0.33422715  0.97275732  0.82391956  1  0  0.124085  0  0.957299  0  0  0.130441  0  1.022854  0  0  0.134532  0  1.020774  0  0.130823  0  0.111416  0.12744  0  1.02453  0
H  H15  1  0.66577160  0.02724313  0.32391956  1  0  0.124093  0  0.957286  0  0  0.13045  0  1.022839  0  0  0.134541  0  1.020759  0  0.130819  0  0.11142  0.12745  0  1.024514  0
H  H16  1  0.02724312  0.66577190  0.67608044  1  0  0.124075  0  0.957301  0  0  0.130431  0  1.022856  0  0  0.134522  0  1.020777  0  0.130815  0  0.111415  0.127429  0  1.024535  0
H  H17  1  0.97275688  0.33422855  0.17608044  1  0  0.124089  0  0.957288  0  0  0.130447  0  1.022842  0  0  0.134538  0  1.020762  0  0.130817  0  0.111416  0.127449  0  1.02451  0
H  H18  1  0.16577160  0.47275710  0.92608044  1  0  0.124083  0  0.957288  0  0  0.130439  0  1.022844  0  0  0.13453  0  1.020765  0  0.130818  0  0.111418  0.127439  0  1.02452  0
H  H19  1  0.83422840  0.52724336  0.42608044  1  0  0.124089  0  0.957289  0  0  0.130447  0  1.02284  0  0  0.134538  0  1.020761  0  0.130819  0  0.111419  0.127446  0  1.024517  0
H  H20  1  0.96505228  0.34289716  0.02103364  1  0  0.125033  0  0.972515  0  0  0.130252  0  1.039759  0  0  0.134727  0  1.037296  0  0.130482  0  0.1084  0.126949  0  1.041805  0
H  H21  1  0.03494646  0.65710329  0.52103364  1  0  0.125044  0  0.972511  0  0  0.130263  0  1.039749  0  0  0.134739  0  1.037286  0  0.130488  0  0.108407  0.126961  0  1.041794  0
H  H22  1  0.15710299  0.46505250  0.77103364  1  0  0.125036  0  0.972518  0  0  0.130254  0  1.039761  0  0  0.13473  0  1.037296  0  0.130483  0  0.1084  0.126952  0  1.041806  0
H  H23  1  0.84289700  0.53494670  0.27103364  1  0  0.125026  0  0.972522  0  0  0.130243  0  1.039763  0  0  0.134719  0  1.0373  0  0.130484  0  0.108403  0.126941  0  1.04181  0
H  H24  1  0.53494646  0.84289739  0.72896636  1  0  0.125034  0  0.972515  0  0  0.130254  0  1.039757  0  0  0.134729  0  1.037294  0  0.130488  0  0.108407  0.126953  0  1.041801  0
H  H25  1  0.46505229  0.15710306  0.22896636  1  0  0.125021  0  0.97252  0  0  0.130237  0  1.039766  0  0  0.134712  0  1.037302  0  0.130482  0  0.1084  0.126934  0  1.041812  0
H  H26  1  0.34289701  0.96505273  0.97896636  1  0  0.125029  0  0.972519  0  0  0.130248  0  1.039763  0  0  0.134724  0  1.037298  0  0.130486  0  0.108409  0.126949  0  1.041802  0
H  H27  1  0.65710299  0.03494773  0.47896636  1  0  0.125023  0  0.972518  0  0  0.130241  0  1.039761  0  0  0.134717  0  1.037296  0  0.130483  0  0.108402  0.126939  0  1.041806  0
H  H28  1  0.11074255  0.75048611  0.98071822  1  0  0.083356  0  0.960832  0  0  0.090688  0  1.027247  0  0  0.092999  0  1.025643  0  0.118925  0  0.117095  0.088962  0  1.028525  0
H  H29  1  0.88925744  0.24951435  0.48071822  1  0  0.083362  0  0.960821  0  0  0.090692  0  1.027241  0  0  0.093005  0  1.025635  0  0.118928  0  0.117095  0.088967  0  1.028519  0
H  H30  1  0.74951423  0.61074283  0.73071822  1  0  0.083356  0  0.96082  0  0  0.090684  0  1.027235  0  0  0.092996  0  1.02563  0  0.118927  0  0.117097  0.08896  0  1.028512  0
H  H31  1  0.25048577  0.38925762  0.23071822  1  0  0.083363  0  0.960803  0  0  0.090691  0  1.027219  0  0  0.093003  0  1.025613  0  0.118929  0  0.117106  0.088965  0  1.028499  0
H  H32  1  0.38925744  0.25048588  0.76928178  1  0  0.083365  0  0.960821  0  0  0.090696  0  1.027238  0  0  0.093009  0  1.025632  0  0.118929  0  0.117096  0.088971  0  1.028517  0
H  H33  1  0.61074255  0.74951332  0.26928178  1  0  0.083365  0  0.960804  0  0  0.090695  0  1.027225  0  0  0.093007  0  1.025618  0  0.118933  0  0.117085  0.088969  0  1.028503  0
H  H34  1  0.75048577  0.11074260  0.01928178  1  0  0.083359  0  0.960824  0  0  0.090691  0  1.027238  0  0  0.093003  0  1.025632  0  0.118929  0  0.117097  0.088965  0  1.028516  0
H  H35  1  0.24951423  0.88925660  0.51928178  1  0  0.083366  0  0.960782  0  0  0.090694  0  1.027197  0  0  0.093005  0  1.025592  0  0.118935  0  0.117093  0.088967  0  1.028477  0
H  H36  1  0.70442243  0.42113028  0.89442900  1  0  -0.007744  0  0.964625  0  0  0.000762  0  1.03743  0  0  0.000952  0  1.034739  0  0.075759  0  0.097959  0.00046  0  1.039418  0
H  H37  1  0.29557757  0.57887017  0.39442900  1  0  -0.007751  0  0.964621  0  0  0.000755  0  1.037427  0  0  0.000945  0  1.034736  0  0.075753  0  0.097959  0.000453  0  1.039414  0
H  H38  1  0.07886991  0.20442252  0.64442900  1  0  -0.007761  0  0.964634  0  0  0.000741  0  1.037444  0  0  0.00093  0  1.034755  0  0.075752  0  0.097958  0.00044  0  1.039431  0
H  H39  1  0.92113009  0.79557793  0.14442900  1  0  -0.007763  0  0.964634  0  0  0.000737  0  1.037445  0  0  0.000926  0  1.034755  0  0.075754  0  0.097951  0.000436  0  1.039433  0
H  H40  1  0.79557757  0.92113051  0.85557100  1  0  -0.007755  0  0.964631  0  0  0.000744  0  1.037444  0  0  0.000933  0  1.034754  0  0.075758  0  0.097945  0.000443  0  1.03943  0
H  H41  1  0.20442243  0.07887120  0.35557043  1  0  -0.007767  0  0.964628  0  0  0.000729  0  1.03745  0  0  0.000918  0  1.03476  0  0.07575  0  0.097948  0.000427  0  1.039438  0
H  H42  1  0.42113009  0.70442150  0.10557100  1  0  -0.007752  0  0.964609  0  0  0.000751  0  1.037419  0  0  0.000941  0  1.034727  0  0.075751  0  0.097954  0.000449  0  1.039406  0
H  H43  1  0.57886991  0.29557770  0.60557043  1  0  -0.007753  0  0.964634  0  0  0.000749  0  1.037445  0  0  0.000941  0  1.034752  0  0.075758  0  0.097953  0.000447  0  1.039433  0
C  C44  1  0.56828957  0.40725549  0.04082260  1  0  0.125769  0  3.688307  0  0  0.092754  0  3.940372  0  0  0.099228  0  3.958325  0  0.419592  0  0.047855  0.088559  0  3.928254  0
C  C45  1  0.43171043  0.59274371  0.54082260  1  0  0.125763  0  3.688302  0  0  0.092749  0  3.940355  0  0  0.099224  0  3.958308  0  0.419603  0  0.047838  0.088554  0  3.928234  0
C  C46  1  0.09274470  0.06828835  0.79082260  1  0  0.125831  0  3.688299  0  0  0.092819  0  3.940345  0  0  0.099294  0  3.958298  0  0.419478  0  0.0479  0.088623  0  3.928226  0
C  C47  1  0.90725530  0.93171211  0.29082260  1  0  0.125828  0  3.688331  0  0  0.09281  0  3.940381  0  0  0.099285  0  3.958333  0  0.419597  0  0.047884  0.088614  0  3.928262  0
C  C48  1  0.93171043  0.90725572  0.70917740  1  0  0.125746  0  3.688301  0  0  0.092733  0  3.940358  0  0  0.099207  0  3.958314  0  0.41961  0  0.047845  0.088535  0  3.928231  0
C  C49  1  0.06828832  0.09274474  0.20917740  1  0  0.125824  0  3.688326  0  0  0.092816  0  3.940362  0  0  0.09929  0  3.958315  0  0.419597  0  0.047892  0.08862  0  3.928245  0
C  C50  1  0.40725530  0.56828983  0.95917740  1  0  0.12576  0  3.688294  0  0  0.092729  0  3.940377  0  0  0.099202  0  3.958331  0  0.41949  0  0.047852  0.088533  0  3.928256  0
C  C51  1  0.59274469  0.43171188  0.45917740  1  0  0.125818  0  3.68833  0  0  0.092798  0  3.940381  0  0  0.099272  0  3.958334  0  0.419598  0  0.047886  0.088601  0  3.928262  0
C  C52  1  0.45005929  0.27948781  0.04106201  1  0  -0.145205  0  3.665852  0  0  -0.161666  0  3.911838  0  0  -0.168679  0  3.93124  0  0.078339  0  -0.073754  -0.157138  0  3.899028  0
C  C53  1  0.54994070  0.72051265  0.54106201  1  0  -0.14523  0  3.665779  0  0  -0.161661  0  3.911788  0  0  -0.168674  0  3.931191  0  0.078338  0  -0.073736  -0.157132  0  3.898974  0
C  C54  1  0.22051232  0.95005847  0.79106201  1  0  -0.145226  0  3.665864  0  0  -0.161692  0  3.911847  0  0  -0.168706  0  3.93125  0  0.078447  0  -0.073766  -0.157164  0  3.899039  0
C  C55  1  0.77948768  0.04994073  0.29106201  1  0  -0.145292  0  3.665822  0  0  -0.161723  0  3.911835  0  0  -0.168737  0  3.931237  0  0.078327  0  -0.073763  -0.157194  0  3.899026  0
C  C56  1  0.04994070  0.77948678  0.70893799  1  0  -0.145174  0  3.665824  0  0  -0.16164  0  3.91181  0  0  -0.168655  0  3.931216  0  0.078335  0  -0.073741  -0.157109  0  3.898994  0
C  C57  1  0.95005929  0.22051242  0.20893799  1  0  -0.145292  0  3.665819  0  0  -0.161729  0  3.911832  0  0  -0.168743  0  3.931235  0  0.078328  0  -0.073762  -0.157198  0  3.899021  0
C  C58  1  0.27948768  0.45005950  0.95893799  1  0  -0.145206  0  3.665858  0  0  -0.161662  0  3.911847  0  0  -0.168676  0  3.931252  0  0.078339  0  -0.073756  -0.157133  0  3.899037  0
C  C59  1  0.72051232  0.54994096  0.45893799  1  0  -0.145266  0  3.665837  0  0  -0.161698  0  3.911849  0  0  -0.168712  0  3.931252  0  0.078331  0  -0.073762  -0.15717  0  3.899039  0
C  C60  1  0.30119994  0.30120008  0.00000000  1  0  0.112993  0  3.734062  0  0  0.124362  0  3.960798  0  0  0.128928  0  3.980712  0  -0.160931  0  0.02063  0.121405  0  3.947252  0
C  C61  1  0.69880006  0.69880038  0.50000000  1  0  0.113128  0  3.733919  0  0  0.124415  0  3.960808  0  0  0.12898  0  3.980721  0  -0.160962  0  0.020634  0.121458  0  3.94726  0
C  C62  1  0.19880006  0.80120031  0.75000000  1  0  0.112989  0  3.734076  0  0  0.124355  0  3.960821  0  0  0.128922  0  3.980732  0  -0.160942  0  0.020623  0.121398  0  3.947274  0
C  C63  1  0.80119994  0.19880015  0.25000000  1  0  0.113205  0  3.733878  0  0  0.124487  0  3.960767  0  0  0.129053  0  3.980679  0  -0.160983  0  0.020649  0.121529  0  3.947224  0
C  C64  1  0.17072957  0.17072839  0.00000000  1  0  0.100139  0  3.75001  0  0  0.111944  0  3.978563  0  0  0.115895  0  3.999816  0  -0.106331  0  0.016199  0.109502  0  3.963995  0
C  C65  1  0.82926792  0.82926956  0.50000000  1  0  0.100158  0  3.749841  0  0  0.111902  0  3.978537  0  0  0.115855  0  3.99979  0  -0.105993  0  0.016159  0.109462  0  3.963965  0
C  C66  1  0.32927043  0.67072862  0.75000000  1  0  0.100154  0  3.749998  0  0  0.111957  0  3.978556  0  0  0.115908  0  3.99981  0  -0.106221  0  0.016209  0.109515  0  3.963986  0
C  C67  1  0.67073333  0.32926682  0.25000057  1  0  0.100064  0  3.749898  0  0  0.111826  0  3.978573  0  0  0.115778  0  3.999823  0  -0.105996  0  0.016131  0.109383  0  3.964007  0
C  C68  1  0.00179640  0.21306982  0.01038010  1  0  -0.159557  0  3.683624  0  0  -0.176953  0  3.931461  0  0  -0.184988  0  3.952069  0  0.031466  0  -0.080439  -0.17171  0  3.917726  0
C  C69  1  0.99820359  0.78693063  0.51038010  1  0  -0.159609  0  3.683538  0  0  -0.176981  0  3.931397  0  0  -0.185014  0  3.951996  0  0.031304  0  -0.080447  -0.171738  0  3.917661  0
C  C70  1  0.28693027  0.50179663  0.76038010  1  0  -0.159581  0  3.683691  0  0  -0.176977  0  3.931539  0  0  -0.185011  0  3.952145  0  0.031443  0  -0.080466  -0.171734  0  3.917804  0
C  C71  1  0.71306972  0.49820257  0.26038010  1  0  -0.159551  0  3.68353  0  0  -0.176913  0  3.931375  0  0  -0.184947  0  3.951979  0  0.031307  0  -0.080442  -0.17167  0  3.917641  0
C  C72  1  0.49820360  0.71306880  0.73961990  1  0  -0.159522  0  3.683584  0  0  -0.176922  0  3.931426  0  0  -0.184956  0  3.95203  0  0.031359  0  -0.080429  -0.171678  0  3.917686  0
C  C73  1  0.50179640  0.28693040  0.23961990  1  0  -0.159519  0  3.683526  0  0  -0.176885  0  3.931355  0  0  -0.184923  0  3.951969  0  0.031312  0  -0.08041  -0.171639  0  3.917615  0
C  C74  1  0.21306973  0.00179766  0.98961990  1  0  -0.15955  0  3.683617  0  0  -0.176945  0  3.931459  0  0  -0.184979  0  3.952064  0  0.031451  0  -0.080483  -0.171703  0  3.917723  0
C  C75  1  0.78693027  0.99820280  0.48961990  1  0  -0.159552  0  3.683592  0  0  -0.176912  0  3.931445  0  0  -0.184947  0  3.95205  0  0.031287  0  -0.080441  -0.171668  0  3.917706  0
C  C76  1  0.88311483  0.08571583  0.01050831  1  0  0.132302  0  3.697445  0  0  0.101201  0  3.946925  0  0  0.107975  0  3.965696  0  0.457122  0  0.047435  0.096797  0  3.93422  0
C  C77  1  0.11688391  0.91428463  0.51050888  1  0  0.132291  0  3.697393  0  0  0.101194  0  3.946835  0  0  0.107968  0  3.965606  0  0.457114  0  0.047405  0.096791  0  3.934128  0
C  C78  1  0.41428295  0.38311501  0.76050831  1  0  0.132276  0  3.697408  0  0  0.101155  0  3.946891  0  0  0.107928  0  3.96566  0  0.4571  0  0.047394  0.096751  0  3.934185  0
C  C79  1  0.58571579  0.61688545  0.26050831  1  0  0.132292  0  3.697351  0  0  0.101168  0  3.946832  0  0  0.107941  0  3.965601  0  0.457124  0  0.047418  0.096765  0  3.934126  0
C  C80  1  0.61688517  0.58571606  0.73949112  1  0  0.132254  0  3.6974  0  0  0.101152  0  3.946859  0  0  0.107925  0  3.96563  0  0.457097  0  0.04736  0.096749  0  3.934149  0
C  C81  1  0.38311483  0.41428440  0.23949112  1  0  0.132263  0  3.697368  0  0  0.101162  0  3.946821  0  0  0.107935  0  3.96559  0  0.457125  0  0.047365  0.09676  0  3.934115  0
C  C82  1  0.08571704  0.88311398  0.98949169  1  0  0.132266  0  3.697332  0  0  0.101154  0  3.946825  0  0  0.107927  0  3.965595  0  0.457106  0  0.047409  0.096751  0  3.93412  0
C  C83  1  0.91428295  0.11688522  0.48949169  1  0  0.132272  0  3.697403  0  0  0.101151  0  3.94688  0  0  0.107925  0  3.965649  0  0.457106  0  0.0474  0.096748  0  3.934173  0
C  C84  1  0.82909743  0.47209896  0.87876440  1  0  0.565408  0  3.941105  0  0  0.493403  0  4.254589  0  0  0.526406  0  4.247103  0  1.539737  0  0.127697  0.47114  0  4.258864  0
C  C85  1  0.17090256  0.52790275  0.37876383  1  0  0.56547  0  3.940946  0  0  0.493467  0  4.254428  0  0  0.526471  0  4.246941  0  1.539161  0  0.127731  0.471203  0  4.258704  0
C  C86  1  0.02790376  0.32909633  0.62876326  1  0  0.56547  0  3.940897  0  0  0.493468  0  4.254377  0  0  0.526471  0  4.246889  0  1.539724  0  0.12772  0.471205  0  4.258652  0
C  C87  1  0.97209623  0.67090287  0.12876326  1  0  0.565466  0  3.940923  0  0  0.493468  0  4.254401  0  0  0.526472  0  4.246913  0  1.539731  0  0.127735  0.471205  0  4.258677  0
C  C88  1  0.67090256  0.97209542  0.87123674  1  0  0.56542  0  3.941008  0  0  0.493425  0  4.254477  0  0  0.526429  0  4.246989  0  1.539086  0  0.127699  0.47116  0  4.258755  0
C  C89  1  0.32909744  0.02790378  0.37123674  1  0  0.565521  0  3.940903  0  0  0.493523  0  4.254381  0  0  0.526527  0  4.246894  0  1.53909  0  0.127758  0.471259  0  4.258658  0
C  C90  1  0.47209874  0.82909656  0.12123617  1  0  0.565421  0  3.941056  0  0  0.493418  0  4.254538  0  0  0.526421  0  4.24705  0  1.539737  0  0.127702  0.471154  0  4.258813  0
C  C91  1  0.52790125  0.17090264  0.62123617  1  0  0.565417  0  3.941044  0  0  0.493417  0  4.254528  0  0  0.526419  0  4.247039  0  1.539724  0  0.127689  0.471154  0  4.258802  0
N  N92  1  0.54853668  0.54853567  0.00000000  1  0  -0.328998  0  3.320206  0  0  -0.244685  0  3.580884  0  0  -0.263486  0  3.596736  0  -1.273661  0  -0.327284  -0.232041  0  3.570081  0
N  N93  1  0.45146332  0.45146353  0.50000000  1  0  -0.328994  0  3.320243  0  0  -0.244697  0  3.580928  0  0  -0.263498  0  3.596781  0  -1.273773  0  -0.327285  -0.232053  0  3.570125  0
N  N94  1  0.95146332  0.04853670  0.75000000  1  0  -0.328984  0  3.320227  0  0  -0.244695  0  3.580912  0  0  -0.263497  0  3.596765  0  -1.273771  0  -0.3273  -0.232051  0  3.570112  0
N  N95  1  0.04853668  0.95146375  0.25000000  1  0  -0.329026  0  3.320248  0  0  -0.244737  0  3.580937  0  0  -0.263539  0  3.596789  0  -1.273762  0  -0.3273  -0.232094  0  3.570137  0
N  N96  1  0.92360218  0.92360260  0.00000000  1  0  -0.326187  0  3.302669  0  0  -0.241841  0  3.555861  0  0  -0.261208  0  3.57369  0  -1.25561  0  -0.323728  -0.22877  0  3.543658  0
N  N97  1  0.07639782  0.07639786  0.50000000  1  0  -0.326238  0  3.30267  0  0  -0.241859  0  3.555818  0  0  -0.261225  0  3.573645  0  -1.255607  0  -0.323707  -0.228788  0  3.543614  0
N  N98  1  0.57639782  0.42360237  0.75000000  1  0  -0.326218  0  3.302633  0  0  -0.241837  0  3.555769  0  0  -0.261202  0  3.573596  0  -1.255592  0  -0.323692  -0.228767  0  3.543567  0
N  N99  1  0.42360218  0.57639808  0.25000000  1  0  -0.326255  0  3.302662  0  0  -0.241876  0  3.555804  0  0  -0.261241  0  3.57363  0  -1.255649  0  -0.323711  -0.228806  0  3.543602  0
O  O100  1  0.87905318  0.60455258  0.91128099  1  0  -0.59705  0  2.061962  0  0  -0.535949  0  2.330707  0  0  -0.562679  0  2.319977  0  -1.189261  0  -0.324001  -0.517262  0  2.337367  0
O  O101  1  0.12094681  0.39544788  0.41128099  1  0  -0.59707  0  2.061824  0  0  -0.535976  0  2.330583  0  0  -0.562707  0  2.319853  0  -1.189233  0  -0.324013  -0.517288  0  2.337242  0
O  O102  1  0.89544644  0.37905336  0.66128099  1  0  -0.597114  0  2.061704  0  0  -0.53602  0  2.330457  0  0  -0.56275  0  2.319725  0  -1.189219  0  -0.324044  -0.517333  0  2.337115  0
O  O103  1  0.10455356  0.62094710  0.16128099  1  0  -0.597105  0  2.061714  0  0  -0.536013  0  2.330472  0  0  -0.562744  0  2.319739  0  -1.189224  0  -0.324046  -0.517327  0  2.337132  0
O  O104  1  0.62094556  0.10455360  0.83871844  1  0  -0.597099  0  2.06171  0  0  -0.536027  0  2.330493  0  0  -0.562757  0  2.319759  0  -1.18915  0  -0.324038  -0.517339  0  2.337152  0
O  O105  1  0.37905318  0.89544685  0.33871901  1  0  -0.597118  0  2.061739  0  0  -0.536024  0  2.330492  0  0  -0.562754  0  2.31976  0  -1.189147  0  -0.324045  -0.517337  0  2.337152  0
O  O106  1  0.60455230  0.87905233  0.08871901  1  0  -0.597034  0  2.061937  0  0  -0.535937  0  2.330691  0  0  -0.562668  0  2.319962  0  -1.189241  0  -0.323988  -0.51725  0  2.33735  0
O  O107  1  0.39544769  0.12094687  0.58871901  1  0  -0.597044  0  2.061944  0  0  -0.53595  0  2.3307  0  0  -0.562679  0  2.319971  0  -1.189249  0  -0.323992  -0.517262  0  2.337358  0
O  O108  1  0.58894129  0.89125733  0.92120157  1  0  -0.612368  0  2.080764  0  0  -0.54818  0  2.348351  0  0  -0.575454  0  2.337771  0  -1.191288  0  -0.326758  -0.528964  0  2.354616  0
O  O109  1  0.41105871  0.10874312  0.42120213  1  0  -0.612431  0  2.080682  0  0  -0.548249  0  2.348282  0  0  -0.575523  0  2.3377  0  -1.191286  0  -0.326798  -0.529031  0  2.354548  0
O  O110  1  0.60874307  0.08894008  0.67120213  1  0  -0.612425  0  2.080592  0  0  -0.548248  0  2.348184  0  0  -0.57553  0  2.337623  0  -1.191823  0  -0.326787  -0.529027  0  2.354451  0
O  O111  1  0.39125693  0.91105913  0.17120213  1  0  -0.612432  0  2.080639  0  0  -0.548253  0  2.348239  0  0  -0.575528  0  2.337662  0  -1.191831  0  -0.326803  -0.529035  0  2.354505  0
O  O112  1  0.91105871  0.39125711  0.82879787  1  0  -0.612414  0  2.080634  0  0  -0.548235  0  2.348235  0  0  -0.575509  0  2.337655  0  -1.191829  0  -0.326794  -0.529017  0  2.354501  0
O  O113  1  0.08894129  0.60874335  0.32879787  1  0  -0.612438  0  2.080619  0  0  -0.548259  0  2.348221  0  0  -0.575533  0  2.337641  0  -1.191277  0  -0.32681  -0.529041  0  2.354488  0
O  O114  1  0.89125818  0.58894156  0.07879843  1  0  -0.612409  0  2.080724  0  0  -0.548224  0  2.34832  0  0  -0.575495  0  2.337734  0  -1.191834  0  -0.326789  -0.529007  0  2.354586  0
O  O115  1  0.10874307  0.41105764  0.57879843  1  0  -0.612393  0  2.080675  0  0  -0.548209  0  2.34827  0  0  -0.575486  0  2.337696  0  -1.191831  0  -0.326778  -0.528993  0  2.354537  0
