# generated using pymatgen
data_ZnH12(C3O)4
_symmetry_space_group_name_H-M   'P 1'
_cell_length_a   8.76895972
_cell_length_b   9.25811728
_cell_length_c   17.30100000
_cell_angle_alpha   83.76737751
_cell_angle_beta   76.74757671
_cell_angle_gamma   61.73294826
_symmetry_Int_Tables_number   1
_chemical_formula_structural   ZnH12(C3O)4
_chemical_formula_sum   'Zn4 H48 C48 O16'
_cell_volume   1204.12699254
_cell_formula_units_Z   4
loop_
 _symmetry_equiv_pos_site_id
 _symmetry_equiv_pos_as_xyz
  1  'x, y, z'
loop_
 _atom_site_type_symbol
 _atom_site_label
 _atom_site_symmetry_multiplicity
 _atom_site_fract_x
 _atom_site_fract_y
 _atom_site_fract_z
 _atom_site_occupancy
 _atom_site_hle17_bader_spin_density
 _atom_site_hle17_ddec_charge
 _atom_site_hle17_ddec_spin_density
 _atom_site_hle17_ddec_sum_bond_order
 _atom_site_hle17_magmom
 _atom_site_hse06_10hf_bader_spin_density
 _atom_site_hse06_10hf_ddec_charge
 _atom_site_hse06_10hf_ddec_spin_density
 _atom_site_hse06_10hf_ddec_sum_bond_order
 _atom_site_hse06_10hf_magmom
 _atom_site_hse06_bader_spin_density
 _atom_site_hse06_ddec_charge
 _atom_site_hse06_ddec_spin_density
 _atom_site_hse06_ddec_sum_bond_order
 _atom_site_hse06_magmom
 _atom_site_pbe_bader_charge
 _atom_site_pbe_bader_spin_density
 _atom_site_pbe_cm5_charge
 _atom_site_pbe_ddec_charge
 _atom_site_pbe_ddec_spin_density
 _atom_site_pbe_ddec_sum_bond_order
 _atom_site_pbe_magmom
Zn  Zn0  1  0.22230373  0.87548753  0.27368769  1  0  1.121179  0  1.814185  0  0  0.948387  0  2.303094  0  0  0.999109  0  2.235846  0  1.315527  0  0.696713  0.913025  0  2.349116  0
Zn  Zn1  1  0.90234404  0.87544952  0.22634212  1  0  1.121193  0  1.813948  0  0  0.948559  0  2.30256  0  0  0.999269  0  2.235358  0  1.314033  0  0.696624  0.912932  0  2.349058  0
Zn  Zn2  1  0.77769867  0.12451182  0.72631490  1  0  1.121245  0  1.814152  0  0  0.948437  0  2.303073  0  0  0.999155  0  2.235826  0  1.315397  0  0.696745  0.91307  0  2.349098  0
Zn  Zn3  1  0.09765368  0.12454984  0.77365986  1  0  1.121165  0  1.814027  0  0  0.948527  0  2.302606  0  0  0.999238  0  2.235403  0  1.314268  0  0.696625  0.912898  0  2.349105  0
H  H4  1  0.57308018  0.40401711  0.43069918  1  0  0.105697  0  0.952075  0  0  0.12905  0  1.010392  0  0  0.129974  0  1.010994  0  0.041097  0  0.092665  0.128329  0  1.010077  0
H  H5  1  0.02282660  0.40407230  0.06925705  1  0  0.105803  0  0.952107  0  0  0.129207  0  1.010337  0  0  0.130133  0  1.01092  0  0.037019  0  0.092597  0.128479  0  1.010069  0
H  H6  1  0.42692513  0.59598347  0.56930012  1  0  0.105722  0  0.952176  0  0  0.129074  0  1.010502  0  0  0.129999  0  1.011103  0  0.041044  0  0.092687  0.128352  0  1.010188  0
H  H7  1  0.97717702  0.59592460  0.93074265  1  0  0.105805  0  0.952112  0  0  0.129208  0  1.010345  0  0  0.130133  0  1.010929  0  0.037031  0  0.092607  0.128479  0  1.010077  0
H  H8  1  0.78499477  0.36610360  0.44072371  1  0  0.112193  0  0.949307  0  0  0.131647  0  1.013574  0  0  0.13255  0  1.014689  0  0.058783  0  0.09244  0.13088  0  1.013064  0
H  H9  1  0.84874438  0.36620417  0.05928962  1  0  0.112218  0  0.949352  0  0  0.131562  0  1.013853  0  0  0.132463  0  1.01496  0  0.058641  0  0.092459  0.130878  0  1.013121  0
H  H10  1  0.21501610  0.63388349  0.55927167  1  0  0.112124  0  0.949297  0  0  0.131625  0  1.013531  0  0  0.132531  0  1.014642  0  0.058792  0  0.092422  0.130857  0  1.01302  0
H  H11  1  0.15125557  0.63380009  0.94070777  1  0  0.112224  0  0.949327  0  0  0.131581  0  1.013803  0  0  0.132481  0  1.014911  0  0.058646  0  0.092466  0.130897  0  1.013071  0
H  H12  1  0.76267554  0.22019515  0.39275599  1  0  0.109986  0  0.96168  0  0  0.129983  0  1.020695  0  0  0.131751  0  1.019866  0  0.038561  0  0.08914  0.128701  0  1.021157  0
H  H13  1  0.01704416  0.22025156  0.10719556  1  0  0.110072  0  0.961777  0  0  0.130132  0  1.02065  0  0  0.131909  0  1.019806  0  0.06036  0  0.089216  0.128779  0  1.021308  0
H  H14  1  0.23732223  0.77980176  0.60723803  1  0  0.109928  0  0.961828  0  0  0.129947  0  1.020815  0  0  0.131713  0  1.019993  0  0.038629  0  0.089121  0.128665  0  1.021277  0
H  H15  1  0.98295115  0.77975025  0.89280078  1  0  0.110057  0  0.961805  0  0  0.130123  0  1.020675  0  0  0.1319  0  1.019828  0  0.060378  0  0.089201  0.12877  0  1.021333  0
H  H16  1  0.64725184  0.65244106  0.44305024  1  0  0.108767  0  0.961233  0  0  0.128623  0  1.025368  0  0  0.129351  0  1.026972  0  0.073536  0  0.091136  0.128023  0  1.024349  0
H  H17  1  0.70036808  0.65254407  0.05696167  1  0  0.108874  0  0.961112  0  0  0.128787  0  1.025041  0  0  0.129499  0  1.026664  0  0.075357  0  0.091123  0.127999  0  1.024453  0
H  H18  1  0.35274893  0.34755217  0.55694827  1  0  0.108751  0  0.961286  0  0  0.128615  0  1.025402  0  0  0.129342  0  1.027007  0  0.073505  0  0.091149  0.128016  0  1.024381  0
H  H19  1  0.29963661  0.34745774  0.94303531  1  0  0.108896  0  0.961125  0  0  0.1288  0  1.025073  0  0  0.129512  0  1.026696  0  0.07525  0  0.091127  0.128012  0  1.024485  0
H  H20  1  0.43792514  0.69193414  0.42725090  1  0  0.114943  0  0.955039  0  0  0.135884  0  1.017415  0  0  0.137659  0  1.0166  0  0.054373  0  0.091762  0.134544  0  1.018129  0
H  H21  1  0.87020280  0.69201631  0.07278865  1  0  0.114809  0  0.955239  0  0  0.13581  0  1.017567  0  0  0.137564  0  1.016787  0  0.067207  0  0.09179  0.134437  0  1.018261  0
H  H22  1  0.56207787  0.30806398  0.57274591  1  0  0.114959  0  0.955024  0  0  0.135916  0  1.017377  0  0  0.137693  0  1.016559  0  0.05439  0  0.091779  0.134576  0  1.018092  0
H  H23  1  0.12980016  0.30798427  0.92721207  1  0  0.114773  0  0.955279  0  0  0.135762  0  1.017629  0  0  0.137515  0  1.016847  0  0.067254  0  0.091761  0.134389  0  1.018323  0
H  H24  1  0.52096569  0.83378819  0.39359978  1  0  0.105533  0  0.964366  0  0  0.125983  0  1.02492  0  0  0.127534  0  1.024602  0  0.050291  0  0.089245  0.124795  0  1.025168  0
H  H25  1  0.64531830  0.83384583  0.10645264  1  0  0.1054  0  0.965061  0  0  0.125817  0  1.025832  0  0  0.127365  0  1.025533  0  0.051598  0  0.089298  0.124826  0  1.025414  0
H  H26  1  0.47904440  0.16620748  0.60639981  1  0  0.10556  0  0.964345  0  0  0.125985  0  1.024925  0  0  0.127534  0  1.024606  0  0.050297  0  0.089202  0.124796  0  1.025174  0
H  H27  1  0.35469353  0.16615107  0.89354842  1  0  0.105428  0  0.96508  0  0  0.125837  0  1.025843  0  0  0.127385  0  1.025545  0  0.051419  0  0.089306  0.124846  0  1.025427  0
H  H28  1  0.80479744  0.89460801  0.57487994  1  0  0.120175  0  0.945621  0  0  0.142773  0  1.003618  0  0  0.144588  0  1.003238  0  0.075038  0  0.096693  0.141406  0  1.00386  0
H  H29  1  0.30063704  0.89471348  0.92524652  1  0  0.120422  0  0.945047  0  0  0.143377  0  1.002236  0  0  0.145176  0  1.001882  0  0.076803  0  0.096731  0.14143  0  1.003572  0
H  H30  1  0.19519129  0.10539993  0.42512317  1  0  0.120157  0  0.945646  0  0  0.142739  0  1.003653  0  0  0.144543  0  1.003287  0  0.075078  0  0.096673  0.141391  0  1.003875  0
H  H31  1  0.69936419  0.10528587  0.07475389  1  0  0.120426  0  0.945096  0  0  0.143384  0  1.002275  0  0  0.145183  0  1.001918  0  0.076747  0  0.096725  0.141437  0  1.003611  0
H  H32  1  0.66855313  0.90496601  0.51110205  1  0  0.104667  0  0.943391  0  0  0.126217  0  1.0049  0  0  0.127604  0  1.004619  0  0.045064  0  0.091924  0.125048  0  1.005206  0
H  H33  1  0.42687575  0.90482130  0.98891187  1  0  0.102847  0  0.945477  0  0  0.122658  0  1.010177  0  0  0.12404  0  1.009937  0  0.038464  0  0.091584  0.124554  0  1.005307  0
H  H34  1  0.33143600  0.09505051  0.48889646  1  0  0.104665  0  0.943433  0  0  0.126223  0  1.004933  0  0  0.12761  0  1.004651  0  0.045101  0  0.091956  0.125056  0  1.00524  0
H  H35  1  0.57312682  0.09517070  0.01108766  1  0  0.102867  0  0.945442  0  0  0.122673  0  1.010141  0  0  0.124056  0  1.009898  0  0.038422  0  0.091585  0.124569  0  1.005271  0
H  H36  1  0.86604672  0.91884126  0.47102230  1  0  0.108094  0  0.951269  0  0  0.13042  0  1.008162  0  0  0.131957  0  1.007794  0  0.021508  0  0.090729  0.129433  0  1.00816  0
H  H37  1  0.21550007  0.91887192  0.02912903  1  0  0.108691  0  0.951025  0  0  0.131294  0  1.007208  0  0  0.132843  0  1.006822  0  0.024717  0  0.091011  0.129785  0  1.008236  0
H  H38  1  0.13394849  0.08116545  0.52898186  1  0  0.108071  0  0.951274  0  0  0.1304  0  1.008169  0  0  0.131938  0  1.007799  0  0.021532  0  0.090732  0.129413  0  1.00817  0
H  H39  1  0.78450171  0.08112866  0.97087356  1  0  0.108727  0  0.950956  0  0  0.131292  0  1.007185  0  0  0.13284  0  1.006801  0  0.024697  0  0.091004  0.129783  0  1.008213  0
H  H40  1  0.28914756  0.43626843  0.31625366  1  0  0.105983  0  0.968509  0  0  0.126601  0  1.028876  0  0  0.127903  0  1.029099  0  0.033902  0  0.089564  0.125675  0  1.028691  0
H  H41  1  0.27454612  0.43621447  0.18372410  1  0  0.106063  0  0.968459  0  0  0.126754  0  1.028735  0  0  0.128082  0  1.02892  0  0.035743  0  0.089645  0.12576  0  1.028649  0
H  H42  1  0.71084352  0.56373951  0.68374860  1  0  0.105985  0  0.968501  0  0  0.126593  0  1.028884  0  0  0.127893  0  1.02911  0  0.034124  0  0.089555  0.125667  0  1.028699  0
H  H43  1  0.72545818  0.56377875  0.81627920  1  0  0.106013  0  0.968505  0  0  0.126719  0  1.028765  0  0  0.128047  0  1.02895  0  0.035989  0  0.089612  0.125723  0  1.028681  0
H  H44  1  0.21474724  0.28608482  0.32175342  1  0  0.127364  0  0.935043  0  0  0.147328  0  0.995685  0  0  0.149367  0  0.994928  0  0.081272  0  0.097385  0.14586  0  0.996191  0
H  H45  1  0.49909136  0.28589228  0.17818265  1  0  0.127381  0  0.93475  0  0  0.14757  0  0.995105  0  0  0.1496  0  0.994359  0  0.080737  0  0.097534  0.145946  0  0.995804  0
H  H46  1  0.78524093  0.71392189  0.67824866  1  0  0.127355  0  0.935017  0  0  0.147312  0  0.995672  0  0  0.149352  0  0.994913  0  0.081086  0  0.09739  0.145845  0  0.996178  0
H  H47  1  0.50090987  0.71410708  0.82181661  1  0  0.127322  0  0.934805  0  0  0.147553  0  0.995112  0  0  0.149584  0  0.994366  0  0.080737  0  0.097529  0.145929  0  0.99581  0
H  H48  1  0.38641404  0.25193506  0.36898295  1  0  0.112245  0  0.932843  0  0  0.135515  0  0.98904  0  0  0.137145  0  0.988641  0  0.035284  0  0.093821  0.134394  0  0.989137  0
H  H49  1  0.36143450  0.25196818  0.13094704  1  0  0.112719  0  0.931843  0  0  0.135904  0  0.988111  0  0  0.137507  0  0.987741  0  0.029874  0  0.093928  0.134729  0  0.98825  0
H  H50  1  0.61357643  0.74807410  0.63102104  1  0  0.112267  0  0.932859  0  0  0.135542  0  0.989034  0  0  0.13717  0  0.988637  0  0.035201  0  0.093797  0.13442  0  0.989133  0
H  H51  1  0.63856979  0.74802505  0.86905511  1  0  0.112771  0  0.931755  0  0  0.135903  0  0.988105  0  0  0.137506  0  0.987735  0  0.029894  0  0.093906  0.134728  0  0.988245  0
C  C52  1  0.91344617  0.17321134  0.24999161  1  0  0.689639  0  3.868405  0  0  0.640287  0  4.154443  0  0  0.676185  0  4.145223  0  1.527984  0  0.229741  0.615882  0  4.159956  0
C  C53  1  0.08655389  0.82678802  0.75000663  1  0  0.689689  0  3.868329  0  0  0.640326  0  4.154406  0  0  0.676221  0  4.145188  0  1.528093  0  0.229795  0.61592  0  4.15992  0
C  C54  1  0.82191897  0.35622144  0.24999469  1  0  -0.159526  0  3.705419  0  0  -0.155251  0  3.947608  0  0  -0.162691  0  3.968586  0  -0.038468  0  -0.019389  -0.150532  0  3.933823  0
C  C55  1  0.17808588  0.64377301  0.75000501  1  0  -0.159502  0  3.705262  0  0  -0.155285  0  3.947582  0  0  -0.162724  0  3.968561  0  -0.038665  0  -0.019427  -0.150567  0  3.933798  0
C  C56  1  0.73036235  0.43951098  0.32279354  1  0  0.090659  0  3.687933  0  0  0.101897  0  3.930358  0  0  0.102648  0  3.954546  0  0.039597  0  -0.005118  0.101318  0  3.914034  0
C  C57  1  0.83016408  0.43952938  0.17720421  1  0  0.090789  0  3.687617  0  0  0.102104  0  3.929861  0  0  0.102811  0  3.95408  0  -0.039202  0  -0.005299  0.101229  0  3.914214  0
C  C58  1  0.26964244  0.56048592  0.67720603  1  0  0.090668  0  3.687918  0  0  0.101906  0  3.930404  0  0  0.102655  0  3.954594  0  0.039931  0  -0.005095  0.101326  0  3.91408  0
C  C59  1  0.16983899  0.56046630  0.82279505  1  0  0.090899  0  3.687483  0  0  0.102196  0  3.929788  0  0  0.102904  0  3.954009  0  -0.039147  0  -0.005245  0.101322  0  3.914141  0
C  C60  1  0.64743795  0.61198649  0.32290153  1  0  0.085169  0  3.719122  0  0  0.09425  0  3.967015  0  0  0.095036  0  3.990555  0  -0.002276  0  -0.011603  0.093611  0  3.95131  0
C  C61  1  0.74064075  0.61200366  0.17711317  1  0  0.085555  0  3.71913  0  0  0.094675  0  3.966943  0  0  0.09548  0  3.990466  0  0.059791  0  -0.011592  0.09369  0  3.95174  0
C  C62  1  0.35256801  0.38801041  0.67709674  1  0  0.085201  0  3.719092  0  0  0.094296  0  3.966972  0  0  0.095084  0  3.99051  0  -0.002317  0  -0.011609  0.093656  0  3.951269  0
C  C63  1  0.25935869  0.38799692  0.82288565  1  0  0.085529  0  3.719121  0  0  0.094686  0  3.966915  0  0  0.095483  0  3.990452  0  0.059843  0  -0.011581  0.093702  0  3.951712  0
C  C64  1  0.65262448  0.69485538  0.25001104  1  0  -0.215058  0  3.791007  0  0  -0.210514  0  4.04196  0  0  -0.217576  0  4.062064  0  -0.032221  0  -0.031926  -0.206089  0  4.029267  0
C  C65  1  0.34738266  0.30514152  0.74998883  1  0  -0.21513  0  3.791051  0  0  -0.210577  0  4.042052  0  0  -0.217638  0  4.062155  0  -0.032172  0  -0.031934  -0.206153  0  4.029361  0
C  C66  1  0.56089914  0.87831802  0.25001664  1  0  0.699954  0  3.859349  0  0  0.649996  0  4.144558  0  0  0.685201  0  4.136952  0  1.494207  0  0.232826  0.625821  0  4.149664  0
C  C67  1  0.43910683  0.12167888  0.74998221  1  0  0.700111  0  3.85929  0  0  0.650047  0  4.144649  0  0  0.685252  0  4.137042  0  1.494233  0  0.232794  0.62587  0  4.149759  0
C  C68  1  0.71265490  0.35179912  0.40027784  1  0  -0.324558  0  3.724509  0  0  -0.402306  0  3.959346  0  0  -0.404574  0  3.969219  0  -0.071178  0  -0.241094  -0.400514  0  3.952628  0
C  C69  1  0.93547685  0.35186166  0.09970147  1  0  -0.324908  0  3.724677  0  0  -0.402678  0  3.959367  0  0  -0.404919  0  3.96922  0  -0.096701  0  -0.241112  -0.40087  0  3.952899  0
C  C70  1  0.28734756  0.64819778  0.59971969  1  0  -0.324485  0  3.724656  0  0  -0.40229  0  3.959502  0  0  -0.40456  0  3.969377  0  -0.071361  0  -0.241102  -0.400496  0  3.952782  0
C  C71  1  0.06452019  0.64814137  0.90029749  1  0  -0.324956  0  3.724602  0  0  -0.402722  0  3.959309  0  0  -0.404959  0  3.969155  0  -0.096707  0  -0.241137  -0.400915  0  3.952843  0
C  C72  1  0.55850636  0.70295561  0.40053792  1  0  -0.334951  0  3.725738  0  0  -0.415446  0  3.965689  0  0  -0.417818  0  3.975134  0  -0.110079  0  -0.244845  -0.413476  0  3.959204  0
C  C73  1  0.73860308  0.70301080  0.09949071  1  0  -0.334879  0  3.726153  0  0  -0.415345  0  3.966065  0  0  -0.417726  0  3.97555  0  -0.110284  0  -0.244847  -0.413325  0  3.959803  0
C  C74  1  0.44149666  0.29704252  0.59946005  1  0  -0.335013  0  3.725714  0  0  -0.415493  0  3.965667  0  0  -0.417862  0  3.975104  0  -0.110094  0  -0.244831  -0.413526  0  3.959186  0
C  C75  1  0.26140351  0.29698488  0.90050814  1  0  -0.334906  0  3.72622  0  0  -0.415357  0  3.966126  0  0  -0.417734  0  3.975614  0  -0.110151  0  -0.244834  -0.413337  0  3.959863  0
C  C76  1  0.05576467  0.70424454  0.37078824  1  0  0.707434  0  3.857712  0  0  0.655563  0  4.147955  0  0  0.691473  0  4.138987  0  1.544578  0  0.233763  0.631008  0  4.153531  0
C  C77  1  0.24012468  0.70417341  0.12924782  1  0  0.706881  0  3.85681  0  0  0.655209  0  4.146756  0  0  0.691135  0  4.137725  0  1.558795  0  0.233807  0.630745  0  4.152145  0
C  C78  1  0.94422513  0.29576831  0.62921272  1  0  0.707412  0  3.857375  0  0  0.655543  0  4.147609  0  0  0.691454  0  4.138639  0  1.543683  0  0.233757  0.630966  0  4.15322  0
C  C79  1  0.75987498  0.29581736  0.87075328  1  0  0.706878  0  3.856885  0  0  0.654995  0  4.147145  0  0  0.690918  0  4.138119  0  1.558719  0  0.233688  0.630532  0  4.152531  0
C  C80  1  0.03132354  0.59717919  0.43891346  1  0  -0.16447  0  3.722509  0  0  -0.159097  0  3.970174  0  0  -0.165804  0  3.990415  0  -0.032391  0  -0.020056  -0.154474  0  3.956462  0
C  C81  1  0.37158584  0.59713749  0.06110658  1  0  -0.164232  0  3.722822  0  0  -0.158836  0  3.970116  0  0  -0.165598  0  3.990358  0  -0.035318  0  -0.020111  -0.154356  0  3.956519  0
C  C82  1  0.96866743  0.40283366  0.56108679  1  0  -0.164501  0  3.722545  0  0  -0.159068  0  3.97005  0  0  -0.165774  0  3.990289  0  -0.031913  0  -0.020066  -0.154442  0  3.956346  0
C  C83  1  0.62841555  0.40285451  0.93889366  1  0  -0.164138  0  3.722813  0  0  -0.158705  0  3.970137  0  0  -0.165465  0  3.99038  0  -0.035401  0  -0.020042  -0.154227  0  3.956541  0
C  C84  1  0.90552878  0.67319998  0.50772708  1  0  0.072737  0  3.727136  0  0  0.080726  0  3.978836  0  0  0.081242  0  4.00277  0  -0.028539  0  -0.010743  0.080443  0  3.962607  0
C  C85  1  0.42140111  0.67318403  0.99231782  1  0  0.072935  0  3.727841  0  0  0.081084  0  3.97887  0  0  0.08162  0  4.002794  0  -0.009315  0  -0.010605  0.080448  0  3.963302  0
C  C86  1  0.09446648  0.32680428  0.49227374  1  0  0.072733  0  3.727138  0  0  0.080695  0  3.978875  0  0  0.08121  0  4.002808  0  -0.029195  0  -0.010752  0.080413  0  3.962652  0
C  C87  1  0.57860196  0.32681164  0.00768375  1  0  0.072884  0  3.72778  0  0  0.081027  0  3.97887  0  0  0.081561  0  4.002794  0  -0.009326  0  -0.010665  0.080392  0  3.963303  0
C  C88  1  0.80724775  0.85708572  0.51630404  1  0  -0.326  0  3.723901  0  0  -0.404515  0  3.960551  0  0  -0.407101  0  3.970371  0  -0.049425  0  -0.237342  -0.402445  0  3.953591  0
C  C89  1  0.33590062  0.85705628  0.98378374  1  0  -0.325598  0  3.725352  0  0  -0.403563  0  3.961829  0  0  -0.406137  0  3.971653  0  -0.049711  0  -0.237271  -0.402259  0  3.954072  0
C  C90  1  0.19274093  0.14292468  0.48369777  1  0  -0.325938  0  3.723989  0  0  -0.404452  0  3.960704  0  0  -0.407028  0  3.970527  0  -0.049611  0  -0.237352  -0.402401  0  3.953731  0
C  C91  1  0.66410194  0.14293571  0.01621810  1  0  -0.325653  0  3.72525  0  0  -0.403561  0  3.961716  0  0  -0.406145  0  3.971558  0  -0.049625  0  -0.23723  -0.402256  0  3.953956  0
C  C92  1  0.12727814  0.42591779  0.42989131  1  0  0.078085  0  3.7193  0  0  0.086392  0  3.969489  0  0  0.086817  0  3.993796  0  0.017672  0  -0.009387  0.08589  0  3.953014  0
C  C93  1  0.44674458  0.42588591  0.07008942  1  0  0.078141  0  3.719846  0  0  0.086589  0  3.969654  0  0  0.087035  0  3.993944  0  -0.009815  0  -0.009499  0.085774  0  3.953685  0
C  C94  1  0.87271712  0.57408647  0.57011009  1  0  0.078094  0  3.719403  0  0  0.08647  0  3.969419  0  0  0.086893  0  3.993726  0  0.017202  0  -0.009317  0.085968  0  3.952947  0
C  C95  1  0.55325916  0.57410609  0.92991229  1  0  0.077988  0  3.719923  0  0  0.086511  0  3.96961  0  0  0.086956  0  3.993901  0  -0.009777  0  -0.009553  0.085697  0  3.953641  0
C  C96  1  0.26023235  0.34739274  0.35537310  1  0  -0.328561  0  3.720293  0  0  -0.406921  0  3.958038  0  0  -0.409562  0  3.967639  0  -0.060417  0  -0.239055  -0.404668  0  3.951167  0
C  C97  1  0.39227324  0.34733019  0.14458199  1  0  -0.328855  0  3.719087  0  0  -0.407165  0  3.956324  0  0  -0.409845  0  3.965991  0  -0.056276  0  -0.239357  -0.405048  0  3.950141  0
C  C98  1  0.73975878  0.65261275  0.64462871  1  0  -0.328563  0  3.720196  0  0  -0.406941  0  3.957914  0  0  -0.409581  0  3.967515  0  -0.05996  0  -0.239042  -0.404684  0  3.951031  0
C  C99  1  0.60772687  0.65266671  0.85541928  1  0  -0.328767  0  3.719052  0  0  -0.407106  0  3.956259  0  0  -0.409786  0  3.965929  0  -0.056472  0  -0.239296  -0.404988  0  3.950077  0
O  O100  1  0.02545372  0.09996952  0.29481430  1  0  -0.635388  0  2.080971  0  0  -0.565676  0  2.349702  0  0  -0.59411  0  2.332249  0  -1.161622  0  -0.308964  -0.545872  0  2.361018  0
O  O101  1  0.87476599  0.09990330  0.20516865  1  0  -0.63552  0  2.080747  0  0  -0.566264  0  2.349846  0  0  -0.594608  0  2.332369  0  -1.16347  0  -0.308857  -0.545973  0  2.361022  0
O  O102  1  0.97454689  0.90003106  0.70518496  1  0  -0.635445  0  2.081007  0  0  -0.565703  0  2.349724  0  0  -0.594135  0  2.332271  0  -1.161467  0  -0.308973  -0.545898  0  2.361041  0
O  O103  1  0.12524227  0.90009606  0.79482633  1  0  -0.635529  0  2.080777  0  0  -0.566264  0  2.349915  0  0  -0.59461  0  2.332438  0  -1.163548  0  -0.308907  -0.545972  0  2.361092  0
O  O104  1  0.39268178  0.95745381  0.26689901  1  0  -0.613463  0  2.062651  0  0  -0.539032  0  2.330355  0  0  -0.569314  0  2.314647  0  -1.139451  0  -0.307063  -0.518033  0  2.340445  0
O  O105  1  0.64995587  0.95746853  0.23314664  1  0  -0.613675  0  2.06262  0  0  -0.539054  0  2.33002  0  0  -0.569178  0  2.314287  0  -1.148428  0  -0.307224  -0.518105  0  2.340521  0
O  O106  1  0.60732067  0.04254309  0.73309794  1  0  -0.613596  0  2.062728  0  0  -0.539075  0  2.330419  0  0  -0.569352  0  2.314711  0  -1.139537  0  -0.307068  -0.518075  0  2.34051  0
O  O107  1  0.35004240  0.04253205  0.76685289  1  0  -0.6137  0  2.062554  0  0  -0.539076  0  2.330048  0  0  -0.569203  0  2.314318  0  -1.148426  0  -0.307212  -0.518124  0  2.340549  0
O  O108  1  0.19180734  0.72756291  0.35888188  1  0  -0.627409  0  2.057593  0  0  -0.554453  0  2.323688  0  0  -0.584195  0  2.30768  0  -1.15046  0  -0.301451  -0.533955  0  2.334229  0
O  O109  1  0.08076412  0.72749791  0.14115317  1  0  -0.62752  0  2.057338  0  0  -0.554776  0  2.323248  0  0  -0.584544  0  2.307241  0  -1.152857  0  -0.301511  -0.533867  0  2.333483  0
O  O110  1  0.80819445  0.27243767  0.64111782  1  0  -0.627422  0  2.057562  0  0  -0.554494  0  2.323672  0  0  -0.584236  0  2.307663  0  -1.149974  0  -0.301464  -0.53398  0  2.334204  0
O  O111  1  0.91923555  0.27249286  0.85885139  1  0  -0.627522  0  2.057305  0  0  -0.554673  0  2.323266  0  0  -0.584439  0  2.307263  0  -1.152821  0  -0.301465  -0.533764  0  2.333499  0
O  O112  1  0.93583252  0.76531822  0.32979945  1  0  -0.643409  0  2.087422  0  0  -0.571888  0  2.363051  0  0  -0.601717  0  2.34658  0  -1.185557  0  -0.305818  -0.551375  0  2.374036  0
O  O113  1  0.29899031  0.76522624  0.17024735  1  0  -0.643267  0  2.086889  0  0  -0.571834  0  2.362481  0  0  -0.601601  0  2.345941  0  -1.183716  0  -0.305747  -0.551272  0  2.373219  0
O  O114  1  0.06415232  0.23470689  0.67020715  1  0  -0.643427  0  2.087238  0  0  -0.57189  0  2.362834  0  0  -0.601721  0  2.346362  0  -1.185433  0  -0.305835  -0.551368  0  2.37383  0
O  O115  1  0.70101102  0.23476821  0.82975276  1  0  -0.643203  0  2.087023  0  0  -0.571734  0  2.362796  0  0  -0.601499  0  2.346256  0  -1.183748  0  -0.305672  -0.551171  0  2.373532  0
