# generated using pymatgen
data_VH4(C3O2)2
_symmetry_space_group_name_H-M   'P 1'
_cell_length_a   4.97390230
_cell_length_b   6.24658152
_cell_length_c   19.63664140
_cell_angle_alpha   89.99609116
_cell_angle_beta   94.41243684
_cell_angle_gamma   89.99479248
_symmetry_Int_Tables_number   1
_chemical_formula_structural   VH4(C3O2)2
_chemical_formula_sum   'V4 H16 C24 O16'
_cell_volume   608.29989401
_cell_formula_units_Z   4
loop_
 _symmetry_equiv_pos_site_id
 _symmetry_equiv_pos_as_xyz
  1  'x, y, z'
loop_
 _atom_site_type_symbol
 _atom_site_label
 _atom_site_symmetry_multiplicity
 _atom_site_fract_x
 _atom_site_fract_y
 _atom_site_fract_z
 _atom_site_occupancy
 _atom_site_hle17_ddec_charge
 _atom_site_hle17_ddec_spin_density
 _atom_site_hle17_ddec_sum_bond_order
 _atom_site_hle17_magmom
 _atom_site_hse06_10hf_ddec_charge
 _atom_site_hse06_10hf_ddec_spin_density
 _atom_site_hse06_10hf_ddec_sum_bond_order
 _atom_site_hse06_10hf_magmom
 _atom_site_hse06_ddec_charge
 _atom_site_hse06_ddec_spin_density
 _atom_site_hse06_ddec_sum_bond_order
 _atom_site_hse06_magmom
 _atom_site_pbe_cm5_charge
 _atom_site_pbe_ddec_charge
 _atom_site_pbe_ddec_spin_density
 _atom_site_pbe_ddec_sum_bond_order
 _atom_site_pbe_magmom
V  V0  1  0.14416797  0.62542770  0.22860332  1  1.819496  1.24014  2.516985  1.21  1.836219  1.044034  2.928664  1.018  1.933037  1.082361  2.87297  1.058  1.330291  1.763312  1.008463  2.982155  0.981
V  V1  1  0.35589831  0.12540433  0.27138780  1  1.818986  1.240357  2.517409  1.21  1.835581  1.044213  2.929273  1.018  1.932659  1.082479  2.873174  1.059  1.32997  1.762771  1.009051  2.982536  0.981
V  V2  1  0.85527044  0.37482294  0.77135921  1  1.820171  -1.290764  2.513804  -1.202  1.837072  -1.07246  2.925567  -1.011  1.933973  -1.11936  2.869682  -1.054  1.331274  1.763766  -1.02635  2.979665  -0.968
V  V3  1  0.64468329  0.87486707  0.72865053  1  1.81988  1.235982  2.514518  1.203  1.836839  1.040237  2.925905  1.011  1.933703  1.081766  2.870216  1.054  1.33101  1.763428  0.999436  2.980046  0.968
H  H4  1  0.58532799  0.44014807  0.21899558  1  0.447964  0.002679  0.844127  0.008  0.428473  0.003631  0.892565  0.008  0.443031  0.002885  0.87155  0.008  0.297548  0.418375  0.00431  0.90708  0.009
H  H5  1  0.91477251  0.94015013  0.28101022  1  0.4478  0.002677  0.844345  0.008  0.428299  0.00363  0.892798  0.008  0.442863  0.002885  0.871775  0.008  0.29752  0.418191  0.004309  0.907338  0.009
H  H6  1  0.41435831  0.56019382  0.78084953  1  0.447237  0.000466  0.845037  -0.002  0.427718  0.000372  0.893554  -0.001  0.442318  0.000415  0.872495  -0.001  0.297223  0.417493  0.00031  0.908237  -0.002
H  H7  1  0.08556108  0.06017250  0.71914197  1  0.447532  -0.000483  0.84461  0.002  0.428034  -0.000389  0.893094  0.001  0.442637  -0.00043  0.872026  0.001  0.297382  0.417801  -0.000327  0.907787  0.002
H  H8  1  0.67212523  0.72004322  0.38795235  1  0.123364  -0.000928  0.959668  0.0  0.13453  -0.000696  1.020205  0.0  0.139199  -0.00074  1.016151  0.0  0.109017  0.130974  -0.000631  1.023475  0.0
H  H9  1  0.82788683  0.21999818  0.11205679  1  0.1234  -0.000967  0.95959  0.0  0.134602  -0.000678  1.020078  0.0  0.139269  -0.00073  1.01602  0.0  0.109033  0.131023  -0.000602  1.023381  0.0
H  H10  1  0.32800483  0.27969189  0.61214031  1  0.123601  -0.000801  0.95995  0.0  0.134714  -0.000785  1.020479  0.0  0.139372  -0.000741  1.016451  0.0  0.109147  0.131151  -0.000817  1.023742  0.0
H  H11  1  0.17193434  0.77980581  0.88784209  1  0.123409  0.000843  0.95984  0.0  0.134616  0.000769  1.020324  0.0  0.139279  0.000731  1.016281  0.0  0.10915  0.131039  0.000788  1.023596  0.0
H  H12  1  0.33046381  0.90132724  0.45204846  1  0.103548  -7e-05  0.950149  0.0  0.114291  -0.000105  1.011085  0.0  0.117329  -9.3e-05  1.010092  0.0  0.106829  0.111983  -0.000108  1.01206  0.0
H  H13  1  0.16957424  0.40128819  0.04796356  1  0.103504  -0.000222  0.950141  0.0  0.114244  -0.000141  1.01107  0.0  0.11728  -0.000133  1.010082  0.0  0.106829  0.111933  -0.000141  1.012044  0.0
H  H14  1  0.66984022  0.09853274  0.54806350  1  0.103679  -9.1e-05  0.949572  0.0  0.11422  -0.000119  1.010719  0.0  0.117331  -9.8e-05  1.009632  0.0  0.106791  0.111854  -0.00013  1.011761  0.0
H  H15  1  0.83010548  0.59860065  0.95192421  1  0.103658  0.000155  0.949462  0.0  0.114185  9.1e-05  1.010631  0.0  0.117302  8.6e-05  1.009535  0.0  0.106766  0.111804  9e-05  1.011698  0.0
H  H16  1  0.03977456  0.90521751  0.55054090  1  0.100905  -0.000196  0.961816  0.0  0.113021  -0.000157  1.021355  0.0  0.115956  -0.000158  1.019553  0.0  0.106378  0.110826  -0.00016  1.022741  0.0
H  H17  1  0.46024552  0.40519983  0.94947628  1  0.101079  0.00026  0.961576  0.0  0.113184  0.000162  1.021139  0.0  0.116125  0.00017  1.019336  0.0  0.106475  0.110989  0.000155  1.022534  0.0
H  H18  1  0.96068997  0.09467608  0.44960949  1  0.100735  -0.000213  0.96171  0.0  0.112955  -0.000174  1.021143  0.0  0.115904  -0.000175  1.019337  0.0  0.10626  0.110765  -0.00017  1.02252  0.0
H  H19  1  0.53927776  0.59472904  0.05037415  1  0.100803  -0.000263  0.961772  0.0  0.112982  -0.000175  1.021258  0.0  0.115923  -0.000182  1.019454  0.0  0.106289  0.110787  -0.000164  1.022641  0.0
C  C20  1  0.00862447  0.40731099  0.35614659  1  0.704057  0.009603  3.802457  0.01  0.663765  0.010108  4.090577  0.01  0.705719  0.006748  4.076482  0.007  0.241111  0.633986  0.015475  4.099766  0.014
C  C21  1  0.49140224  0.90730621  0.14384931  1  0.704594  0.00947  3.802438  0.01  0.66413  0.009915  4.09076  0.01  0.706113  0.006656  4.076632  0.007  0.241086  0.634298  0.014839  4.100033  0.013
C  C22  1  0.99162852  0.59253299  0.64394615  1  0.704805  0.001312  3.801093  0.001  0.664159  0.00305  4.089721  0.002  0.706104  0.001011  4.075683  0.0  0.240956  0.634287  0.006723  4.098987  0.005
C  C23  1  0.50837313  0.09253940  0.85606558  1  0.703698  -0.001315  3.802379  -0.001  0.663471  -0.003011  4.090356  -0.002  0.705417  -0.00105  4.076343  0.0  0.240932  0.63355  -0.006185  4.099658  -0.004
C  C24  1  0.83601696  0.40977033  0.41425067  1  -0.068505  -0.005374  3.756401  -0.004  -0.048281  -0.002343  3.991325  -0.002  -0.058533  -0.002431  4.013821  -0.002  -0.013664  -0.041961  -0.001757  3.977423  -0.002
C  C25  1  0.66397207  0.90976984  0.08574827  1  -0.068793  -0.007983  3.756413  -0.006  -0.048688  -0.004275  3.991586  -0.003  -0.058954  -0.004021  4.014072  -0.003  -0.013738  -0.042389  -0.005043  3.97774  -0.004
C  C26  1  0.16421448  0.59005603  0.58586004  1  -0.06876  0.000316  3.756434  0.0  -0.048901  0.000503  3.991881  0.0  -0.059172  0.000338  4.014384  0.0  -0.013623  -0.042577  0.001228  3.978045  0.0
C  C27  1  0.33577437  0.09008538  0.91414575  1  -0.068564  0.002343  3.756785  0.002  -0.048672  0.00154  3.991995  0.001  -0.058941  0.001363  4.014496  0.001  -0.013727  -0.042366  0.002421  3.9782  0.002
C  C28  1  0.67146246  0.58519775  0.42314980  1  -0.07916  0.001631  3.639913  0.001  -0.114251  0.001816  3.887004  0.001  -0.111893  0.001014  3.903064  0.001  -0.068473  -0.116201  0.003739  3.877002  0.002
C  C29  1  0.82855959  0.08518576  0.07685689  1  -0.079104  0.003857  3.63926  0.003  -0.114106  0.002665  3.886249  0.002  -0.111772  0.002134  3.902381  0.002  -0.068605  -0.116085  0.004447  3.876301  0.003
C  C30  1  0.32873483  0.41458059  0.57696388  1  -0.079064  0.000893  3.638858  0.0  -0.113755  0.001297  3.885918  0.001  -0.111416  0.000604  3.902079  0.0  -0.068652  -0.115732  0.002825  3.875949  0.002
C  C31  1  0.17123089  0.91464705  0.92302872  1  -0.078629  -0.003629  3.638801  -0.002  -0.113587  -0.002297  3.885754  -0.001  -0.111247  -0.001913  3.901911  -0.001  -0.068556  -0.115604  -0.003722  3.875857  -0.002
C  C32  1  0.49989582  0.58944540  0.47711859  1  0.059825  -0.00021  3.770366  0.0  0.075717  0.000307  4.000835  0.0  0.074882  0.000119  4.025398  0.0  -0.002129  0.076272  0.000675  3.984219  0.0
C  C33  1  0.00011868  0.08943208  0.02288261  1  0.059672  -0.002634  3.769894  -0.002  0.075475  -0.001463  4.000261  -0.001  0.074635  -0.001404  4.024811  -0.001  -0.002121  0.076034  -0.002052  3.983654  -0.002
C  C34  1  0.50042317  0.41042418  0.52301858  1  0.059725  0.000296  3.769602  0.0  0.075329  0.000464  4.000179  0.0  0.074456  0.000287  4.024737  0.0  -0.002486  0.075904  0.000952  3.98358  0.0
C  C35  1  0.99952342  0.91045517  0.97696580  1  0.059533  0.002695  3.76967  0.002  0.075472  0.001575  3.999817  0.001  0.074604  0.001475  4.024372  0.001  -0.002426  0.076048  0.002275  3.983227  0.002
C  C36  1  0.32893742  0.76693322  0.48750953  1  -0.106415  -0.000103  3.721567  0.0  -0.127356  9.9e-05  3.976643  0.0  -0.13146  -7.8e-05  3.998438  0.0  -0.082338  -0.124689  0.000645  3.962143  0.0
C  C37  1  0.17107650  0.26690481  0.01250556  1  -0.106084  0.00264  3.721094  0.002  -0.127001  0.001284  3.976144  0.001  -0.131097  0.001397  3.997933  0.001  -0.082336  -0.124339  0.001746  3.961652  0.001
C  C38  1  0.67143199  0.23295877  0.51262852  1  -0.106004  -0.001019  3.719738  -0.001  -0.126617  -0.000199  3.974839  0.0  -0.130734  -0.000389  3.996564  0.0  -0.081891  -0.123945  0.000224  3.960409  0.0
C  C39  1  0.82849348  0.73302726  0.98735536  1  -0.106038  -0.003718  3.719545  -0.003  -0.126728  -0.001592  3.974568  -0.001  -0.130849  -0.00172  3.996291  -0.001  -0.082026  -0.124071  -0.00202  3.960159  -0.001
C  C40  1  0.16712506  0.76854230  0.54113945  1  -0.059534  6e-06  3.730488  0.0  -0.086035  0.000334  3.983382  0.0  -0.085144  0.000169  4.00405  0.0  -0.081382  -0.08672  0.000573  3.969789  0.001
C  C41  1  0.33290119  0.26853673  0.95887475  1  -0.059949  -0.00235  3.730042  -0.002  -0.08652  -0.001173  3.982974  -0.001  -0.085647  -0.001211  4.00366  -0.001  -0.081499  -0.087222  -0.001626  3.969413  -0.001
C  C42  1  0.83323588  0.23130006  0.45898674  1  -0.059506  0.000454  3.729411  0.001  -0.086294  0.000298  3.982265  0.0  -0.085446  0.000169  4.002971  0.0  -0.081445  -0.086944  0.000636  3.968618  0.001
C  C43  1  0.66672371  0.73135211  0.04100087  1  -0.059341  0.00246  3.729343  0.002  -0.086049  0.00107  3.982198  0.001  -0.085188  0.001103  4.002895  0.001  -0.081266  -0.086711  0.001588  3.968583  0.001
O  O44  1  0.12825206  0.23257084  0.34299912  1  -0.661159  0.003385  2.099693  -0.01  -0.626106  0.014715  2.368337  0.0  -0.659966  0.013499  2.357299  0.0  -0.349783  -0.601003  0.015862  2.376495  0.0
O  O45  1  0.37168641  0.73260403  0.15698792  1  -0.661563  0.003156  2.099813  -0.011  -0.626532  0.014441  2.368759  -0.001  -0.660267  0.013325  2.357541  -0.001  -0.349881  -0.601393  0.015223  2.376961  -0.001
O  O46  1  0.87288903  0.76760126  0.65725363  1  -0.661109  0.000764  2.099102  -0.012  -0.62614  0.009484  2.36811  -0.005  -0.659928  0.009733  2.356991  -0.004  -0.349935  -0.600846  0.008783  2.376306  -0.006
O  O47  1  0.62727975  0.26754259  0.84277698  1  -0.66066  -0.001823  2.099159  0.013  -0.625926  -0.01001  2.368198  0.005  -0.659699  -0.010432  2.357011  0.004  -0.350069  -0.60065  -0.008821  2.376483  0.007
O  O48  1  0.43973781  0.42536273  0.25074401  1  -1.005828  -0.007634  1.868214  -0.037  -1.005511  0.020497  2.139966  -0.012  -1.049326  0.018034  2.113874  -0.013  -0.666961  -0.970964  0.022565  2.159365  -0.011
O  O49  1  0.06032501  0.92536542  0.24925161  1  -1.005584  -0.007646  1.868251  -0.037  -1.005253  0.020473  2.139977  -0.012  -1.049066  0.018012  2.113884  -0.013  -0.666963  -0.970693  0.022539  2.159353  -0.011
O  O50  1  0.55942611  0.57475508  0.74896982  1  -1.00566  0.004837  1.865388  0.008  -1.005491  0.002451  2.137156  0.005  -1.049275  0.002032  2.111204  0.005  -0.666831  -0.970724  0.002807  2.15668  0.006
O  O51  1  0.94054525  0.07473945  0.75103668  1  -1.005938  -0.006999  1.86538  -0.008  -1.005756  -0.003806  2.137119  -0.005  -1.049543  -0.003543  2.11117  -0.005  -0.666972  -0.970962  -0.003976  2.156639  -0.006
O  O52  1  0.02270257  0.58026316  0.32143251  1  -0.654154  0.003329  2.096545  -0.009  -0.618801  0.018422  2.360265  0.005  -0.652704  0.015114  2.350928  0.002  -0.354012  -0.594034  0.021978  2.367119  0.008
O  O53  1  0.47740793  0.08023145  0.17857412  1  -0.654207  0.003131  2.096751  -0.01  -0.618737  0.018242  2.360482  0.005  -0.652685  0.014995  2.351105  0.002  -0.354014  -0.594051  0.021591  2.367376  0.007
O  O54  1  0.97659210  0.41941277  0.67850971  1  -0.654737  0.001776  2.096806  0.016  -0.61894  -0.009194  2.360473  0.006  -0.652863  -0.008814  2.351154  0.006  -0.353586  -0.594069  -0.008508  2.367377  0.007
O  O55  1  0.52325290  0.91944602  0.82148189  1  -0.654182  -0.002972  2.097264  -0.016  -0.618652  0.008571  2.360769  -0.006  -0.652548  0.008066  2.351457  -0.006  -0.353695  -0.593858  0.008247  2.367802  -0.006
O  O56  1  0.90478561  0.50004481  0.18471783  1  -0.724481  -0.210802  1.350135  -0.204  -0.739546  -0.09113  1.623464  -0.092  -0.780126  -0.113435  1.611099  -0.115  -0.572224  -0.709935  -0.075891  1.634539  -0.077
O  O57  1  0.59530951  0.00008557  0.31530117  1  -0.724288  -0.210922  1.350482  -0.204  -0.739259  -0.091175  1.623677  -0.092  -0.779882  -0.113489  1.611249  -0.115  -0.572145  -0.709798  -0.075932  1.634744  -0.077
O  O58  1  0.09406293  0.50070372  0.81526249  1  -0.724912  0.20046  1.350072  0.203  -0.739916  0.08988  1.623297  0.094  -0.780559  0.11027  1.610962  0.116  -0.572906  -0.710015  0.076596  1.634405  0.08
O  O59  1  0.40588511  0.00068072  0.68471045  1  -0.724751  -0.21024  1.350382  -0.203  -0.739891  -0.093092  1.623585  -0.094  -0.780491  -0.114676  1.611293  -0.116  -0.572904  -0.710089  -0.07898  1.634762  -0.08
