# generated using pymatgen
data_HgH8C8(BrN2)2
_symmetry_space_group_name_H-M   'P 1'
_cell_length_a   8.15675244
_cell_length_b   11.49801404
_cell_length_c   12.93985544
_cell_angle_alpha   89.99985791
_cell_angle_beta   90.00004184
_cell_angle_gamma   89.99973675
_symmetry_Int_Tables_number   1
_chemical_formula_structural   HgH8C8(BrN2)2
_chemical_formula_sum   'Hg4 H32 C32 Br8 N16'
_cell_volume   1213.58315816
_cell_formula_units_Z   4
loop_
 _symmetry_equiv_pos_site_id
 _symmetry_equiv_pos_as_xyz
  1  'x, y, z'
loop_
 _atom_site_type_symbol
 _atom_site_label
 _atom_site_symmetry_multiplicity
 _atom_site_fract_x
 _atom_site_fract_y
 _atom_site_fract_z
 _atom_site_occupancy
 _atom_site_hle17_bader_spin_density
 _atom_site_hle17_ddec_charge
 _atom_site_hle17_ddec_spin_density
 _atom_site_hle17_ddec_sum_bond_order
 _atom_site_hle17_magmom
 _atom_site_hse06_10hf_bader_spin_density
 _atom_site_hse06_10hf_ddec_charge
 _atom_site_hse06_10hf_ddec_spin_density
 _atom_site_hse06_10hf_ddec_sum_bond_order
 _atom_site_hse06_10hf_magmom
 _atom_site_hse06_bader_spin_density
 _atom_site_hse06_ddec_charge
 _atom_site_hse06_ddec_spin_density
 _atom_site_hse06_ddec_sum_bond_order
 _atom_site_hse06_magmom
 _atom_site_pbe_bader_spin_density
 _atom_site_pbe_cm5_charge
 _atom_site_pbe_ddec_charge
 _atom_site_pbe_ddec_spin_density
 _atom_site_pbe_ddec_sum_bond_order
 _atom_site_pbe_magmom
Hg  Hg0  1  0.25000045  0.69112153  0.01728774  1  0  0.669053  0  2.110455  0  0  0.505718  0  2.60232  0  0  0.558619  0  2.571842  0  0  0.47438  0.469451  0  2.622597  0
Hg  Hg1  1  0.24999989  0.19112149  0.48271235  1  0  0.669081  0  2.110405  0  0  0.505747  0  2.602279  0  0  0.558643  0  2.571802  0  0  0.474395  0.469478  0  2.622554  0
Hg  Hg2  1  0.75000082  0.80887949  0.51728790  1  0  0.669066  0  2.110422  0  0  0.505736  0  2.602286  0  0  0.558632  0  2.571812  0  0  0.474384  0.469467  0  2.622562  0
Hg  Hg3  1  0.75000026  0.30887945  0.98271251  1  0  0.669084  0  2.110415  0  0  0.505752  0  2.602288  0  0  0.55865  0  2.571812  0  0  0.474404  0.469484  0  2.622564  0
H  H4  1  0.43663169  0.91432043  0.16737268  1  0  0.081664  0  0.956037  0  0  0.08396  0  1.031639  0  0  0.087056  0  1.029034  0  0  0.105612  0.081762  0  1.033611  0
H  H5  1  0.43663096  0.41431994  0.33262701  1  0  0.081651  0  0.956003  0  0  0.083955  0  1.031606  0  0  0.087051  0  1.028998  0  0  0.105616  0.081757  0  1.033577  0
H  H6  1  0.93662983  0.58567869  0.66737410  1  0  0.081648  0  0.95604  0  0  0.083947  0  1.031643  0  0  0.087042  0  1.029035  0  0  0.105621  0.081748  0  1.033616  0
H  H7  1  0.06337162  0.91432104  0.16737337  1  0  0.081633  0  0.956067  0  0  0.083958  0  1.031639  0  0  0.087054  0  1.029033  0  0  0.105637  0.08176  0  1.03361  0
H  H8  1  0.56336780  0.08567968  0.83262757  1  0  0.081644  0  0.956055  0  0  0.083946  0  1.031651  0  0  0.087042  0  1.029045  0  0  0.105609  0.081749  0  1.033621  0
H  H9  1  0.56336976  0.58567843  0.66737247  1  0  0.081621  0  0.956106  0  0  0.083942  0  1.031681  0  0  0.087039  0  1.029075  0  0  0.105618  0.081744  0  1.033652  0
H  H10  1  0.06336966  0.41431968  0.33262692  1  0  0.081613  0  0.956067  0  0  0.083938  0  1.03165  0  0  0.087034  0  1.029043  0  0  0.105626  0.081739  0  1.033623  0
H  H11  1  0.93662910  0.08567907  0.83262689  1  0  0.081672  0  0.956028  0  0  0.083969  0  1.031626  0  0  0.087066  0  1.029021  0  0  0.105639  0.08177  0  1.033598  0
H  H12  1  0.44543594  0.88132942  0.84804338  1  0  0.080856  0  0.962324  0  0  0.082575  0  1.038589  0  0  0.085584  0  1.036035  0  0  0.103723  0.0804  0  1.040534  0
H  H13  1  0.44543622  0.38132857  0.65195673  1  0  0.08085  0  0.962327  0  0  0.082569  0  1.038589  0  0  0.085578  0  1.036034  0  0  0.103719  0.080394  0  1.040533  0
H  H14  1  0.94543697  0.61867264  0.34804206  1  0  0.080846  0  0.962341  0  0  0.082559  0  1.038607  0  0  0.085568  0  1.036052  0  0  0.103713  0.080384  0  1.040553  0
H  H15  1  0.05456347  0.88132832  0.84804252  1  0  0.080862  0  0.962316  0  0  0.082574  0  1.038584  0  0  0.085585  0  1.036028  0  0  0.103725  0.080399  0  1.040529  0
H  H16  1  0.55456355  0.11867068  0.15195610  1  0  0.080848  0  0.962357  0  0  0.082551  0  1.03864  0  0  0.085559  0  1.036089  0  0  0.103711  0.080376  0  1.040585  0
H  H17  1  0.55456449  0.61867154  0.34804197  1  0  0.080844  0  0.962352  0  0  0.082557  0  1.038627  0  0  0.085567  0  1.036073  0  0  0.103711  0.080382  0  1.040572  0
H  H18  1  0.05456375  0.38132746  0.65195819  1  0  0.08083  0  0.962368  0  0  0.082545  0  1.038635  0  0  0.085554  0  1.036081  0  0  0.103706  0.08037  0  1.04058  0
H  H19  1  0.94543725  0.11867266  0.15195696  1  0  0.080854  0  0.962319  0  0  0.082569  0  1.038583  0  0  0.085576  0  1.03603  0  0  0.103724  0.080394  0  1.040529  0
H  H20  1  0.90578117  0.68249876  0.17263585  1  0  0.07187  0  0.984568  0  0  0.072857  0  1.064524  0  0  0.07624  0  1.061284  0  0  0.093684  0.070468  0  1.066934  0
H  H21  1  0.90578043  0.18249828  0.32736301  1  0  0.071895  0  0.984539  0  0  0.072872  0  1.064504  0  0  0.076255  0  1.061265  0  0  0.093682  0.070484  0  1.06691  0
H  H22  1  0.40578056  0.81750306  0.67263576  1  0  0.071865  0  0.98457  0  0  0.072865  0  1.064497  0  0  0.076248  0  1.061257  0  0  0.09369  0.070469  0  1.066925  0
H  H23  1  0.59422090  0.68249839  0.17263578  1  0  0.071925  0  0.98453  0  0  0.072891  0  1.064495  0  0  0.076271  0  1.061261  0  0  0.093698  0.070503  0  1.0669  0
H  H24  1  0.09422077  0.31750222  0.82736363  1  0  0.071879  0  0.984553  0  0  0.072859  0  1.064518  0  0  0.076243  0  1.061278  0  0  0.093687  0.070473  0  1.066921  0
H  H25  1  0.09422029  0.81750182  0.67263724  1  0  0.071901  0  0.98454  0  0  0.072874  0  1.06451  0  0  0.076254  0  1.061283  0  0  0.09368  0.070487  0  1.066914  0
H  H26  1  0.59422016  0.18249792  0.32736449  1  0  0.071887  0  0.984542  0  0  0.07288  0  1.064488  0  0  0.076265  0  1.061247  0  0  0.093696  0.07049  0  1.0669  0
H  H27  1  0.40577982  0.31750258  0.82736447  1  0  0.071927  0  0.984537  0  0  0.072894  0  1.064499  0  0  0.076278  0  1.061259  0  0  0.093705  0.070507  0  1.066903  0
H  H28  1  0.90642063  0.58255270  0.86492577  1  0  0.079655  0  0.959766  0  0  0.081755  0  1.034933  0  0  0.085048  0  1.032307  0  0  0.100516  0.079422  0  1.036924  0
H  H29  1  0.90642457  0.08255277  0.63507522  1  0  0.079651  0  0.959809  0  0  0.081753  0  1.034962  0  0  0.085046  0  1.032336  0  0  0.10051  0.079419  0  1.036954  0
H  H30  1  0.40641634  0.91744770  0.36492588  1  0  0.079614  0  0.959779  0  0  0.081723  0  1.034973  0  0  0.085016  0  1.032348  0  0  0.100476  0.079387  0  1.036971  0
H  H31  1  0.59358166  0.58255321  0.86492569  1  0  0.079639  0  0.959812  0  0  0.081767  0  1.034966  0  0  0.08506  0  1.03234  0  0  0.100513  0.079431  0  1.036961  0
H  H32  1  0.09357518  0.41744653  0.13507526  1  0  0.079662  0  0.959795  0  0  0.081755  0  1.034971  0  0  0.085048  0  1.032345  0  0  0.10051  0.079421  0  1.036963  0
H  H33  1  0.09357614  0.91744734  0.36492426  1  0  0.079618  0  0.959797  0  0  0.081716  0  1.034965  0  0  0.08501  0  1.032337  0  0  0.100487  0.079382  0  1.036957  0
H  H34  1  0.59358560  0.08255241  0.63507360  1  0  0.079589  0  0.959787  0  0  0.081721  0  1.034973  0  0  0.085014  0  1.032346  0  0  0.100485  0.079384  0  1.03697  0
H  H35  1  0.40641660  0.41744689  0.13507379  1  0  0.079585  0  0.959794  0  0  0.081718  0  1.03497  0  0  0.085011  0  1.032344  0  0  0.10048  0.079381  0  1.036966  0
C  C36  1  0.46520294  0.95314285  0.09245527  1  0  0.069884  0  3.695032  0  0  0.045752  0  3.946196  0  0  0.047644  0  3.965024  0  0  0.046249  0.044328  0  3.933659  0
C  C37  1  0.46520229  0.45314128  0.40754512  1  0  0.069975  0  3.694914  0  0  0.045828  0  3.946082  0  0  0.047717  0  3.964919  0  0  0.046268  0.044404  0  3.933544  0
C  C38  1  0.96520256  0.54685900  0.59245446  1  0  0.069939  0  3.694986  0  0  0.045802  0  3.946146  0  0  0.047692  0  3.964978  0  0  0.046277  0.044378  0  3.933607  0
C  C39  1  0.03479758  0.95314181  0.09245362  1  0  0.069946  0  3.695073  0  0  0.045784  0  3.946232  0  0  0.047672  0  3.965065  0  0  0.046254  0.044359  0  3.933693  0
C  C40  1  0.53479778  0.04685726  0.90754421  1  0  0.069949  0  3.695031  0  0  0.045811  0  3.946195  0  0  0.047699  0  3.965029  0  0  0.046285  0.044385  0  3.933659  0
C  C41  1  0.53479720  0.54685709  0.59245436  1  0  0.069973  0  3.69505  0  0  0.045825  0  3.946188  0  0  0.04771  0  3.965029  0  0  0.04628  0.0444  0  3.93365  0
C  C42  1  0.03479816  0.45314111  0.40754657  1  0  0.07001  0  3.694927  0  0  0.045849  0  3.946082  0  0  0.047731  0  3.964928  0  0  0.046293  0.044425  0  3.933541  0
C  C43  1  0.96520314  0.04685830  0.90754586  1  0  0.069915  0  3.695062  0  0  0.045776  0  3.946217  0  0  0.047665  0  3.965047  0  0  0.046253  0.044352  0  3.933677  0
C  C44  1  0.46966972  0.93496899  0.91598613  1  0  0.07339  0  3.690251  0  0  0.050333  0  3.939667  0  0  0.052308  0  3.958403  0  0  0.046301  0.049009  0  3.926917  0
C  C45  1  0.46966869  0.43497006  0.58401465  1  0  0.073379  0  3.690267  0  0  0.050326  0  3.939671  0  0  0.052303  0  3.958405  0  0  0.046257  0.049001  0  3.926922  0
C  C46  1  0.96966741  0.56502846  0.41598338  1  0  0.073351  0  3.690201  0  0  0.050304  0  3.93962  0  0  0.052284  0  3.958351  0  0  0.046253  0.04898  0  3.92687  0
C  C47  1  0.03033310  0.93497318  0.91598448  1  0  0.073357  0  3.69027  0  0  0.050321  0  3.93966  0  0  0.052296  0  3.958394  0  0  0.046253  0.048996  0  3.926909  0
C  C48  1  0.53033100  0.06503025  0.08401335  1  0  0.073387  0  3.690312  0  0  0.050337  0  3.939736  0  0  0.05231  0  3.958473  0  0  0.04631  0.049012  0  3.926985  0
C  C49  1  0.53033325  0.56502831  0.41598405  1  0  0.073336  0  3.690294  0  0  0.050286  0  3.93971  0  0  0.052264  0  3.958442  0  0  0.046264  0.048961  0  3.926959  0
C  C50  1  0.03033085  0.43497164  0.58401687  1  0  0.07335  0  3.690294  0  0  0.050299  0  3.939706  0  0  0.052275  0  3.95844  0  0  0.046238  0.048973  0  3.926956  0
C  C51  1  0.96966761  0.06502780  0.08401577  1  0  0.073362  0  3.690247  0  0  0.05032  0  3.939652  0  0  0.052296  0  3.958386  0  0  0.046245  0.048994  0  3.926902  0
C  C52  1  0.83555227  0.65891837  0.10390016  1  0  0.071031  0  3.706896  0  0  0.046579  0  3.959108  0  0  0.048698  0  3.977274  0  0  0.03839  0.044963  0  3.947148  0
C  C53  1  0.83555407  0.15891771  0.39609872  1  0  0.070999  0  3.706804  0  0  0.046559  0  3.959038  0  0  0.048679  0  3.977201  0  0  0.038384  0.044935  0  3.947091  0
C  C54  1  0.33555151  0.84108299  0.60390080  1  0  0.071104  0  3.706901  0  0  0.046653  0  3.959125  0  0  0.048777  0  3.977284  0  0  0.038414  0.045046  0  3.947142  0
C  C55  1  0.66444864  0.65891865  0.10390090  1  0  0.071012  0  3.706886  0  0  0.046596  0  3.959083  0  0  0.048715  0  3.977247  0  0  0.038395  0.044981  0  3.947123  0
C  C56  1  0.16444599  0.34108173  0.89610009  1  0  0.071018  0  3.706882  0  0  0.046567  0  3.959103  0  0  0.048688  0  3.977266  0  0  0.038377  0.044947  0  3.94715  0
C  C57  1  0.16444665  0.84107979  0.60390076  1  0  0.070992  0  3.706833  0  0  0.046561  0  3.959055  0  0  0.048678  0  3.977215  0  0  0.038393  0.04494  0  3.947103  0
C  C58  1  0.66444921  0.15891712  0.39609946  1  0  0.071087  0  3.706854  0  0  0.046637  0  3.95907  0  0  0.048755  0  3.977233  0  0  0.038416  0.045028  0  3.947095  0
C  C59  1  0.33555085  0.34108145  0.89609936  1  0  0.071035  0  3.706881  0  0  0.04662  0  3.959074  0  0  0.04874  0  3.977238  0  0  0.0384  0.045008  0  3.947109  0
C  C60  1  0.83572457  0.60407905  0.93392727  1  0  0.065589  0  3.7135  0  0  0.041595  0  3.970101  0  0  0.043111  0  3.988627  0  0  0.039052  0.040425  0  3.957704  0
C  C61  1  0.83572966  0.10408017  0.56607363  1  0  0.065573  0  3.713729  0  0  0.041603  0  3.970345  0  0  0.043118  0  3.988872  0  0  0.039051  0.040434  0  3.957945  0
C  C62  1  0.33571797  0.89592052  0.43392588  1  0  0.065583  0  3.713641  0  0  0.041566  0  3.970226  0  0  0.043082  0  3.988752  0  0  0.039063  0.040396  0  3.957829  0
C  C63  1  0.66427644  0.60407933  0.93392723  1  0  0.065562  0  3.713579  0  0  0.041558  0  3.970147  0  0  0.043073  0  3.988672  0  0  0.039032  0.040389  0  3.95775  0
C  C64  1  0.16427124  0.39591932  0.06607376  1  0  0.065598  0  3.713716  0  0  0.041621  0  3.970324  0  0  0.043137  0  3.988849  0  0  0.039063  0.040451  0  3.957925  0
C  C65  1  0.16427106  0.89591993  0.43392662  1  0  0.06562  0  3.713712  0  0  0.04165  0  3.970309  0  0  0.043165  0  3.988837  0  0  0.039081  0.04048  0  3.95791  0
C  C66  1  0.66428152  0.10407958  0.56607359  1  0  0.065627  0  3.713636  0  0  0.041572  0  3.970236  0  0  0.043086  0  3.988763  0  0  0.039054  0.040401  0  3.957839  0
C  C67  1  0.33571815  0.39591991  0.06607379  1  0  0.065625  0  3.713659  0  0  0.041585  0  3.970248  0  0  0.0431  0  3.988773  0  0  0.039065  0.040414  0  3.957851  0
Br  Br68  1  0.24999935  0.68788330  0.21479382  1  0  -0.42214  0  0.999787  0  0  -0.366099  0  1.299184  0  0  -0.384905  0  1.281642  0  0  -0.215159  -0.35329  0  1.311263  0
Br  Br69  1  0.24999979  0.18788382  0.28520551  1  0  -0.422151  0  0.999774  0  0  -0.366113  0  1.299174  0  0  -0.384916  0  1.281626  0  0  -0.215164  -0.353303  0  1.311253  0
Br  Br70  1  0.75000215  0.81211716  0.71479397  1  0  -0.422146  0  0.999771  0  0  -0.366111  0  1.299169  0  0  -0.384914  0  1.281626  0  0  -0.215158  -0.3533  0  1.311249  0
Br  Br71  1  0.75000014  0.31211680  0.78520566  1  0  -0.422159  0  0.999765  0  0  -0.366122  0  1.299159  0  0  -0.384928  0  1.281616  0  0  -0.21517  -0.353313  0  1.311238  0
Br  Br72  1  0.24999982  0.65147791  0.82347222  1  0  -0.416252  0  1.000928  0  0  -0.360238  0  1.302058  0  0  -0.378829  0  1.284588  0  0  -0.216581  -0.347554  0  1.314043  0
Br  Br73  1  0.25000013  0.15147785  0.67652831  1  0  -0.41626  0  1.000921  0  0  -0.360245  0  1.30205  0  0  -0.378832  0  1.284574  0  0  -0.216586  -0.347562  0  1.314033  0
Br  Br74  1  0.75000181  0.84852225  0.32347194  1  0  -0.416248  0  1.000932  0  0  -0.36023  0  1.302061  0  0  -0.378816  0  1.284583  0  0  -0.216581  -0.347546  0  1.314044  0
Br  Br75  1  0.75000212  0.34852307  0.17652803  1  0  -0.416248  0  1.000925  0  0  -0.360235  0  1.302064  0  0  -0.378821  0  1.284586  0  0  -0.216585  -0.347551  0  1.314047  0
N  N76  1  0.43518870  0.88861709  0.00839102  1  0  -0.24875  0  3.19259  0  0  -0.190565  0  3.447363  0  0  -0.204479  0  3.469463  0  0  -0.294888  -0.180645  0  3.432038  0
N  N77  1  0.43519061  0.38861702  0.49160949  1  0  -0.248802  0  3.192599  0  0  -0.190619  0  3.447382  0  0  -0.204534  0  3.469481  0  0  -0.294883  -0.180699  0  3.432057  0
N  N78  1  0.93518913  0.61138074  0.50838930  1  0  -0.248742  0  3.1926  0  0  -0.190561  0  3.447368  0  0  -0.204475  0  3.469465  0  0  -0.294872  -0.18064  0  3.432041  0
N  N79  1  0.06481091  0.88861856  0.00839016  1  0  -0.248744  0  3.192596  0  0  -0.19057  0  3.447374  0  0  -0.204485  0  3.469475  0  0  -0.294877  -0.18065  0  3.432049  0
N  N80  1  0.56481079  0.11138302  0.99160846  1  0  -0.248782  0  3.192603  0  0  -0.190594  0  3.447378  0  0  -0.204508  0  3.469478  0  0  -0.294926  -0.180674  0  3.432054  0
N  N81  1  0.56481133  0.61138047  0.50838844  1  0  -0.248742  0  3.19261  0  0  -0.190561  0  3.447387  0  0  -0.204475  0  3.469487  0  0  -0.294862  -0.180641  0  3.432061  0
N  N82  1  0.06480913  0.38861849  0.49161172  1  0  -0.248763  0  3.192607  0  0  -0.190578  0  3.447391  0  0  -0.204491  0  3.46949  0  0  -0.294879  -0.180657  0  3.432063  0
N  N83  1  0.93518981  0.11138242  0.99161009  1  0  -0.248757  0  3.19259  0  0  -0.19058  0  3.447358  0  0  -0.204494  0  3.469458  0  0  -0.29487  -0.180659  0  3.432031  0
N  N84  1  0.92078844  0.63162494  0.01896109  1  0  -0.260523  0  3.197158  0  0  -0.204538  0  3.458399  0  0  -0.218655  0  3.480287  0  0  -0.299953  -0.194439  0  3.443218  0
N  N85  1  0.92079033  0.13162578  0.48103944  1  0  -0.260503  0  3.197219  0  0  -0.204521  0  3.458453  0  0  -0.21864  0  3.480345  0  0  -0.29994  -0.194421  0  3.443268  0
N  N86  1  0.42078382  0.86837638  0.51896089  1  0  -0.260558  0  3.197169  0  0  -0.204583  0  3.458457  0  0  -0.218704  0  3.480344  0  0  -0.299969  -0.194484  0  3.443274  0
N  N87  1  0.57921255  0.63162463  0.01896101  1  0  -0.260522  0  3.19714  0  0  -0.204559  0  3.458398  0  0  -0.218676  0  3.480285  0  0  -0.299954  -0.19446  0  3.443214  0
N  N88  1  0.07920982  0.36837429  0.98103917  1  0  -0.26053  0  3.197229  0  0  -0.204549  0  3.458477  0  0  -0.21867  0  3.480368  0  0  -0.299954  -0.19445  0  3.443294  0
N  N89  1  0.07921038  0.86837433  0.51896081  1  0  -0.260502  0  3.197201  0  0  -0.204529  0  3.458442  0  0  -0.218649  0  3.480336  0  0  -0.299945  -0.194429  0  3.443258  0
N  N90  1  0.57921689  0.13162460  0.48104014  1  0  -0.260562  0  3.197179  0  0  -0.204567  0  3.458458  0  0  -0.218685  0  3.480349  0  0  -0.299963  -0.194467  0  3.443274  0
N  N91  1  0.42078449  0.36837635  0.98104002  1  0  -0.260557  0  3.19715  0  0  -0.204575  0  3.458422  0  0  -0.218695  0  3.480313  0  0  -0.299961  -0.194476  0  3.443238  0
