# generated using pymatgen
data_CuH10C16(N3O)2
_symmetry_space_group_name_H-M   'P 1'
_cell_length_a   9.02439995
_cell_length_b   9.23661292
_cell_length_c   9.89927742
_cell_angle_alpha   80.01131938
_cell_angle_beta   67.96297933
_cell_angle_gamma   70.57308116
_symmetry_Int_Tables_number   1
_chemical_formula_structural   CuH10C16(N3O)2
_chemical_formula_sum   'Cu2 H20 C32 N12 O4'
_cell_volume   720.20383153
_cell_formula_units_Z   2
loop_
 _symmetry_equiv_pos_site_id
 _symmetry_equiv_pos_as_xyz
  1  'x, y, z'
loop_
 _atom_site_type_symbol
 _atom_site_label
 _atom_site_symmetry_multiplicity
 _atom_site_fract_x
 _atom_site_fract_y
 _atom_site_fract_z
 _atom_site_occupancy
 _atom_site_hle17_ddec_charge
 _atom_site_hle17_ddec_spin_density
 _atom_site_hle17_ddec_sum_bond_order
 _atom_site_hle17_magmom
 _atom_site_hse06_10hf_ddec_charge
 _atom_site_hse06_10hf_ddec_spin_density
 _atom_site_hse06_10hf_ddec_sum_bond_order
 _atom_site_hse06_10hf_magmom
 _atom_site_hse06_ddec_charge
 _atom_site_hse06_ddec_spin_density
 _atom_site_hse06_ddec_sum_bond_order
 _atom_site_hse06_magmom
 _atom_site_pbe_cm5_charge
 _atom_site_pbe_ddec_charge
 _atom_site_pbe_ddec_spin_density
 _atom_site_pbe_ddec_sum_bond_order
 _atom_site_pbe_magmom
Cu  Cu0  1  0.17009429  0.39082183  0.06824249  1  0.855953  -0.660022  1.972894  -0.48  0.833207  -0.76086  2.39735  -0.605  0.924475  -0.830508  2.32032  -0.692  0.78211  0.77867  -0.707051  2.447518  -0.543
Cu  Cu1  1  0.82990931  0.60917534  0.93175312  1  0.855938  -0.660024  1.97278  -0.48  0.833158  -0.760872  2.397249  -0.605  0.924456  -0.83052  2.320212  -0.692  0.782069  0.778626  -0.707056  2.447414  -0.543
H  H2  1  0.37927209  0.08265981  0.94704343  1  0.086807  -0.000878  0.975607  -0.002  0.090466  -0.000818  1.049393  -0.002  0.093061  -0.000531  1.0466  -0.001  0.115438  0.089315  -0.001094  1.049591  -0.002
H  H3  1  0.62072876  0.91733861  0.05295796  1  0.086849  -0.000876  0.975576  -0.002  0.090485  -0.000818  1.049384  -0.002  0.093077  -0.000531  1.046595  -0.001  0.115447  0.089336  -0.001094  1.049583  -0.002
H  H4  1  0.64072621  0.98233687  0.73636929  1  0.113438  -0.000327  0.954474  0.0  0.122264  -0.000423  1.013637  0.0  0.124264  -0.000317  1.015095  0.0  0.110224  0.119753  -0.000478  1.014313  -0.001
H  H5  1  0.35927861  0.01766049  0.26363495  1  0.113447  -0.000328  0.954445  0.0  0.122295  -0.000423  1.013601  0.0  0.124293  -0.000317  1.015062  0.0  0.110235  0.119776  -0.000478  1.014274  -0.001
H  H6  1  0.79265321  0.17023169  0.57813843  1  0.109943  -0.000253  0.938453  0.0  0.119463  -4.4e-05  0.998726  0.0  0.123122  1.1e-05  0.995652  0.0  0.114074  0.116628  -0.000113  1.001136  0.0
H  H7  1  0.20735356  0.82976349  0.42187058  1  0.109951  -0.000253  0.938516  0.0  0.119458  -4.4e-05  0.998779  0.0  0.123125  1.1e-05  0.995685  0.0  0.114078  0.116614  -0.000113  1.001217  0.0
H  H8  1  0.68393194  0.44270501  0.64312337  1  0.117637  -0.000688  0.979608  -0.001  0.126646  -0.000669  1.038346  -0.001  0.129411  -0.000487  1.03819  -0.001  0.111759  0.124242  -0.000796  1.039553  -0.001
H  H9  1  0.31607565  0.55729129  0.35688413  1  0.11759  -0.00069  0.979618  -0.001  0.126605  -0.000669  1.038348  -0.001  0.129369  -0.000488  1.038193  -0.001  0.111742  0.124203  -0.000796  1.039561  -0.001
H  H10  1  0.03821164  0.71912377  0.13636953  1  0.106647  -0.00085  0.953467  -0.002  0.116421  -0.000785  1.012899  -0.002  0.119601  -0.000512  1.010307  -0.001  0.126262  0.113935  -0.001019  1.014975  -0.002
H  H11  1  0.96178562  0.28087456  0.86362910  1  0.106629  -0.000851  0.953484  -0.002  0.116402  -0.000786  1.012914  -0.002  0.119582  -0.000512  1.010321  -0.001  0.126264  0.113917  -0.00102  1.014991  -0.002
H  H12  1  0.13720741  0.95970245  0.02961055  1  0.086541  -0.001447  0.969946  0.0  0.095882  -0.001083  1.031889  0.0  0.098478  -0.000785  1.030944  0.0  0.117158  0.093464  -0.00102  1.033666  -0.001
H  H13  1  0.86278948  0.04029699  0.97038599  1  0.086577  -0.001446  0.969832  0.0  0.095881  -0.001083  1.031841  0.0  0.098477  -0.000785  1.030897  0.0  0.117169  0.093466  -0.00102  1.033618  -0.001
H  H14  1  0.42930708  0.83068550  0.55685422  1  0.117102  6.4e-05  0.945972  0.0  0.126411  2e-05  1.007768  0.0  0.129935  2.7e-05  1.006601  0.0  0.110318  0.124017  1.6e-05  1.008494  0.0
H  H15  1  0.57068513  0.16931751  0.44314937  1  0.117052  6.1e-05  0.945926  0.0  0.126375  2e-05  1.007704  0.0  0.129899  2.7e-05  1.006536  0.0  0.110304  0.123977  1.5e-05  1.008432  0.0
H  H16  1  0.67121796  0.88159467  0.34134382  1  0.092051  -1.3e-05  0.948833  0.0  0.101928  5e-06  1.011204  0.0  0.104227  9e-06  1.009954  0.0  0.105271  0.100387  -2.1e-05  1.011807  0.0
H  H17  1  0.32877581  0.11840717  0.65865842  1  0.092029  -1.3e-05  0.948867  0.0  0.101917  5e-06  1.011236  0.0  0.104214  9e-06  1.009988  0.0  0.105248  0.100377  -2.1e-05  1.011832  0.0
H  H18  1  0.95744580  0.78624410  0.36285829  1  0.099982  -7e-06  0.962706  0.0  0.109839  -1.7e-05  1.024417  0.0  0.112873  4e-06  1.023369  0.0  0.105589  0.107713  -8.5e-05  1.025176  0.0
H  H19  1  0.04254835  0.21375661  0.63714503  1  0.099946  -7e-06  0.96274  0.0  0.109787  -1.6e-05  1.02447  0.0  0.112819  3e-06  1.023425  0.0  0.105562  0.10766  -8.5e-05  1.025231  0.0
H  H20  1  0.99126027  0.63958780  0.59041577  1  0.063941  0.000344  0.986785  0.0  0.075406  0.000159  1.048629  0.0  0.07731  0.000142  1.047951  0.0  0.109287  0.073999  0.000162  1.04903  0.0
H  H21  1  0.00873506  0.36041289  0.40958612  1  0.063945  0.000345  0.986748  0.0  0.075412  0.000159  1.048596  0.0  0.077316  0.000141  1.047918  0.0  0.109277  0.074007  0.000161  1.048999  0.0
C  C22  1  0.45385012  0.15674979  0.87845878  1  0.134851  0.010118  3.683919  0.007  0.105412  0.0039  3.94049  0.003  0.114146  0.005521  3.958551  0.004  0.052592  0.100356  0.00278  3.926432  0.002
C  C23  1  0.54615074  0.84324867  0.12154462  1  0.134804  0.010077  3.683942  0.007  0.105396  0.003901  3.940517  0.003  0.114132  0.005522  3.958579  0.004  0.052609  0.100341  0.002779  3.926457  0.002
C  C24  1  0.59825378  0.10292405  0.76016547  1  -0.099017  -0.007013  3.69464  -0.008  -0.110471  -0.00343  3.942107  -0.004  -0.116885  -0.002991  3.962345  -0.004  -0.071314  -0.105811  -0.00375  3.928821  -0.004
C  C25  1  0.40175417  0.89707102  0.23983809  1  -0.099037  -0.006984  3.694723  -0.008  -0.110525  -0.00343  3.942154  -0.004  -0.116938  -0.002992  3.962393  -0.004  -0.071335  -0.105849  -0.00375  3.928878  -0.004
C  C26  1  0.68247450  0.20689666  0.67442663  1  0.000369  0.009462  3.68302  0.006  -0.016918  0.004244  3.929192  0.002  -0.012001  0.004769  3.943227  0.003  -0.060392  -0.020776  0.003822  3.920703  0.002
C  C27  1  0.31753226  0.79309845  0.32557936  1  0.000341  0.009422  3.683064  0.006  -0.016917  0.004244  3.929208  0.002  -0.011997  0.004769  3.943246  0.003  -0.060424  -0.020781  0.003822  3.920713  0.002
C  C28  1  0.62178410  0.36002904  0.71098812  1  -0.107216  -0.004562  3.654326  -0.005  -0.128357  -0.002322  3.900263  -0.002  -0.133092  -0.002089  3.917777  -0.002  -0.06963  -0.125574  -0.002425  3.889791  -0.002
C  C29  1  0.37822468  0.63996720  0.28901595  1  -0.107184  -0.00453  3.654448  -0.005  -0.128293  -0.002323  3.900326  -0.002  -0.133029  -0.002084  3.917842  -0.002  -0.069577  -0.125512  -0.002424  3.889859  -0.002
C  C30  1  0.47687506  0.40664392  0.83160197  1  0.175854  0.003748  3.739966  0.002  0.172127  5.2e-05  3.986173  -0.001  0.179159  0.001339  4.008003  0.0  0.116724  0.168064  -0.001094  3.971382  -0.002
C  C31  1  0.52312543  0.59335567  0.16840035  1  0.175839  0.003713  3.740094  0.002  0.172086  5.5e-05  3.986358  -0.001  0.179122  0.00133  4.008187  0.0  0.116702  0.168022  -0.001095  3.971568  -0.002
C  C32  1  0.39281876  0.56562627  0.87955053  1  0.112633  0.005219  3.669455  0.003  0.102523  0.000729  3.916422  0.0  0.108716  0.002091  3.934963  0.001  0.131001  0.098269  -0.000309  3.904222  -0.001
C  C33  1  0.60718053  0.43437332  0.12045220  1  0.112656  0.005241  3.669552  0.003  0.102482  0.00073  3.916575  0.0  0.108681  0.002091  3.93512  0.001  0.130967  0.098232  -0.000309  3.904371  -0.001
C  C34  1  0.15547227  0.71694122  0.04765857  1  0.103971  0.011407  3.662559  0.008  0.074827  0.004717  3.913877  0.003  0.081522  0.006168  3.929741  0.004  0.062455  0.070138  0.003289  3.904617  0.002
C  C35  1  0.84452545  0.28305939  0.95233848  1  0.103955  0.011431  3.662651  0.008  0.074806  0.004716  3.913945  0.003  0.081508  0.006175  3.929813  0.004  0.062463  0.070118  0.003289  3.904684  0.002
C  C36  1  0.20810970  0.84648915  0.98655306  1  0.080013  -0.006185  3.698728  -0.007  0.05868  -0.002912  3.952484  -0.004  0.060801  -0.002677  3.965831  -0.003  0.054832  0.057332  -0.003719  3.944363  -0.005
C  C37  1  0.79188682  0.15351150  0.01344641  1  0.080037  -0.006203  3.698747  -0.007  0.058707  -0.002912  3.952527  -0.004  0.060829  -0.002679  3.965873  -0.003  0.054806  0.057356  -0.003719  3.944407  -0.005
C  C38  1  0.44085617  0.69996395  0.81670902  1  0.135888  -0.004796  3.666643  -0.005  0.130443  -0.002303  3.918235  -0.002  0.132657  -0.002205  3.934389  -0.002  0.142706  0.128685  -0.00264  3.907777  -0.003
C  C39  1  0.55913676  0.30003667  0.18329070  1  0.135916  -0.004813  3.666615  -0.005  0.13048  -0.002304  3.918245  -0.002  0.132695  -0.002207  3.934396  -0.002  0.142778  0.128715  -0.00264  3.907795  -0.003
C  C40  1  0.58737077  0.71174293  0.68395685  1  0.177872  -0.000702  3.78071  -0.001  0.178924  -0.000514  4.030312  -0.001  0.185562  -0.000244  4.048867  0.0  0.120064  0.173925  -0.000855  4.020746  -0.001
C  C41  1  0.41262180  0.28825888  0.31604480  1  0.177743  -0.00071  3.780829  -0.001  0.178791  -0.000514  4.030457  -0.001  0.185429  -0.000245  4.04901  0.0  0.119985  0.173804  -0.000855  4.020879  -0.001
C  C42  1  0.55655714  0.79100854  0.55865739  1  -0.133685  -0.000554  3.682911  -0.001  -0.154928  -0.000289  3.928964  0.0  -0.16019  -0.000245  3.947605  0.0  -0.076231  -0.151744  -0.000491  3.9173  0.0
C  C43  1  0.44343627  0.20899447  0.44134578  1  -0.133601  -0.000541  3.682812  0.0  -0.154839  -0.000289  3.928848  0.0  -0.160104  -0.000245  3.947492  0.0  -0.076211  -0.151655  -0.000491  3.91719  0.0
C  C44  1  0.69051806  0.81826651  0.44001414  1  0.002992  0.000526  3.712198  0.0  -0.011394  0.000228  3.954079  0.0  -0.007936  0.000279  3.971702  0.0  -0.063972  -0.012981  0.000198  3.941331  0.0
C  C45  1  0.30947617  0.18173763  0.55998752  1  0.003038  0.000509  3.712226  0.0  -0.011349  0.000229  3.954096  0.0  -0.007891  0.000276  3.971722  0.0  -0.063893  -0.012938  0.000198  3.941345  0.0
C  C46  1  0.84959147  0.76435061  0.45091587  1  -0.102132  -0.00077  3.718731  -0.001  -0.112677  -0.000383  3.959834  0.0  -0.117398  -0.00031  3.97899  0.0  -0.079704  -0.109586  -0.000542  3.946667  0.0
C  C47  1  0.15039964  0.23565587  0.54908848  1  -0.102121  -0.000761  3.718724  -0.001  -0.112664  -0.000384  3.959838  0.0  -0.117381  -0.000306  3.978991  0.0  -0.079703  -0.10957  -0.000542  3.946678  0.0
C  C48  1  0.86846261  0.68401269  0.57890217  1  0.11779  0.000632  3.741995  0.0  0.096043  0.000337  3.993894  0.0  0.1008  0.000381  4.013823  0.0  0.03815  0.093015  0.000223  3.980801  0.0
C  C49  1  0.13153282  0.31599147  0.42110008  1  0.117846  0.000614  3.74206  0.0  0.096099  0.000338  3.99395  0.0  0.100855  0.000377  4.013876  0.0  0.038182  0.093071  0.000223  3.980869  0.0
C  C50  1  0.02462188  0.14061064  0.22040968  1  0.6  -0.004846  4.075687  -0.005  0.570474  -0.010477  4.384471  -0.012  0.608239  -0.008231  4.390683  -0.01  0.263567  0.545326  -0.013339  4.37797  -0.013
C  C51  1  0.97538858  0.85939097  0.77957465  1  0.600093  -0.004834  4.075528  -0.005  0.570586  -0.010471  4.384301  -0.012  0.608352  -0.008229  4.39051  -0.01  0.263643  0.545436  -0.013334  4.377795  -0.013
C  C52  1  0.83266250  0.48199860  0.27973286  1  0.609621  -0.006802  4.057358  -0.006  0.575956  -0.013377  4.373883  -0.013  0.614298  -0.010572  4.382154  -0.012  0.2631  0.549964  -0.01569  4.367835  -0.015
C  C53  1  0.16733679  0.51800093  0.72026686  1  0.609699  -0.006807  4.057246  -0.006  0.576028  -0.013373  4.373786  -0.013  0.614371  -0.010574  4.382059  -0.012  0.2631  0.550037  -0.015688  4.367731  -0.015
N  N54  1  0.39507187  0.30384346  0.91289941  1  -0.33123  -0.065314  3.311239  -0.083  -0.282049  -0.053527  3.597212  -0.073  -0.312752  -0.04437  3.619844  -0.065  -0.336896  -0.264053  -0.057913  3.583396  -0.075
N  N55  1  0.60493055  0.69615383  0.08710265  1  -0.331186  -0.065293  3.31122  -0.083  -0.282044  -0.053526  3.597244  -0.073  -0.312756  -0.044367  3.619884  -0.065  -0.336905  -0.26405  -0.05791  3.583432  -0.075
N  N56  1  0.24788171  0.58005310  0.99418427  1  -0.285645  -0.060635  3.345876  -0.077  -0.239398  -0.050464  3.635613  -0.069  -0.265788  -0.042276  3.656093  -0.062  -0.323631  -0.223447  -0.05577  3.623915  -0.072
N  N57  1  0.75211473  0.41994412  0.00581686  1  -0.285683  -0.060652  3.346079  -0.077  -0.239338  -0.050468  3.635715  -0.069  -0.265757  -0.042279  3.656227  -0.062  -0.323656  -0.223388  -0.055773  3.624011  -0.072
N  N58  1  0.34778365  0.83784301  0.87148996  1  -0.269616  0.008387  3.040193  0.006  -0.241189  0.004083  3.307013  0.003  -0.245988  0.004445  3.319389  0.003  -0.285378  -0.238508  0.003085  3.29808  0.002
N  N59  1  0.65221294  0.16216099  0.12850383  1  -0.269641  0.008404  3.040364  0.006  -0.241206  0.004082  3.307181  0.003  -0.246007  0.004447  3.319559  0.003  -0.285372  -0.238525  0.003084  3.298252  0.002
N  N60  1  0.74048591  0.65794899  0.69516479  1  -0.368341  0.000886  3.137495  -0.001  -0.340302  0.001124  3.422958  0.0  -0.357134  0.001379  3.439409  0.0  -0.318019  -0.329808  0.000646  3.414601  -0.001
N  N61  1  0.25950704  0.34205172  0.30483895  1  -0.368316  0.000895  3.137637  0.0  -0.340268  0.001123  3.423066  0.0  -0.357095  0.001382  3.439516  0.0  -0.317982  -0.32977  0.000647  3.414697  -0.001
N  N62  1  0.11815342  0.19625208  0.11936447  1  -0.732403  -0.073053  2.942197  -0.088  -0.730251  -0.039808  3.281135  -0.051  -0.775682  -0.028176  3.283871  -0.04  -0.483911  -0.699623  -0.048667  3.278839  -0.058
N  N63  1  0.88185970  0.80374487  0.88061674  1  -0.7324  -0.073058  2.942229  -0.088  -0.730275  -0.039809  3.281105  -0.051  -0.775713  -0.028178  3.283843  -0.04  -0.483936  -0.699649  -0.04867  3.278809  -0.058
N  N64  1  0.94542037  0.51455272  0.17910842  1  -0.736433  -0.082891  2.942803  -0.1  -0.749536  -0.040315  3.305298  -0.053  -0.799057  -0.026493  3.308941  -0.04  -0.482844  -0.71807  -0.050111  3.303903  -0.061
N  N65  1  0.05458756  0.48544222  0.82088911  1  -0.736426  -0.082881  2.942773  -0.1  -0.749536  -0.040314  3.305274  -0.053  -0.799059  -0.026486  3.308915  -0.04  -0.482836  -0.718076  -0.050109  3.303878  -0.061
O  O66  1  0.93567293  0.07580459  0.31671056  1  -0.480851  -0.031376  1.990427  -0.042  -0.446769  -0.01606  2.195739  -0.023  -0.473043  -0.010292  2.190701  -0.016  -0.259185  -0.427187  -0.021393  2.197438  -0.029
O  O67  1  0.06433617  0.92420524  0.68328084  1  -0.480963  -0.031378  1.990267  -0.042  -0.446845  -0.016059  2.195583  -0.023  -0.473125  -0.010289  2.190553  -0.016  -0.259233  -0.427261  -0.021392  2.197281  -0.029
O  O68  1  0.71631401  0.45484366  0.37962404  1  -0.455307  -0.036794  2.000369  -0.049  -0.419094  -0.018716  2.205787  -0.027  -0.445701  -0.01225  2.203377  -0.019  -0.241573  -0.400019  -0.023834  2.206576  -0.032
O  O69  1  0.28368305  0.54516263  0.62036917  1  -0.45538  -0.036796  2.000195  -0.049  -0.41915  -0.018718  2.205634  -0.027  -0.445757  -0.012252  2.203222  -0.019  -0.241567  -0.400075  -0.023836  2.206422  -0.032
