# generated using pymatgen
data_FeH5C7NO5
_symmetry_space_group_name_H-M   'P 1'
_cell_length_a   8.50741589
_cell_length_b   8.49065672
_cell_length_c   10.16383642
_cell_angle_alpha   90.10740271
_cell_angle_beta   89.65270565
_cell_angle_gamma   95.08496336
_symmetry_Int_Tables_number   1
_chemical_formula_structural   FeH5C7NO5
_chemical_formula_sum   'Fe4 H20 C28 N4 O20'
_cell_volume   731.26644293
_cell_formula_units_Z   4
loop_
 _symmetry_equiv_pos_site_id
 _symmetry_equiv_pos_as_xyz
  1  'x, y, z'
loop_
 _atom_site_type_symbol
 _atom_site_label
 _atom_site_symmetry_multiplicity
 _atom_site_fract_x
 _atom_site_fract_y
 _atom_site_fract_z
 _atom_site_occupancy
 _atom_site_pbe_cm5_charge
 _atom_site_pbe_ddec_charge
 _atom_site_pbe_ddec_spin_density
 _atom_site_pbe_ddec_sum_bond_order
 _atom_site_pbe_magmom
Fe  Fe0  1  0.20214731  0.35010098  0.07365319  1  0.659984  0.775145  0.057343  3.037983  0.049
Fe  Fe1  1  0.29875960  0.63305448  0.57006708  1  0.749459  1.054739  -4.005067  2.585968  -3.669
Fe  Fe2  1  0.79619298  0.63392186  0.93279870  1  0.725813  1.026048  4.085811  2.55004  3.618
Fe  Fe3  1  0.69132082  0.36664146  0.42599033  1  0.741996  1.032577  -3.99259  2.568683  -3.657
H  H4  1  0.09357124  0.01760463  0.97422698  1  0.12248  0.092581  -7.7e-05  1.055549  0.0
H  H5  1  0.38680939  0.97880460  0.45975738  1  0.117349  0.082861  -0.000346  1.04705  -0.001
H  H6  1  0.88935737  0.98012601  0.04226632  1  0.11647  0.080723  0.000401  1.051291  0.001
H  H7  1  0.60116382  0.02105335  0.53170674  1  0.118801  0.084969  -0.000304  1.047817  -0.001
H  H8  1  0.58223926  0.99314208  0.22447345  1  0.108718  0.116632  0.000218  1.020823  0.0
H  H9  1  0.91766602  0.00458899  0.73945910  1  0.10782  0.115867  -0.000668  1.031822  -0.001
H  H10  1  0.42440476  0.01262347  0.76468570  1  0.109043  0.118947  0.000616  1.019199  0.0
H  H11  1  0.08568961  0.99622237  0.27148961  1  0.107652  0.113281  -0.000433  1.033215  -0.001
H  H12  1  0.41894842  0.73471129  0.16828770  1  0.116928  0.130452  -7.1e-05  1.001175  0.0
H  H13  1  0.08866373  0.25956133  0.68856647  1  0.113271  0.118943  0.000194  1.00604  0.0
H  H14  1  0.59646388  0.26500178  0.81434041  1  0.114654  0.129824  -0.000252  1.002821  0.0
H  H15  1  0.91917411  0.73972427  0.32328980  1  0.115123  0.125561  0.0004  1.002946  -0.001
H  H16  1  0.38244177  0.44692757  0.88119060  1  0.308474  0.392446  0.000885  0.923018  0.002
H  H17  1  0.21201897  0.65192260  0.30852469  1  0.316019  0.397576  -0.000761  0.901528  -0.002
H  H18  1  0.71521056  0.64316540  0.19592439  1  0.311008  0.394437  0.00093  0.914321  0.002
H  H19  1  0.82513432  0.36170868  0.66120841  1  0.319426  0.396926  -0.000421  0.893628  -0.001
H  H20  1  0.21108779  0.46800200  0.83925182  1  0.325634  0.406514  -0.00012  0.877212  -0.001
H  H21  1  0.22856098  0.47561480  0.33757228  1  0.301732  0.395586  -0.0004  0.942727  -0.002
H  H22  1  0.72707725  0.46961371  0.15566909  1  0.299222  0.392439  0.000514  0.949481  0.002
H  H23  1  0.76217871  0.52578007  0.65881244  1  0.300291  0.394731  -0.000682  0.943161  -0.002
C  C24  1  0.13636302  0.71169903  0.03673322  1  0.228441  0.597513  0.006687  4.155417  0.01
C  C25  1  0.36082768  0.27886243  0.53926943  1  0.227173  0.610754  0.005336  4.142003  0.005
C  C26  1  0.87368040  0.28165934  0.95616333  1  0.218196  0.5874  0.002095  4.150061  0.004
C  C27  1  0.63218907  0.72138021  0.45542037  1  0.226733  0.606699  -0.003126  4.157554  -0.007
C  C28  1  0.24138917  0.85845334  0.07032206  1  -0.012498  -0.081747  -0.000942  3.957365  -0.001
C  C29  1  0.25165678  0.13702683  0.57124512  1  -0.010444  -0.084121  -0.001027  3.962803  -0.006
C  C30  1  0.75892797  0.14118304  0.93071478  1  -0.01469  -0.086206  0.001605  3.969007  0.005
C  C31  1  0.74371403  0.86306031  0.42756509  1  -0.015799  -0.092364  -0.000848  3.97705  -0.005
C  C32  1  0.19691160  0.00679190  0.03405203  1  0.053027  0.073521  2.1e-05  3.873916  0.0
C  C33  1  0.28747412  0.98885087  0.52596590  1  0.052937  0.08429  0.003632  3.935029  0.004
C  C34  1  0.79154317  0.99191278  0.97595131  1  0.049517  0.080742  -0.006451  3.932508  -0.008
C  C35  1  0.70390877  0.01100637  0.46940557  1  0.054588  0.092831  0.00182  3.926945  0.001
C  C36  1  0.46987460  0.99070426  0.17353590  1  -0.075608  -0.113745  -0.001046  3.955764  -0.001
C  C37  1  0.02527185  0.00561705  0.68099752  1  -0.075864  -0.119887  -0.00212  3.931803  -0.006
C  C38  1  0.53180615  0.01182453  0.82216515  1  -0.074263  -0.110541  0.003026  3.928331  0.006
C  C39  1  0.97432941  0.99487525  0.32465914  1  -0.07627  -0.115236  -0.004149  3.95014  -0.009
C  C40  1  0.49574911  0.29191243  0.16676842  1  0.220191  0.542466  -0.004656  4.15145  -0.006
C  C41  1  0.99305170  0.70387214  0.67179711  1  0.221242  0.559312  0.009405  4.16245  0.011
C  C42  1  0.49205982  0.71128861  0.83080665  1  0.218484  0.558799  -0.008392  4.169051  -0.011
C  C43  1  0.99838028  0.29675960  0.32666316  1  0.224578  0.553584  0.007561  4.145136  0.008
C  C44  1  0.41364144  0.13431449  0.14064563  1  0.102737  0.07513  0.001424  3.9573  0.002
C  C45  1  0.07484374  0.86181373  0.63808115  1  0.109356  0.099586  0.018463  3.961682  0.023
C  C46  1  0.57909247  0.86703765  0.86373208  1  0.1036  0.087655  -0.015243  3.976976  -0.02
C  C47  1  0.91984724  0.13885649  0.36167869  1  0.102717  0.083334  0.023488  3.979722  0.029
C  C48  1  0.38146863  0.84996926  0.14161826  1  -0.074944  -0.079561  0.000799  3.924404  0.001
C  C49  1  0.11715832  0.14506962  0.65115782  1  -0.064111  -0.0465  0.019399  3.897019  0.024
C  C50  1  0.62454762  0.15081109  0.85211760  1  -0.070382  -0.063499  -0.019384  3.893763  -0.025
C  C51  1  0.88380808  0.85464470  0.35431281  1  -0.071928  -0.070069  0.024034  3.910624  0.029
N  N52  1  0.27464290  0.14319915  0.07492567  1  -0.346937  -0.204464  -0.003319  3.625425  -0.005
N  N53  1  0.20636838  0.85403304  0.56323127  1  -0.340562  -0.296354  -0.023367  3.606506  -0.035
N  N54  1  0.70977187  0.85726167  0.93838907  1  -0.342817  -0.302393  0.02097  3.611187  0.03
N  N55  1  0.78479446  0.14641039  0.43280828  1  -0.341687  -0.29958  -0.020881  3.596984  -0.032
O  O56  1  0.41836542  0.40910727  0.13471788  1  -0.282987  -0.445742  -0.008909  2.349206  -0.019
O  O57  1  0.07162562  0.58446815  0.65191065  1  -0.302673  -0.530186  -0.032621  2.286143  -0.048
O  O58  1  0.55992924  0.58716100  0.86366466  1  -0.300314  -0.533861  0.030919  2.267068  0.041
O  O59  1  0.92099635  0.41483443  0.35096927  1  -0.291068  -0.497366  -0.036955  2.299096  -0.058
O  O60  1  0.63621725  0.30541288  0.21147542  1  -0.303756  -0.554804  -0.012346  2.339144  -0.013
O  O61  1  0.85109162  0.69644124  0.71411040  1  -0.303695  -0.558405  0.007913  2.317863  0.004
O  O62  1  0.35783378  0.70845904  0.77817107  1  -0.308614  -0.561287  -0.01194  2.328054  -0.013
O  O63  1  0.13975124  0.30621572  0.27977499  1  -0.299814  -0.531419  0.000488  2.33918  -0.001
O  O64  1  0.17017571  0.58588763  0.09296054  1  -0.297089  -0.514763  0.003034  2.419142  0.005
O  O65  1  0.33451246  0.40840062  0.59307778  1  -0.311499  -0.534924  -0.042929  2.438416  -0.07
O  O66  1  0.85142435  0.41056789  0.89840421  1  -0.323048  -0.56265  0.030588  2.409912  0.043
O  O67  1  0.65426734  0.59547840  0.39213977  1  -0.313599  -0.557105  -0.034904  2.410426  -0.051
O  O68  1  0.02246545  0.72954481  0.95864954  1  -0.314613  -0.551564  0.038317  2.384648  0.049
O  O69  1  0.47691883  0.25797955  0.46209448  1  -0.318321  -0.55843  -0.040133  2.394168  -0.057
O  O70  1  0.99174768  0.25596522  0.02786873  1  -0.302277  -0.508089  0.000223  2.479009  0.002
O  O71  1  0.51996958  0.73858381  0.53611003  1  -0.307664  -0.540939  -0.038245  2.379324  -0.054
O  O72  1  0.27331789  0.39278431  0.88435603  1  -0.540714  -0.680637  -0.001657  2.218835  -0.004
O  O73  1  0.26164530  0.58500907  0.37070670  1  -0.570444  -0.762817  -0.033315  2.222133  -0.051
O  O74  1  0.76353469  0.58082679  0.12844989  1  -0.575359  -0.762184  0.035626  2.247855  0.053
O  O75  1  0.73883479  0.41509835  0.62428117  1  -0.564535  -0.749981  -0.03309  2.21142  -0.051
