# generated using pymatgen
data_CdH16C18(NO3)2
_symmetry_space_group_name_H-M   'P 1'
_cell_length_a   7.64809505
_cell_length_b   9.99626098
_cell_length_c   11.69914742
_cell_angle_alpha   89.99878117
_cell_angle_beta   89.99964909
_cell_angle_gamma   90.73278519
_symmetry_Int_Tables_number   1
_chemical_formula_structural   CdH16C18(NO3)2
_chemical_formula_sum   'Cd2 H32 C36 N4 O12'
_cell_volume   894.35421113
_cell_formula_units_Z   2
loop_
 _symmetry_equiv_pos_site_id
 _symmetry_equiv_pos_as_xyz
  1  'x, y, z'
loop_
 _atom_site_type_symbol
 _atom_site_label
 _atom_site_symmetry_multiplicity
 _atom_site_fract_x
 _atom_site_fract_y
 _atom_site_fract_z
 _atom_site_occupancy
 _atom_site_hle17_bader_spin_density
 _atom_site_hle17_ddec_charge
 _atom_site_hle17_ddec_spin_density
 _atom_site_hle17_ddec_sum_bond_order
 _atom_site_hle17_magmom
 _atom_site_hse06_10hf_bader_spin_density
 _atom_site_hse06_10hf_ddec_charge
 _atom_site_hse06_10hf_ddec_spin_density
 _atom_site_hse06_10hf_ddec_sum_bond_order
 _atom_site_hse06_10hf_magmom
 _atom_site_hse06_bader_spin_density
 _atom_site_hse06_ddec_charge
 _atom_site_hse06_ddec_spin_density
 _atom_site_hse06_ddec_sum_bond_order
 _atom_site_hse06_magmom
 _atom_site_pbe_bader_spin_density
 _atom_site_pbe_cm5_charge
 _atom_site_pbe_ddec_charge
 _atom_site_pbe_ddec_spin_density
 _atom_site_pbe_ddec_sum_bond_order
 _atom_site_pbe_magmom
Cd  Cd0  1  0.75000550  0.74999700  0.22595428  1  0  1.142945  0  1.712784  0  0  0.956447  0  2.172453  0  0  1.008293  0  2.121511  0  0  0.772149  0.919658  0  2.206855  0
Cd  Cd1  1  0.24999556  0.24999431  0.77404679  1  0  1.142881  0  1.712898  0  0  0.956386  0  2.172566  0  0  1.008232  0  2.121625  0  0  0.772131  0.919597  0  2.206969  0
H  H2  1  0.47903763  0.75628823  0.01843281  1  0  0.088213  0  0.943889  0  0  0.095682  0  1.007593  0  0  0.098452  0  1.004727  0  0  0.118441  0.093674  0  1.00958  0
H  H3  1  0.97902034  0.25629026  0.98157063  1  0  0.088132  0  0.943663  0  0  0.095577  0  1.007436  0  0  0.098348  0  1.004562  0  0  0.11838  0.093563  0  1.009434  0
H  H4  1  0.52096708  0.24369603  0.98157167  1  0  0.08825  0  0.943844  0  0  0.095697  0  1.007578  0  0  0.098466  0  1.004715  0  0  0.118453  0.093688  0  1.009572  0
H  H5  1  0.02098400  0.74368400  0.01843044  1  0  0.088305  0  0.943446  0  0  0.095693  0  1.007257  0  0  0.098466  0  1.004385  0  0  0.118392  0.093677  0  1.009252  0
H  H6  1  0.03200212  0.74613138  0.80485351  1  0  0.100302  0  0.941127  0  0  0.115164  0  0.994604  0  0  0.117771  0  0.994044  0  0  0.10929  0.113449  0  0.994943  0
H  H7  1  0.53199743  0.24614699  0.19514082  1  0  0.100324  0  0.941182  0  0  0.115159  0  0.994681  0  0  0.117765  0  0.994121  0  0  0.109253  0.11345  0  0.995022  0
H  H8  1  0.96800379  0.25384986  0.19514841  1  0  0.100306  0  0.941072  0  0  0.115142  0  0.994589  0  0  0.117748  0  0.994028  0  0  0.109276  0.113435  0  0.99493  0
H  H9  1  0.46800498  0.75384530  0.80485940  1  0  0.100315  0  0.941118  0  0  0.115164  0  0.994622  0  0  0.117771  0  0.994059  0  0  0.109255  0.113454  0  0.994963  0
H  H10  1  0.93055123  0.91722170  0.64530090  1  0  0.114222  0  0.974185  0  0  0.121557  0  1.040908  0  0  0.125149  0  1.039439  0  0  0.105968  0.118717  0  1.042798  0
H  H11  1  0.43055445  0.41722838  0.35469810  1  0  0.114237  0  0.974211  0  0  0.121628  0  1.04087  0  0  0.125217  0  1.039409  0  0  0.105999  0.118785  0  1.042767  0
H  H12  1  0.06944607  0.08277366  0.35470102  1  0  0.114228  0  0.974097  0  0  0.121558  0  1.04083  0  0  0.12515  0  1.039366  0  0  0.10598  0.118719  0  1.042724  0
H  H13  1  0.56944027  0.58276802  0.64530895  1  0  0.114178  0  0.974238  0  0  0.12153  0  1.040959  0  0  0.125117  0  1.039495  0  0  0.105949  0.118689  0  1.042851  0
H  H14  1  0.07427980  0.54029842  0.43019894  1  0  0.088982  0  0.966042  0  0  0.099781  0  1.029381  0  0  0.102439  0  1.028549  0  0  0.098164  0.097815  0  1.030543  0
H  H15  1  0.57427683  0.04030761  0.56979982  1  0  0.088959  0  0.966058  0  0  0.099773  0  1.029403  0  0  0.10243  0  1.028574  0  0  0.098182  0.097807  0  1.030566  0
H  H16  1  0.92572905  0.45972582  0.56981581  1  0  0.089017  0  0.966089  0  0  0.099891  0  1.029342  0  0  0.102551  0  1.028509  0  0  0.098243  0.097921  0  1.03051  0
H  H17  1  0.42573702  0.95971056  0.43018073  1  0  0.089017  0  0.966165  0  0  0.099913  0  1.029393  0  0  0.102573  0  1.028559  0  0  0.098274  0.097943  0  1.030564  0
H  H18  1  0.91903613  0.91267469  0.43028701  1  0  0.080323  0  0.9502  0  0  0.090691  0  1.012931  0  0  0.092331  0  1.012279  0  0  0.115826  0.089444  0  1.013772  0
H  H19  1  0.41903038  0.41270110  0.56971726  1  0  0.080116  0  0.949974  0  0  0.090426  0  1.012824  0  0  0.092105  0  1.012126  0  0  0.115742  0.089183  0  1.013652  0
H  H20  1  0.08094190  0.08732992  0.56971748  1  0  0.08025  0  0.950281  0  0  0.090665  0  1.012942  0  0  0.092278  0  1.012324  0  0  0.115828  0.089418  0  1.013783  0
H  H21  1  0.58094891  0.58730250  0.43028980  1  0  0.08015  0  0.949944  0  0  0.090502  0  1.012728  0  0  0.092175  0  1.01204  0  0  0.115737  0.089258  0  1.013562  0
H  H22  1  0.05250286  0.92877565  0.18820175  1  0  0.419548  0  0.898546  0  0  0.381268  0  0.97458  0  0  0.39353  0  0.95748  0  0  0.276292  0.372677  0  0.986554  0
H  H23  1  0.55249224  0.42877686  0.81179003  1  0  0.419419  0  0.898722  0  0  0.381117  0  0.974785  0  0  0.393378  0  0.957686  0  0  0.276206  0.372525  0  0.98676  0
H  H24  1  0.94749570  0.07121869  0.81179334  1  0  0.41942  0  0.898681  0  0  0.381154  0  0.974693  0  0  0.393415  0  0.957596  0  0  0.276218  0.372562  0  0.986667  0
H  H25  1  0.44749975  0.57121657  0.18821360  1  0  0.419408  0  0.898719  0  0  0.381107  0  0.97479  0  0  0.393368  0  0.957692  0  0  0.276209  0.372515  0  0.986764  0
H  H26  1  0.86886922  0.99764590  0.15847508  1  0  0.420694  0  0.823378  0  0  0.404992  0  0.874856  0  0  0.413386  0  0.865839  0  0  0.317023  0.399064  0  0.881228  0
H  H27  1  0.36884951  0.49764264  0.84150562  1  0  0.420665  0  0.82349  0  0  0.404955  0  0.874971  0  0  0.413349  0  0.865958  0  0  0.31694  0.399024  0  0.881342  0
H  H28  1  0.13112930  0.00234744  0.84152685  1  0  0.420683  0  0.823322  0  0  0.404975  0  0.87482  0  0  0.413371  0  0.865801  0  0  0.317012  0.399046  0  0.881192  0
H  H29  1  0.63114378  0.50235077  0.15849459  1  0  0.420673  0  0.823417  0  0  0.40496  0  0.874906  0  0  0.413352  0  0.865893  0  0  0.316951  0.39903  0  0.881281  0
H  H30  1  0.16597756  0.64129064  0.61557117  1  0  0.090125  0  0.943524  0  0  0.102724  0  1.000795  0  0  0.106293  0  0.99848  0  0  0.099426  0.100295  0  1.0024  0
H  H31  1  0.66598418  0.14130336  0.38442538  1  0  0.090148  0  0.943379  0  0  0.102729  0  1.000678  0  0  0.106306  0  0.998349  0  0  0.099412  0.100301  0  1.002284  0
H  H32  1  0.83403206  0.35875361  0.38442990  1  0  0.090111  0  0.943556  0  0  0.102774  0  1.000757  0  0  0.106311  0  0.99849  0  0  0.099479  0.100344  0  1.002362  0
H  H33  1  0.33402432  0.85874590  0.61556458  1  0  0.09008  0  0.943387  0  0  0.102796  0  1.000542  0  0  0.106346  0  0.998249  0  0  0.099445  0.100366  0  1.002148  0
C  C34  1  0.84475690  0.84104223  0.48159582  1  0  0.134375  0  3.720221  0  0  0.103411  0  3.971172  0  0  0.109934  0  3.991573  0  0  0.047901  0.099764  0  3.957731  0
C  C35  1  0.34473751  0.34104208  0.51840150  1  0  0.134716  0  3.721066  0  0  0.103744  0  3.972062  0  0  0.110234  0  3.992467  0  0  0.048065  0.100098  0  3.958612  0
C  C36  1  0.15523043  0.15896626  0.51840525  1  0  0.134407  0  3.720509  0  0  0.103427  0  3.97144  0  0  0.109969  0  3.991849  0  0  0.047966  0.099782  0  3.957994  0
C  C37  1  0.65525497  0.65896435  0.48160555  1  0  0.134468  0  3.721427  0  0  0.103483  0  3.972387  0  0  0.109976  0  3.992797  0  0  0.047995  0.099838  0  3.958936  0
C  C38  1  0.85028990  0.84339547  0.60022324  1  0  -0.160752  0  3.707597  0  0  -0.178221  0  3.956358  0  0  -0.186542  0  3.978249  0  0  -0.081035  -0.173065  0  3.943266  0
C  C39  1  0.35029560  0.34340899  0.39979197  1  0  -0.160853  0  3.707706  0  0  -0.178364  0  3.956424  0  0  -0.186691  0  3.978332  0  0  -0.081103  -0.173207  0  3.943332  0
C  C40  1  0.14970363  0.15660394  0.39978553  1  0  -0.160735  0  3.707774  0  0  -0.178231  0  3.956567  0  0  -0.186555  0  3.978452  0  0  -0.081102  -0.173077  0  3.943475  0
C  C41  1  0.64969923  0.65659041  0.60021167  1  0  -0.160656  0  3.70755  0  0  -0.178133  0  3.956297  0  0  -0.186453  0  3.978199  0  0  -0.081067  -0.172976  0  3.943202  0
C  C42  1  0.74999233  0.74999011  0.78770034  1  0  0.105092  0  3.747203  0  0  0.118527  0  3.977445  0  0  0.121816  0  3.999794  0  0  0.018659  0.116969  0  3.962951  0
C  C43  1  0.25000989  0.24999718  0.21230329  1  0  0.105034  0  3.747194  0  0  0.118439  0  3.977454  0  0  0.121726  0  3.999801  0  0  0.018645  0.116883  0  3.962962  0
C  C44  1  0.74999701  0.74999564  0.66168005  1  0  0.103713  0  3.744436  0  0  0.112211  0  3.976163  0  0  0.116658  0  3.997507  0  0  0.016071  0.108223  0  3.96202  0
C  C45  1  0.25000020  0.24999772  0.33832273  1  0  0.103701  0  3.744639  0  0  0.112264  0  3.976295  0  0  0.116717  0  3.997632  0  0  0.016053  0.108273  0  3.962154  0
C  C46  1  0.90684281  0.74916334  0.84917545  1  0  -0.135491  0  3.692423  0  0  -0.156653  0  3.940957  0  0  -0.163371  0  3.960691  0  0  -0.075349  -0.15281  0  3.928265  0
C  C47  1  0.40683501  0.24917727  0.15082927  1  0  -0.135662  0  3.692616  0  0  -0.156809  0  3.941221  0  0  -0.163527  0  3.960951  0  0  -0.075456  -0.152971  0  3.92854  0
C  C48  1  0.09316179  0.25081792  0.15082733  1  0  -0.135497  0  3.692195  0  0  -0.156638  0  3.940801  0  0  -0.163354  0  3.960528  0  0  -0.075392  -0.152805  0  3.928121  0
C  C49  1  0.59316578  0.75080704  0.84917265  1  0  -0.135721  0  3.692418  0  0  -0.156882  0  3.941056  0  0  -0.163601  0  3.960785  0  0  -0.075523  -0.153047  0  3.928378  0
C  C50  1  0.90143438  0.74767026  0.96781318  1  0  0.145693  0  3.693177  0  0  0.113903  0  3.945249  0  0  0.122645  0  3.960897  0  0  0.054198  0.10829  0  3.934807  0
C  C51  1  0.40144568  0.24767792  0.03217706  1  0  0.145763  0  3.691992  0  0  0.113908  0  3.944113  0  0  0.122654  0  3.959748  0  0  0.054141  0.10829  0  3.933684  0
C  C52  1  0.09856622  0.25230905  0.03218874  1  0  0.145977  0  3.69275  0  0  0.114098  0  3.944899  0  0  0.122847  0  3.960541  0  0  0.054252  0.108482  0  3.93446  0
C  C53  1  0.59855623  0.75230137  0.96782743  1  0  0.145967  0  3.691664  0  0  0.114069  0  3.943843  0  0  0.122814  0  3.959475  0  0  0.054216  0.108451  0  3.933416  0
C  C54  1  0.19929593  0.69074131  0.32709493  1  0  -0.085979  0  3.734357  0  0  -0.066875  0  3.962759  0  0  -0.071371  0  3.983182  0  0  -0.018388  -0.063198  0  3.948118  0
C  C55  1  0.69929603  0.19075187  0.67290400  1  0  -0.085866  0  3.734008  0  0  -0.066848  0  3.962698  0  0  -0.071346  0  3.983124  0  0  -0.018327  -0.063171  0  3.948061  0
C  C56  1  0.80071512  0.30927190  0.67290614  1  0  -0.085914  0  3.734032  0  0  -0.066899  0  3.962733  0  0  -0.071393  0  3.983148  0  0  -0.018315  -0.063218  0  3.948093  0
C  C57  1  0.30070825  0.80925542  0.32708083  1  0  -0.086182  0  3.734244  0  0  -0.067083  0  3.962799  0  0  -0.071581  0  3.983217  0  0  -0.01838  -0.063404  0  3.948162  0
C  C58  1  0.14364873  0.62221748  0.21738511  1  0  0.664509  0  3.914041  0  0  0.61044  0  4.220475  0  0  0.644492  0  4.212005  0  0  0.203384  0.586979  0  4.226149  0
C  C59  1  0.64363635  0.12223446  0.78260589  1  0  0.664384  0  3.914081  0  0  0.610267  0  4.22067  0  0  0.64432  0  4.212195  0  0  0.20334  0.586804  0  4.226349  0
C  C60  1  0.85635356  0.37777181  0.78262109  1  0  0.664474  0  3.914111  0  0  0.610325  0  4.220751  0  0  0.644377  0  4.212284  0  0  0.203423  0.586861  0  4.226426  0
C  C61  1  0.35638174  0.87775764  0.21737893  1  0  0.664474  0  3.914368  0  0  0.610254  0  4.221058  0  0  0.644309  0  4.212585  0  0  0.203371  0.586792  0  4.226732  0
C  C62  1  0.34756625  0.86795031  0.43165448  1  0  -0.092677  0  3.775836  0  0  -0.116325  0  4.029266  0  0  -0.11737  0  4.049825  0  0  -0.095734  -0.115572  0  4.016551  0
C  C63  1  0.84755279  0.36795866  0.56834490  1  0  -0.09292  0  3.77612  0  0  -0.116524  0  4.029613  0  0  -0.11757  0  4.050169  0  0  -0.095808  -0.11577  0  4.016893  0
C  C64  1  0.65245437  0.13207379  0.56833547  1  0  -0.0927  0  3.77595  0  0  -0.116235  0  4.029352  0  0  -0.117284  0  4.049927  0  0  -0.095624  -0.115481  0  4.016632  0
C  C65  1  0.15244806  0.63206168  0.43165531  1  0  -0.09264  0  3.775691  0  0  -0.1162  0  4.029062  0  0  -0.117246  0  4.049628  0  0  -0.095584  -0.115447  0  4.016347  0
C  C66  1  0.29744382  0.81022938  0.53527719  1  0  -0.078233  0  3.791206  0  0  -0.093331  0  4.048047  0  0  -0.094325  0  4.067196  0  0  -0.097765  -0.093079  0  4.035825  0
C  C67  1  0.79745497  0.31024203  0.46471148  1  0  -0.078128  0  3.790861  0  0  -0.093156  0  4.047655  0  0  -0.094143  0  4.066796  0  0  -0.097734  -0.092905  0  4.035435  0
C  C68  1  0.70256142  0.18980291  0.46471020  1  0  -0.078158  0  3.791013  0  0  -0.093154  0  4.047824  0  0  -0.094162  0  4.066954  0  0  -0.097728  -0.092903  0  4.035606  0
C  C69  1  0.20255595  0.68980220  0.53529215  1  0  -0.078157  0  3.790799  0  0  -0.093176  0  4.047631  0  0  -0.094181  0  4.066764  0  0  -0.097774  -0.092927  0  4.035415  0
N  N70  1  0.74998837  0.74998173  0.42300625  1  0  -0.343319  0  3.28135  0  0  -0.262486  0  3.545681  0  0  -0.282586  0  3.564916  0  0  -0.33193  -0.248638  0  3.531361  0
N  N71  1  0.24999600  0.25001780  0.57699910  1  0  -0.34337  0  3.28117  0  0  -0.262537  0  3.545526  0  0  -0.282637  0  3.564755  0  0  -0.33198  -0.248689  0  3.531207  0
N  N72  1  0.75002454  0.74999327  0.02606621  1  0  -0.34263  0  3.26988  0  0  -0.264405  0  3.531326  0  0  -0.284349  0  3.548987  0  0  -0.329257  -0.250893  0  3.519075  0
N  N73  1  0.24998141  0.24998898  0.97393571  1  0  -0.342598  0  3.269598  0  0  -0.264363  0  3.531032  0  0  -0.28431  0  3.548694  0  0  -0.329237  -0.250849  0  3.518779  0
O  O74  1  0.92656125  0.94594786  0.21766521  1  0  -0.842003  0  1.854991  0  0  -0.782566  0  2.059475  0  0  -0.805349  0  2.03109  0  0  -0.579417  -0.766345  0  2.078869  0
O  O75  1  0.42654754  0.44595101  0.78231876  1  0  -0.841837  0  1.855198  0  0  -0.782381  0  2.05973  0  0  -0.805154  0  2.03133  0  0  -0.579231  -0.766157  0  2.079134  0
O  O76  1  0.07344634  0.05404337  0.78233586  1  0  -0.841844  0  1.854942  0  0  -0.782437  0  2.059449  0  0  -0.805218  0  2.031063  0  0  -0.579324  -0.766211  0  2.07884  0
O  O77  1  0.57344849  0.55404537  0.21768060  1  0  -0.84184  0  1.855129  0  0  -0.782388  0  2.059626  0  0  -0.805165  0  2.03124  0  0  -0.579242  -0.766161  0  2.079018  0
O  O78  1  0.98102413  0.59938178  0.20299368  1  0  -0.662524  0  1.971419  0  0  -0.604865  0  2.226713  0  0  -0.631943  0  2.214329  0  0  -0.344814  -0.585395  0  2.234449  0
O  O79  1  0.48103022  0.09939333  0.79699722  1  0  -0.662286  0  1.971818  0  0  -0.604606  0  2.227164  0  0  -0.631679  0  2.214785  0  0  -0.344718  -0.585137  0  2.2349  0
O  O80  1  0.01897282  0.40060458  0.79702192  1  0  -0.662372  0  1.971569  0  0  -0.604667  0  2.226903  0  0  -0.631748  0  2.214529  0  0  -0.344735  -0.585195  0  2.234634  0
O  O81  1  0.51897185  0.90058997  0.20298077  1  0  -0.66208  0  1.972202  0  0  -0.604371  0  2.227574  0  0  -0.631443  0  2.215196  0  0  -0.344609  -0.584907  0  2.235308  0
O  O82  1  0.26182043  0.58816626  0.14725699  1  0  -0.622268  0  1.947614  0  0  -0.570994  0  2.167699  0  0  -0.596123  0  2.158192  0  0  -0.326237  -0.553432  0  2.174608  0
O  O83  1  0.76183056  0.08817218  0.85274014  1  0  -0.62245  0  1.947085  0  0  -0.571156  0  2.167202  0  0  -0.596289  0  2.157688  0  0  -0.326392  -0.553588  0  2.174118  0
O  O84  1  0.73816457  0.41181525  0.85274750  1  0  -0.622402  0  1.947505  0  0  -0.571077  0  2.167642  0  0  -0.596209  0  2.158135  0  0  -0.326396  -0.553511  0  2.174556  0
O  O85  1  0.23816801  0.91182216  0.14724127  1  0  -0.622629  0  1.946821  0  0  -0.571312  0  2.166983  0  0  -0.59645  0  2.157475  0  0  -0.3265  -0.553732  0  2.173873  0
