# generated using pymatgen
data_UH12(C4O3)4
_symmetry_space_group_name_H-M   'P 1'
_cell_length_a   5.47644602
_cell_length_b   6.69397261
_cell_length_c   13.56882227
_cell_angle_alpha   84.25281217
_cell_angle_beta   84.42116014
_cell_angle_gamma   114.49352513
_symmetry_Int_Tables_number   1
_chemical_formula_structural   UH12(C4O3)4
_chemical_formula_sum   'U1 H12 C16 O12'
_cell_volume   445.06446225
_cell_formula_units_Z   1
loop_
 _symmetry_equiv_pos_site_id
 _symmetry_equiv_pos_as_xyz
  1  'x, y, z'
loop_
 _atom_site_type_symbol
 _atom_site_label
 _atom_site_symmetry_multiplicity
 _atom_site_fract_x
 _atom_site_fract_y
 _atom_site_fract_z
 _atom_site_occupancy
 _atom_site_hle17_bader_spin_density
 _atom_site_hle17_ddec_charge
 _atom_site_hle17_ddec_spin_density
 _atom_site_hle17_ddec_sum_bond_order
 _atom_site_hle17_magmom
 _atom_site_hse06_10hf_bader_spin_density
 _atom_site_hse06_10hf_ddec_charge
 _atom_site_hse06_10hf_ddec_spin_density
 _atom_site_hse06_10hf_ddec_sum_bond_order
 _atom_site_hse06_10hf_magmom
 _atom_site_hse06_bader_spin_density
 _atom_site_hse06_ddec_charge
 _atom_site_hse06_ddec_spin_density
 _atom_site_hse06_ddec_sum_bond_order
 _atom_site_hse06_magmom
 _atom_site_pbe_bader_spin_density
 _atom_site_pbe_cm5_charge
 _atom_site_pbe_ddec_charge
 _atom_site_pbe_ddec_spin_density
 _atom_site_pbe_ddec_sum_bond_order
 _atom_site_pbe_magmom
U  U0  1  0.50002140  0.50000603  0.49999835  1  0  2.45951  0  4.037235  0  0  2.513099  0  4.67354  0  0  2.615759  0  4.6469  0  0  2.17679  2.443082  0  4.690448  0
H  H1  1  0.91630610  0.82624487  0.25941843  1  0  0.421867  0  0.840626  0  0  0.395117  0  0.911063  0  0  0.407756  0  0.896758  0  0  0.320863  0.386178  0  0.921169  0
H  H2  1  0.08370706  0.17378007  0.74058433  1  0  0.421786  0  0.840831  0  0  0.395072  0  0.911152  0  0  0.407705  0  0.896859  0  0  0.320867  0.386141  0  0.921236  0
H  H3  1  0.11705753  0.75558469  0.46160092  1  0  0.456431  0  0.82929  0  0  0.437938  0  0.872594  0  0  0.449508  0  0.855572  0  0  0.31949  0.429758  0  0.884665  0
H  H4  1  0.88295785  0.24442776  0.53839697  1  0  0.456362  0  0.829419  0  0  0.43789  0  0.872675  0  0  0.449456  0  0.855663  0  0  0.31946  0.429713  0  0.884743  0
H  H5  1  0.00954272  0.84142467  0.55406054  1  0  0.463571  0  0.819404  0  0  0.437826  0  0.875402  0  0  0.449304  0  0.858426  0  0  0.324357  0.429636  0  0.887475  0
H  H6  1  0.99047391  0.15859073  0.44593816  1  0  0.463426  0  0.819554  0  0  0.43769  0  0.875568  0  0  0.449157  0  0.858598  0  0  0.324253  0.429498  0  0.887643  0
H  H7  1  0.85210284  0.08060671  0.03809977  1  0  0.103329  0  0.943326  0  0  0.113493  0  1.004536  0  0  0.116647  0  1.002593  0  0  0.107826  0.11121  0  1.006043  0
H  H8  1  0.14785484  0.91936506  0.96189869  1  0  0.103356  0  0.943294  0  0  0.113538  0  1.004482  0  0  0.116698  0  1.002522  0  0  0.107874  0.111254  0  1.005986  0
H  H9  1  0.68111421  0.27635410  0.92242803  1  0  0.098499  0  0.952924  0  0  0.110907  0  1.009134  0  0  0.113909  0  1.007975  0  0  0.105952  0.108741  0  1.01009  0
H  H10  1  0.31878956  0.72358876  0.07758180  1  0  0.098348  0  0.952873  0  0  0.110785  0  1.009095  0  0  0.113753  0  1.007978  0  0  0.105946  0.108641  0  1.010024  0
H  H11  1  0.47090541  0.57625408  0.16526486  1  0  0.10556  0  0.951588  0  0  0.116054  0  1.01096  0  0  0.119529  0  1.008916  0  0  0.110756  0.113601  0  1.012514  0
H  H12  1  0.52909608  0.42374830  0.83473297  1  0  0.105531  0  0.951607  0  0  0.11601  0  1.011007  0  0  0.119482  0  1.008967  0  0  0.110729  0.11356  0  1.012554  0
C  C13  1  0.65775551  0.36072579  0.20081158  1  0  -0.02397  0  3.708435  0  0  -0.00996  0  3.939875  0  0  -0.011129  0  3.957391  0  0  0.003613  -0.009184  0  3.928202  0
C  C14  1  0.34224407  0.63926785  0.79918380  1  0  -0.024076  0  3.708575  0  0  -0.010039  0  3.939862  0  0  -0.011227  0  3.957397  0  0  0.003647  -0.009261  0  3.928192  0
C  C15  1  0.76328664  0.21664647  0.16677602  1  0  -0.089677  0  3.744378  0  0  -0.079003  0  3.981296  0  0  -0.087053  0  4.003785  0  0  -0.01206  -0.073699  0  3.966171  0
C  C16  1  0.23671414  0.78335362  0.83321950  1  0  -0.089739  0  3.744263  0  0  -0.078951  0  3.981051  0  0  -0.087002  0  4.003533  0  0  -0.012066  -0.073648  0  3.965922  0
C  C17  1  0.76894285  0.19029742  0.06559506  1  0  -0.052654  0  3.742578  0  0  -0.078867  0  4.001789  0  0  -0.078045  0  4.022342  0  0  -0.077279  -0.079252  0  3.987749  0
C  C18  1  0.23101735  0.80966230  0.93440907  1  0  -0.052692  0  3.742264  0  0  -0.078957  0  4.001513  0  0  -0.07813  0  4.022054  0  0  -0.077261  -0.079339  0  3.987477  0
C  C19  1  0.66945234  0.30148215  0.00042844  1  0  -0.103251  0  3.717799  0  0  -0.127659  0  3.974864  0  0  -0.131841  0  3.996646  0  0  -0.0828  -0.124706  0  3.959914  0
C  C20  1  0.33049274  0.69847039  0.99958025  1  0  -0.102922  0  3.71736  0  0  -0.127381  0  3.97447  0  0  -0.131525  0  3.996272  0  0  -0.082817  -0.124445  0  3.959512  0
C  C21  1  0.55625104  0.44183598  0.03397970  1  0  0.064702  0  3.750563  0  0  0.078351  0  3.988422  0  0  0.079584  0  4.012028  0  0  0.003071  0.077637  0  3.972236  0
C  C22  1  0.44372210  0.55813702  0.96602834  1  0  0.064569  0  3.750639  0  0  0.078289  0  3.988475  0  0  0.079472  0  4.012116  0  0  0.002941  0.077577  0  3.972294  0
C  C23  1  0.55454273  0.46901862  0.13540231  1  0  -0.112395  0  3.677653  0  0  -0.145848  0  3.929799  0  0  -0.149213  0  3.94907  0  0  -0.078045  -0.143659  0  3.916853  0
C  C24  1  0.44546088  0.53097842  0.86460062  1  0  -0.112323  0  3.677553  0  0  -0.145801  0  3.929685  0  0  -0.14916  0  3.948987  0  0  -0.077975  -0.143606  0  3.916723  0
C  C25  1  0.63587601  0.39728805  0.30789216  1  0  0.657097  0  3.881851  0  0  0.607771  0  4.198554  0  0  0.645056  0  4.188605  0  0  0.217367  0.582201  0  4.20457  0
C  C26  1  0.36414736  0.60272816  0.69210119  1  0  0.657029  0  3.88216  0  0  0.607786  0  4.198741  0  0  0.645089  0  4.188772  0  0  0.217335  0.582214  0  4.20476  0
C  C27  1  0.85279286  0.09158417  0.24051480  1  0  0.659246  0  3.808592  0  0  0.607853  0  4.110731  0  0  0.640585  0  4.102435  0  0  0.241519  0.585494  0  4.115886  0
C  C28  1  0.14721758  0.90843392  0.75948481  1  0  0.659445  0  3.80819  0  0  0.607918  0  4.110468  0  0  0.640667  0  4.102145  0  0  0.241507  0.585559  0  4.115632  0
O  O29  1  0.38372558  0.68564280  0.43338824  1  0  -0.714437  0  1.601868  0  0  -0.718199  0  1.878668  0  0  -0.738711  0  1.865581  0  0  -0.747449  -0.70635  0  1.888145  0
O  O30  1  0.61629242  0.31437421  0.56660671  1  0  -0.71438  0  1.602244  0  0  -0.718144  0  1.879066  0  0  -0.738648  0  1.865977  0  0  -0.747587  -0.706301  0  1.888547  0
O  O31  1  0.42878856  0.26480159  0.36969363  1  0  -0.58172  0  1.99963  0  0  -0.566239  0  2.253969  0  0  -0.599023  0  2.250927  0  0  -0.332412  -0.543173  0  2.255099  0
O  O32  1  0.57124956  0.73523148  0.63030294  1  0  -0.581702  0  1.999441  0  0  -0.566327  0  2.2538  0  0  -0.599113  0  2.250752  0  0  -0.332502  -0.543259  0  2.254926  0
O  O33  1  0.80731812  0.57454059  0.33494001  1  0  -0.64121  0  2.000009  0  0  -0.609321  0  2.243613  0  0  -0.640978  0  2.236482  0  0  -0.327222  -0.586978  0  2.247681  0
O  O34  1  0.19270601  0.42547438  0.66505630  1  0  -0.641025  0  1.999887  0  0  -0.609181  0  2.243433  0  0  -0.640834  0  2.236292  0  0  -0.32711  -0.586845  0  2.247499  0
O  O35  1  0.86338718  0.12818930  0.32727280  1  0  -0.523755  0  2.018938  0  0  -0.477548  0  2.238817  0  0  -0.497973  0  2.229452  0  0  -0.243378  -0.463244  0  2.244886  0
O  O36  1  0.13664664  0.87181640  0.67272688  1  0  -0.523842  0  2.018645  0  0  -0.477634  0  2.238615  0  0  -0.498061  0  2.229244  0  0  -0.243383  -0.46333  0  2.244689  0
O  O37  1  0.91037094  0.93486456  0.20379898  1  0  -0.558723  0  2.069457  0  0  -0.508824  0  2.284688  0  0  -0.531123  0  2.269979  0  0  -0.33166  -0.493098  0  2.294381  0
O  O38  1  0.08964826  0.06515891  0.79619612  1  0  -0.558768  0  2.069638  0  0  -0.508807  0  2.284896  0  0  -0.531108  0  2.270181  0  0  -0.331632  -0.493084  0  2.29459  0
O  O39  1  0.96168915  0.78056801  0.49159671  1  0  -0.858299  0  1.906531  0  0  -0.840426  0  2.104766  0  0  -0.864699  0  2.073525  0  0  -0.610839  -0.822694  0  2.126055  0
O  O40  1  0.03832956  0.21945128  0.50840055  1  0  -0.858102  0  1.906612  0  0  -0.840271  0  2.104779  0  0  -0.864519  0  2.073579  0  0  -0.610686  -0.822538  0  2.126065  0
