# generated using pymatgen
data_Ni3P4H24C14(NO9)2
_symmetry_space_group_name_H-M   'P 1'
_cell_length_a   6.87203095
_cell_length_b   9.56527919
_cell_length_c   10.29090013
_cell_angle_alpha   79.26296780
_cell_angle_beta   86.86879265
_cell_angle_gamma   79.85925269
_symmetry_Int_Tables_number   1
_chemical_formula_structural   Ni3P4H24C14(NO9)2
_chemical_formula_sum   'Ni3 P4 H24 C14 N2 O18'
_cell_volume   654.05885203
_cell_formula_units_Z   1
loop_
 _symmetry_equiv_pos_site_id
 _symmetry_equiv_pos_as_xyz
  1  'x, y, z'
loop_
 _atom_site_type_symbol
 _atom_site_label
 _atom_site_symmetry_multiplicity
 _atom_site_fract_x
 _atom_site_fract_y
 _atom_site_fract_z
 _atom_site_occupancy
 _atom_site_hle17_ddec_charge
 _atom_site_hle17_ddec_spin_density
 _atom_site_hle17_ddec_sum_bond_order
 _atom_site_hle17_magmom
 _atom_site_hse06_10hf_ddec_charge
 _atom_site_hse06_10hf_ddec_spin_density
 _atom_site_hse06_10hf_ddec_sum_bond_order
 _atom_site_hse06_10hf_magmom
 _atom_site_hse06_ddec_charge
 _atom_site_hse06_ddec_spin_density
 _atom_site_hse06_ddec_sum_bond_order
 _atom_site_hse06_magmom
 _atom_site_pbe_cm5_charge
 _atom_site_pbe_ddec_charge
 _atom_site_pbe_ddec_spin_density
 _atom_site_pbe_ddec_sum_bond_order
 _atom_site_pbe_magmom
Ni  Ni0  1  0.50035939  0.50021539  0.49987782  1  1.129355  -1.812891  1.811908  -1.583  1.144005  -1.858907  2.191072  -1.694  1.214966  -1.903588  2.130012  -1.763  0.64994  1.088043  -1.813547  2.235792  -1.63
Ni  Ni1  1  0.29637944  0.04340903  0.55700105  1  1.031369  -1.758528  1.878958  -1.537  1.053305  -1.826214  2.246786  -1.665  1.134783  -1.882212  2.182188  -1.743  0.646513  0.977014  -1.770466  2.31289  -1.593
Ni  Ni2  1  0.70354696  0.95672738  0.44325276  1  1.032757  1.80516  1.881681  1.537  1.05306  1.853938  2.250439  1.663  1.134695  1.9157  2.18565  1.742  0.646618  0.976756  1.790096  2.316524  1.589
P  P3  1  0.46128992  0.73984799  0.68232578  1  1.395781  0.001551  4.934129  0.005  1.252178  -0.000731  5.442321  0.002  1.306259  -0.000304  5.404298  0.002  0.315966  1.213028  -0.001092  5.466629  0.003
P  P4  1  0.53871454  0.26019595  0.31765651  1  1.39577  -0.003924  4.934165  -0.005  1.252075  -0.004451  5.441721  -0.006  1.306123  -0.003642  5.403621  -0.005  0.315665  1.212888  -0.005139  5.466295  -0.007
P  P5  1  0.14292629  0.78672678  0.47841502  1  1.40445  -0.003451  4.824202  -0.002  1.255145  -0.003638  5.327835  -0.003  1.308385  -0.002523  5.291024  -0.002  0.33646  1.216806  -0.004748  5.350829  -0.004
P  P6  1  0.85685984  0.21319948  0.52161764  1  1.403723  -0.003275  4.825267  -0.003  1.254484  -0.00445  5.329048  -0.005  1.307781  -0.003641  5.292133  -0.004  0.335815  1.215985  -0.005131  5.352296  -0.005
H  H7  1  0.98908163  0.96657709  0.65685291  1  0.388259  0.000233  0.903138  0.001  0.360838  -6.2e-05  0.978728  0.0  0.373004  1.5e-05  0.966352  0.0  0.297993  0.35219  -0.000139  0.986928  0.0
H  H8  1  0.01091480  0.03339973  0.34314942  1  0.388586  -0.00016  0.902201  -0.001  0.360974  0.000106  0.978105  0.0  0.373124  1.9e-05  0.965734  0.0  0.298084  0.352336  0.000187  0.9863  0.0
H  H9  1  0.20516597  0.34544415  0.57543320  1  0.443114  0.000147  0.841062  0.001  0.418358  -0.000128  0.898054  0.0  0.428776  -1.2e-05  0.883019  0.0  0.301764  0.410639  -0.000256  0.909161  0.0
H  H10  1  0.79502759  0.65501746  0.42432220  1  0.442751  -4.5e-05  0.841411  0.0  0.417985  -0.00033  0.89867  0.0  0.428443  -0.000222  0.883571  0.0  0.301519  0.410223  -0.000443  0.909853  0.0
H  H11  1  0.37616956  0.29922972  0.67326203  1  0.426154  0.000448  0.846449  0.001  0.403215  2.7e-05  0.91257  0.0  0.412377  0.000133  0.899119  0.0  0.304202  0.396343  -0.000117  0.922727  0.0
H  H12  1  0.62415305  0.70113757  0.32643774  1  0.42605  0.000136  0.846468  0.001  0.403172  -0.000205  0.912563  0.0  0.412354  -9.8e-05  0.899084  0.0  0.304378  0.39628  -0.000325  0.92275  0.0
H  H13  1  0.58813435  0.07956228  0.67678671  1  0.431466  0.00013  0.861307  0.001  0.400876  -0.000196  0.933239  0.0  0.412315  -9.5e-05  0.916634  0.0  0.296891  0.392471  -0.000303  0.945395  0.0
H  H14  1  0.41168618  0.92053156  0.32336341  1  0.431378  -7.2e-05  0.861914  -0.001  0.400519  0.000242  0.934041  0.0  0.41195  0.000135  0.917441  0.0  0.296395  0.392124  0.000352  0.946173  0.0
H  H15  1  0.45485141  0.99495742  0.78020993  1  0.432307  0.000365  0.819226  0.001  0.410392  -0.000175  0.884433  0.0  0.420575  -2.5e-05  0.87277  0.0  0.310477  0.402776  -0.000354  0.892829  0.0
H  H16  1  0.54502960  0.00507415  0.21993516  1  0.432309  -0.000448  0.819053  -0.001  0.41028  3e-05  0.884411  0.0  0.420435  -5.7e-05  0.872783  0.0  0.310484  0.402701  9.2e-05  0.892768  0.0
H  H17  1  0.36267982  0.40776275  0.11885708  1  0.307194  -5.3e-05  0.919015  0.0  0.281286  -8e-05  0.989994  0.0  0.291322  -5.4e-05  0.982201  0.0  0.304554  0.274115  -0.000108  0.995483  0.0
H  H18  1  0.63731753  0.59215368  0.88120163  1  0.306893  -6e-06  0.919571  0.0  0.281346  -1.8e-05  0.990119  0.0  0.291389  -1.3e-05  0.982324  0.0  0.30467  0.274155  -3e-05  0.995618  0.0
H  H19  1  0.91088477  0.71157391  0.72207464  1  0.118047  0.000276  0.915408  0.0  0.131306  7.6e-05  0.978947  0.0  0.13301  3.9e-05  0.977621  0.0  0.107896  0.129868  0.000106  0.980097  0.0
H  H20  1  0.08912974  0.28815841  0.27793932  1  0.118201  -0.000244  0.915982  0.0  0.131435  -8e-05  0.97933  0.0  0.133132  -3.9e-05  0.97801  0.0  0.107909  0.130031  -0.000113  0.980425  0.0
H  H21  1  0.10761896  0.56715409  0.70556889  1  0.118215  -0.000326  0.947733  -0.001  0.133004  -0.000248  1.010317  -0.001  0.13456  -0.00014  1.00947  0.0  0.10807  0.131791  -0.000354  1.01106  -0.001
H  H22  1  0.89267915  0.43275068  0.29439781  1  0.117586  0.000473  0.947529  0.001  0.132047  0.000357  1.010511  0.001  0.13364  0.000263  1.009611  0.0  0.107726  0.130806  0.000434  1.011286  0.001
H  H23  1  0.91176602  0.84133811  0.92171041  1  0.116349  -0.000112  0.906096  0.0  0.130598  -0.000148  0.956582  0.0  0.13369  -9.6e-05  0.953906  0.0  0.118469  0.128041  -0.000211  0.958903  0.0
H  H24  1  0.08837494  0.15861701  0.07822080  1  0.116294  0.000118  0.906693  0.0  0.130629  0.00015  0.957072  0.0  0.133716  9.9e-05  0.954405  0.0  0.118555  0.128082  0.000215  0.959378  0.0
H  H25  1  0.99620218  0.80031391  0.16291440  1  0.128815  -0.000107  0.923822  0.0  0.139731  -0.000155  0.974383  0.0  0.142987  -0.000119  0.97384  0.0  0.120844  0.137083  -0.000197  0.975343  0.0
H  H26  1  0.00395998  0.19974961  0.83699860  1  0.128501  2.3e-05  0.923829  0.0  0.13925  5e-06  0.974607  0.0  0.142576  1.5e-05  0.973961  0.0  0.120605  0.136604  -1.2e-05  0.975571  0.0
H  H27  1  0.23455881  0.57671145  0.25635333  1  0.140905  3.8e-05  0.972227  0.0  0.14444  7.2e-05  1.033015  0.0  0.148426  7.8e-05  1.029272  0.0  0.134872  0.14118  6.2e-05  1.036411  0.0
H  H28  1  0.76548775  0.42330484  0.74365546  1  0.140937  4.8e-05  0.972122  0.0  0.144578  7.8e-05  1.032818  0.0  0.148566  8.9e-05  1.029076  0.0  0.134925  0.141302  6.2e-05  1.03623  0.0
H  H29  1  0.30629048  0.44442992  0.89148121  1  0.111611  -1e-05  0.909291  0.0  0.123361  -2.6e-05  0.964884  0.0  0.126084  -9e-06  0.963091  0.0  0.136203  0.120991  -7.1e-05  0.966825  0.0
H  H30  1  0.69367601  0.55541160  0.10860084  1  0.111466  1.8e-05  0.909914  0.0  0.123421  4e-06  0.965223  0.0  0.126124  1e-05  0.963478  0.0  0.136259  0.120993  7e-06  0.967235  0.0
C  C31  1  0.18780058  0.77757886  0.65802110  1  -0.212931  0.007695  3.597556  0.01  -0.176331  0.003723  3.852499  0.005  -0.185335  0.003049  3.865501  0.004  0.044468  -0.169772  0.004479  3.842519  0.006
C  C32  1  0.81209668  0.22239813  0.34198337  1  -0.21305  -0.00513  3.597948  -0.008  -0.176634  -0.002435  3.852876  -0.004  -0.18568  -0.001905  3.865907  -0.003  0.04434  -0.170039  -0.003107  3.842909  -0.005
C  C33  1  0.06864513  0.67024754  0.74093620  1  -0.18937  -0.001068  3.723612  -0.001  -0.244506  -0.000518  3.970521  0.0  -0.244592  -0.000246  3.98432  0.0  -0.159155  -0.244274  -0.000778  3.961785  -0.001
C  C34  1  0.93140740  0.32962586  0.25906665  1  -0.189062  0.001078  3.723807  0.001  -0.243908  0.000556  3.970481  0.0  -0.243942  0.00031  3.984137  0.0  -0.159056  -0.243681  0.000747  3.961789  0.001
C  C35  1  0.10615197  0.64859949  0.88579220  1  0.077194  2.9e-05  3.720902  0.0  0.099006  -0.0001  3.96898  0.0  0.094539  -7e-05  3.992355  0.0  0.007394  0.101155  -0.000132  3.953753  0.0
C  C36  1  0.89389296  0.35129872  0.11420753  1  0.077521  2.2e-05  3.721311  0.0  0.099424  0.000105  3.969112  0.0  0.094908  7.7e-05  3.992568  0.0  0.007705  0.101601  0.000175  3.953832  0.0
C  C37  1  0.01772118  0.74781416  0.96530454  1  -0.015622  -0.000345  3.618038  0.0  -0.049936  -0.000377  3.874245  0.0  -0.043752  -0.000208  3.888393  0.0  -0.046462  -0.053982  -0.000682  3.86509  -0.001
C  C38  1  0.98238223  0.25213537  0.03466711  1  -0.016047  0.000347  3.619155  0.0  -0.050572  0.000329  3.875423  0.0  -0.044394  0.000175  3.88962  0.0  -0.046863  -0.054623  0.000513  3.866262  0.0
C  C39  1  0.06275133  0.72528719  0.09880850  1  -0.106986  -0.000125  3.70253  0.0  -0.119089  -0.0002  3.961007  0.0  -0.127098  -0.000135  3.980503  0.0  -0.069328  -0.114398  -0.000215  3.949229  0.0
C  C40  1  0.93736979  0.27471445  0.90115608  1  -0.10606  -4.4e-05  3.702872  0.0  -0.11797  -5.3e-05  3.961339  0.0  -0.126021  -3.8e-05  3.980819  0.0  -0.068714  -0.113287  -0.000101  3.949587  0.0
C  C41  1  0.19214846  0.60232533  0.15307271  1  0.140834  -0.00014  3.564102  0.0  0.098976  -0.000107  3.814978  0.0  0.108469  -4e-05  3.828509  0.0  0.067712  0.092121  -0.000236  3.807499  0.0
C  C42  1  0.80794311  0.39766752  0.84692477  1  0.14039  0.000156  3.56459  0.0  0.098575  6.3e-05  3.815599  0.0  0.108063  3.7e-05  3.829159  0.0  0.067417  0.091694  0.000137  3.808165  0.0
C  C43  1  0.23378373  0.52726375  0.94591975  1  0.080881  0.000164  3.596282  0.0  0.031393  0.000122  3.851669  0.0  0.038268  0.0001  3.868459  0.0  0.065399  0.026936  0.000118  3.841304  0.0
C  C44  1  0.76621030  0.47262984  0.05412080  1  0.080955  -0.000204  3.597045  0.0  0.03136  -0.000179  3.8525  0.0  0.038233  -0.000129  3.86929  0.0  0.065395  0.026941  -0.000248  3.842166  0.0
N  N45  1  0.27201385  0.50673003  0.07566112  1  -0.213093  1.6e-05  3.487941  0.0  -0.136877  -9.4e-05  3.710222  0.0  -0.153375  -4.9e-05  3.728825  0.0  -0.334439  -0.126188  -0.000212  3.697991  0.0
N  N46  1  0.72800784  0.49320494  0.92437482  1  -0.212468  0.000136  3.488431  0.0  -0.136757  0.000135  3.711118  0.0  -0.153241  8.7e-05  3.72969  0.0  -0.334429  -0.126082  0.000254  3.698913  0.0
O  O47  1  0.54370613  0.58938840  0.65573799  1  -0.824366  -0.042882  2.087552  -0.069  -0.779417  -0.026453  2.380211  -0.041  -0.813714  -0.020507  2.360381  -0.032  -0.372259  -0.752796  -0.032053  2.393009  -0.05
O  O48  1  0.45678733  0.41075075  0.34417311  1  -0.825029  -0.03316  2.087216  -0.054  -0.779005  -0.021195  2.379294  -0.033  -0.813199  -0.017046  2.359477  -0.027  -0.372246  -0.752623  -0.024714  2.392166  -0.038
O  O49  1  0.51770420  0.86478375  0.57448950  1  -0.86109  -0.014977  2.256509  -0.025  -0.824073  -0.007367  2.578704  -0.014  -0.869213  -0.0049  2.560531  -0.01  -0.386277  -0.785417  -0.009797  2.589373  -0.017
O  O50  1  0.48210012  0.13534619  0.42552855  1  -0.860991  0.016822  2.254891  0.025  -0.82428  0.008212  2.577662  0.014  -0.869287  0.00587  2.559425  0.01  -0.386408  -0.785717  0.010107  2.588266  0.016
O  O51  1  0.50969423  0.75683729  0.82139454  1  -0.823776  -0.005727  1.81771  -0.009  -0.763779  -0.003219  2.046971  -0.005  -0.789646  -0.002174  2.029457  -0.004  -0.397685  -0.744504  -0.004288  2.058796  -0.007
O  O52  1  0.49020841  0.24315387  0.17862079  1  -0.824175  -0.008089  1.81792  -0.012  -0.763808  -0.004383  2.047064  -0.007  -0.789625  -0.003004  2.029557  -0.005  -0.397883  -0.744676  -0.005958  2.058962  -0.009
O  O53  1  0.27506788  0.66363219  0.42737214  1  -0.808987  -0.026787  2.042472  -0.042  -0.755532  -0.019386  2.319914  -0.029  -0.788646  -0.015787  2.299344  -0.024  -0.36161  -0.729854  -0.022362  2.333937  -0.033
O  O54  1  0.72368247  0.33545441  0.57328225  1  -0.809075  -0.036042  2.042343  -0.057  -0.755827  -0.024071  2.319799  -0.037  -0.789026  -0.018909  2.299288  -0.029  -0.361212  -0.729969  -0.028938  2.333895  -0.044
O  O55  1  0.19195367  0.93937812  0.41089771  1  -0.838273  -0.039925  2.066817  -0.063  -0.771086  -0.027616  2.316298  -0.042  -0.806715  -0.021534  2.299181  -0.034  -0.362161  -0.742173  -0.032767  2.327001  -0.049
O  O56  1  0.80824496  0.06034671  0.58898752  1  -0.837794  0.038772  2.068831  0.059  -0.771148  0.026182  2.318701  0.039  -0.806985  0.020626  2.301546  0.031  -0.361854  -0.741871  0.030779  2.329433  0.046
O  O57  1  0.92148282  0.78450538  0.46294361  1  -0.826737  0.033446  2.058332  0.053  -0.772779  0.02108  2.341547  0.032  -0.80762  0.017157  2.318782  0.026  -0.37057  -0.744242  0.023748  2.356943  0.036
O  O58  1  0.07826525  0.21591976  0.53659184  1  -0.826628  -0.038658  2.056241  -0.063  -0.772477  -0.024856  2.339082  -0.039  -0.807006  -0.019538  2.316145  -0.031  -0.370364  -0.744395  -0.029265  2.354702  -0.045
O  O59  1  0.12872251  0.92065876  0.69100764  1  -0.541362  -0.045508  2.22047  -0.074  -0.508841  -0.031343  2.466151  -0.052  -0.536563  -0.024664  2.459604  -0.041  -0.372032  -0.485562  -0.036822  2.469239  -0.059
O  O60  1  0.87124383  0.07929116  0.30910178  1  -0.541163  0.047364  2.220325  0.075  -0.508515  0.03212  2.466183  0.052  -0.536235  0.025398  2.459661  0.042  -0.371814  -0.48518  0.037553  2.46922  0.06
O  O61  1  0.29772733  0.38648770  0.62316906  1  -0.79759  -0.036779  1.898267  -0.059  -0.773141  -0.026716  2.102482  -0.042  -0.798919  -0.020845  2.072111  -0.034  -0.561838  -0.752791  -0.032084  2.12432  -0.049
O  O62  1  0.70235805  0.61386306  0.37672714  1  -0.79682  -0.036858  1.898611  -0.059  -0.772366  -0.026866  2.102872  -0.042  -0.798201  -0.021087  2.072426  -0.034  -0.561428  -0.751931  -0.032102  2.124726  -0.049
O  O63  1  0.45168225  0.08747167  0.71846322  1  -0.797714  -0.038483  1.884321  -0.061  -0.763548  -0.029278  2.078666  -0.046  -0.789921  -0.022557  2.047293  -0.036  -0.557091  -0.741827  -0.035094  2.102297  -0.053
O  O64  1  0.54812643  0.91253079  0.28161327  1  -0.798112  0.039371  1.88283  0.06  -0.763825  0.029343  2.077213  0.045  -0.7901  0.022778  2.045834  0.036  -0.557373  -0.742241  0.034883  2.100848  0.052
