# generated using pymatgen
data_RbH2C2(N3O)2
_symmetry_space_group_name_H-M   'P 1'
_cell_length_a   5.07034601
_cell_length_b   9.03046673
_cell_length_c   14.52154799
_cell_angle_alpha   106.83232870
_cell_angle_beta   89.99965228
_cell_angle_gamma   89.99988532
_symmetry_Int_Tables_number   1
_chemical_formula_structural   RbH2C2(N3O)2
_chemical_formula_sum   'Rb4 H8 C8 N24 O8'
_cell_volume   636.41961055
_cell_formula_units_Z   4
loop_
 _symmetry_equiv_pos_site_id
 _symmetry_equiv_pos_as_xyz
  1  'x, y, z'
loop_
 _atom_site_type_symbol
 _atom_site_label
 _atom_site_symmetry_multiplicity
 _atom_site_fract_x
 _atom_site_fract_y
 _atom_site_fract_z
 _atom_site_occupancy
 _atom_site_hle17_bader_spin_density
 _atom_site_hle17_ddec_charge
 _atom_site_hle17_ddec_spin_density
 _atom_site_hle17_ddec_sum_bond_order
 _atom_site_hle17_magmom
 _atom_site_hse06_10hf_bader_spin_density
 _atom_site_hse06_10hf_ddec_charge
 _atom_site_hse06_10hf_ddec_spin_density
 _atom_site_hse06_10hf_ddec_sum_bond_order
 _atom_site_hse06_10hf_magmom
 _atom_site_hse06_bader_spin_density
 _atom_site_hse06_ddec_charge
 _atom_site_hse06_ddec_spin_density
 _atom_site_hse06_ddec_sum_bond_order
 _atom_site_hse06_magmom
 _atom_site_pbe_bader_spin_density
 _atom_site_pbe_cm5_charge
 _atom_site_pbe_ddec_charge
 _atom_site_pbe_ddec_spin_density
 _atom_site_pbe_ddec_sum_bond_order
 _atom_site_pbe_magmom
Rb  Rb0  1  0.70392834  0.46746569  0.12954438  1  0  0.902668  0  0.526024  0  0  0.828657  0  0.76052  0  0  0.844432  0  0.73773  0  0  0.892492  0.817149  0  0.776555  0
Rb  Rb1  1  0.20392958  0.03253684  0.37045358  1  0  0.902665  0  0.526051  0  0  0.828649  0  0.760554  0  0  0.844425  0  0.737763  0  0  0.892484  0.817169  0  0.776553  0
Rb  Rb2  1  0.29607790  0.53253806  0.87045356  1  0  0.902658  0  0.526037  0  0  0.828639  0  0.760538  0  0  0.844414  0  0.737748  0  0  0.892484  0.817136  0  0.776554  0
Rb  Rb3  1  0.79607665  0.96746352  0.62954723  1  0  0.902675  0  0.526026  0  0  0.828661  0  0.760521  0  0  0.844436  0  0.737731  0  0  0.892481  0.817166  0  0.776542  0
H  H4  1  0.19628556  0.37262465  0.25275099  1  0  0.323413  0  0.950176  0  0  0.29854  0  1.027858  0  0  0.307291  0  1.020257  0  0  0.298203  0.292389  0  1.033139  0
H  H5  1  0.69628544  0.12737681  0.24724956  1  0  0.32342  0  0.950185  0  0  0.298568  0  1.02785  0  0  0.307326  0  1.020243  0  0  0.29821  0.292407  0  1.033131  0
H  H6  1  0.80371476  0.62737803  0.74725022  1  0  0.32337  0  0.950244  0  0  0.298531  0  1.027861  0  0  0.307279  0  1.020266  0  0  0.298202  0.292377  0  1.033142  0
H  H7  1  0.30371883  0.87261900  0.75275322  1  0  0.323424  0  0.950133  0  0  0.298561  0  1.027811  0  0  0.307314  0  1.020205  0  0  0.298224  0.292403  0  1.033092  0
H  H8  1  0.19917791  0.56482008  0.32481388  1  0  0.340175  0  0.909751  0  0  0.319801  0  0.981547  0  0  0.327436  0  0.974519  0  0  0.308528  0.314381  0  0.986571  0
H  H9  1  0.69917599  0.93518081  0.17518462  1  0  0.340174  0  0.909777  0  0  0.319805  0  0.981562  0  0  0.327438  0  0.974534  0  0  0.308525  0.314385  0  0.986586  0
H  H10  1  0.80082242  0.43517668  0.67518080  1  0  0.340284  0  0.909583  0  0  0.319867  0  0.981444  0  0  0.327511  0  0.974401  0  0  0.30856  0.314445  0  0.986467  0
H  H11  1  0.30083025  0.06482308  0.82481885  1  0  0.340215  0  0.909673  0  0  0.319816  0  0.981499  0  0  0.327461  0  0.974456  0  0  0.308545  0.314395  0  0.98652  0
C  C12  1  0.90550246  0.43106416  0.35363246  1  0  0.517798  0  3.859033  0  0  0.460103  0  4.151069  0  0  0.483428  0  4.159429  0  0  0.325886  0.444464  0  4.145072  0
C  C13  1  0.40549363  0.06893794  0.14636636  1  0  0.517831  0  3.858944  0  0  0.460189  0  4.150902  0  0  0.483515  0  4.159259  0  0  0.325945  0.444549  0  4.144913  0
C  C14  1  0.09449589  0.56893738  0.64636923  1  0  0.51802  0  3.858897  0  0  0.460418  0  4.150877  0  0  0.483739  0  4.159237  0  0  0.325938  0.444779  0  4.14488  0
C  C15  1  0.59450275  0.93106128  0.85363425  1  0  0.517795  0  3.858921  0  0  0.460138  0  4.15092  0  0  0.48346  0  4.159282  0  0  0.325864  0.444498  0  4.144923  0
C  C16  1  0.58870653  0.46331419  0.46141511  1  0  0.203442  0  3.786369  0  0  0.168793  0  4.075195  0  0  0.180354  0  4.085386  0  0  0.220493  0.160984  0  4.068403  0
C  C17  1  0.08870558  0.03668641  0.03858689  1  0  0.20345  0  3.786503  0  0  0.16878  0  4.075317  0  0  0.180338  0  4.085514  0  0  0.220517  0.16097  0  4.068528  0
C  C18  1  0.41127407  0.53668507  0.53858757  1  0  0.203316  0  3.786339  0  0  0.168777  0  4.075142  0  0  0.18033  0  4.08534  0  0  0.220482  0.160952  0  4.068365  0
C  C19  1  0.91128882  0.96331731  0.96140967  1  0  0.20318  0  3.786592  0  0  0.168685  0  4.075284  0  0  0.180243  0  4.085473  0  0  0.22044  0.16085  0  4.068519  0
N  N20  1  0.77532318  0.54219964  0.42356567  1  0  -0.123338  0  3.572203  0  0  -0.036858  0  3.804667  0  0  -0.051543  0  3.825081  0  0  -0.141995  -0.027229  0  3.790962  0
N  N21  1  0.27532210  0.95779883  0.07643501  1  0  -0.123269  0  3.5722  0  0  -0.036809  0  3.804657  0  0  -0.051494  0  3.825069  0  0  -0.142005  -0.027179  0  3.790952  0
N  N22  1  0.22466728  0.45780195  0.57643811  1  0  -0.123261  0  3.572131  0  0  -0.036991  0  3.804774  0  0  -0.051668  0  3.825182  0  0  -0.141921  -0.027359  0  3.791077  0
N  N23  1  0.72467428  0.04219796  0.92356105  1  0  -0.123241  0  3.572251  0  0  -0.036856  0  3.804718  0  0  -0.051536  0  3.825127  0  0  -0.141925  -0.027222  0  3.79102  0
N  N24  1  0.68062734  0.76629022  0.39454021  1  0  0.59624  0  4.049771  0  0  0.624893  0  4.353093  0  0  0.649169  0  4.361501  0  0  0.064095  0.608613  0  4.347199  0
N  N25  1  0.18063047  0.73370958  0.10545883  1  0  0.596215  0  4.049857  0  0  0.624868  0  4.353184  0  0  0.649144  0  4.361592  0  0  0.064082  0.608589  0  4.347286  0
N  N26  1  0.31937299  0.23371243  0.60545961  1  0  0.596229  0  4.0498  0  0  0.624879  0  4.353105  0  0  0.649156  0  4.361511  0  0  0.064076  0.6086  0  4.347208  0
N  N27  1  0.81937577  0.26628844  0.89454019  1  0  0.596229  0  4.049773  0  0  0.62488  0  4.353092  0  0  0.649154  0  4.3615  0  0  0.064028  0.608602  0  4.347194  0
N  N28  1  0.80398699  0.29230516  0.34833122  1  0  -0.412308  0  2.999579  0  0  -0.369587  0  3.286864  0  0  -0.384992  0  3.297413  0  0  -0.293641  -0.359188  0  3.279602  0
N  N29  1  0.30398943  0.20769370  0.15166727  1  0  -0.412315  0  2.999739  0  0  -0.369617  0  3.287003  0  0  -0.38502  0  3.297548  0  0  -0.293694  -0.359219  0  3.279754  0
N  N30  1  0.19601136  0.70769755  0.65167137  1  0  -0.412287  0  2.999559  0  0  -0.369573  0  3.286812  0  0  -0.384978  0  3.297357  0  0  -0.29356  -0.359172  0  3.279549  0
N  N31  1  0.69601287  0.79230318  0.84833225  1  0  -0.412266  0  2.999474  0  0  -0.369578  0  3.286765  0  0  -0.384981  0  3.297314  0  0  -0.293658  -0.359179  0  3.279509  0
N  N32  1  0.09415589  0.46511826  0.29767423  1  0  -0.718435  0  3.123483  0  0  -0.685052  0  3.374867  0  0  -0.705348  0  3.368848  0  0  -0.628641  -0.670785  0  3.378728  0
N  N33  1  0.59416672  0.03488343  0.20232588  1  0  -0.718521  0  3.123285  0  0  -0.685185  0  3.374611  0  0  -0.705489  0  3.368576  0  0  -0.628698  -0.670906  0  3.378508  0
N  N34  1  0.90583654  0.53487978  0.70232549  1  0  -0.718603  0  3.123314  0  0  -0.685236  0  3.374712  0  0  -0.705537  0  3.368675  0  0  -0.628719  -0.670969  0  3.378571  0
N  N35  1  0.40583952  0.96511808  0.79767443  1  0  -0.718548  0  3.123167  0  0  -0.685172  0  3.374551  0  0  -0.70548  0  3.36851  0  0  -0.628733  -0.670898  0  3.378434  0
N  N36  1  0.60443983  0.31376421  0.41614392  1  0  -0.274638  0  2.983027  0  0  -0.266957  0  3.284138  0  0  -0.271285  0  3.294993  0  0  -0.275263  -0.263752  0  3.276703  0
N  N37  1  0.10444153  0.18623633  0.08385736  1  0  -0.274586  0  2.983181  0  0  -0.266908  0  3.284299  0  0  -0.271236  0  3.295156  0  0  -0.275194  -0.263699  0  3.27686  0
N  N38  1  0.39555457  0.68623501  0.58385738  1  0  -0.274696  0  2.98315  0  0  -0.267027  0  3.284233  0  0  -0.271353  0  3.295091  0  0  -0.27533  -0.263819  0  3.276803  0
N  N39  1  0.89556470  0.81376748  0.91614266  1  0  -0.274507  0  2.983087  0  0  -0.26685  0  3.284132  0  0  -0.271177  0  3.29499  0  0  -0.275193  -0.263637  0  3.276701  0
N  N40  1  0.82962669  0.69949424  0.44733661  1  0  -0.294078  0  2.699771  0  0  -0.324185  0  3.001553  0  0  -0.331976  0  3.009536  0  0  -0.204574  -0.319003  0  2.996338  0
N  N41  1  0.32963248  0.80050407  0.05266254  1  0  -0.29413  0  2.69982  0  0  -0.324233  0  3.001604  0  0  -0.332024  0  3.009586  0  0  -0.204581  -0.319051  0  2.996386  0
N  N42  1  0.17037560  0.30050727  0.55266370  1  0  -0.294142  0  2.699839  0  0  -0.324177  0  3.001646  0  0  -0.331971  0  3.00963  0  0  -0.204616  -0.319003  0  2.996433  0
N  N43  1  0.67037968  0.19949164  0.94733609  1  0  -0.294071  0  2.699782  0  0  -0.324163  0  3.001578  0  0  -0.331956  0  3.009562  0  0  -0.204555  -0.318986  0  2.996362  0
O  O44  1  0.51868443  0.69454104  0.33035986  1  0  -0.507456  0  1.763174  0  0  -0.488601  0  1.983918  0  0  -0.501957  0  1.977394  0  0  -0.22394  -0.479337  0  1.988337  0
O  O45  1  0.01868227  0.80546145  0.16963999  1  0  -0.507441  0  1.763107  0  0  -0.488578  0  1.98385  0  0  -0.501935  0  1.977326  0  0  -0.223943  -0.47932  0  1.98827  0
O  O46  1  0.48131787  0.30546161  0.66963996  1  0  -0.50747  0  1.763238  0  0  -0.488581  0  1.983948  0  0  -0.50194  0  1.977425  0  0  -0.223936  -0.479317  0  1.988363  0
O  O47  1  0.98132397  0.19454000  0.83035825  1  0  -0.507487  0  1.763165  0  0  -0.488608  0  1.983882  0  0  -0.501966  0  1.97736  0  0  -0.223939  -0.47935  0  1.9883  0
O  O48  1  0.71065840  0.91166896  0.41354516  1  0  -0.55349  0  1.800781  0  0  -0.529564  0  2.034156  0  0  -0.545025  0  2.027648  0  0  -0.341655  -0.518705  0  2.038454  0
O  O49  1  0.21066040  0.58833076  0.08645381  1  0  -0.553446  0  1.800792  0  0  -0.529525  0  2.034161  0  0  -0.544986  0  2.027651  0  0  -0.341652  -0.51866  0  2.038452  0
O  O50  1  0.28934389  0.08833369  0.58645466  1  0  -0.553434  0  1.800717  0  0  -0.529517  0  2.034092  0  0  -0.544978  0  2.027582  0  0  -0.341615  -0.51866  0  2.038389  0
O  O51  1  0.78933993  0.41166610  0.91354502  1  0  -0.553423  0  1.800708  0  0  -0.529506  0  2.034077  0  0  -0.544965  0  2.027566  0  0  -0.341608  -0.518646  0  2.038369  0
