# generated using pymatgen
data_CdH8C14S2N6O
_symmetry_space_group_name_H-M   'P 1'
_cell_length_a   7.75339322
_cell_length_b   9.83742112
_cell_length_c   25.16763584
_cell_angle_alpha   89.99966560
_cell_angle_beta   90.65257507
_cell_angle_gamma   90.00076990
_symmetry_Int_Tables_number   1
_chemical_formula_structural   CdH8C14S2N6O
_chemical_formula_sum   'Cd4 H32 C56 S8 N24 O4'
_cell_volume   1919.49650236
_cell_formula_units_Z   4
loop_
 _symmetry_equiv_pos_site_id
 _symmetry_equiv_pos_as_xyz
  1  'x, y, z'
loop_
 _atom_site_type_symbol
 _atom_site_label
 _atom_site_symmetry_multiplicity
 _atom_site_fract_x
 _atom_site_fract_y
 _atom_site_fract_z
 _atom_site_occupancy
 _atom_site_pbe_bader_charge
 _atom_site_pbe_bader_spin_density
 _atom_site_pbe_cm5_charge
 _atom_site_pbe_ddec_charge
 _atom_site_pbe_ddec_spin_density
 _atom_site_pbe_ddec_sum_bond_order
 _atom_site_pbe_magmom
Cd  Cd0  1  0.26690594  0.74648489  0.23915753  1  1.185641  0  0.726585  0.742818  0  2.47194  0
Cd  Cd1  1  0.26689429  0.75352464  0.73915837  1  1.185668  0  0.726654  0.74299  0  2.471903  0
Cd  Cd2  1  0.73308536  0.25350872  0.76084328  1  1.185641  0  0.726622  0.742901  0  2.471971  0
Cd  Cd3  1  0.73309840  0.24648728  0.26084127  1  1.18567  0  0.726637  0.742948  0  2.47187  0
H  H4  1  0.32727512  0.48138778  0.30826571  1  0.14159  0  0.109813  0.08598  0  1.037764  0
H  H5  1  0.32727269  0.01862045  0.80826404  1  0.141407  0  0.109802  0.085961  0  1.0379  0
H  H6  1  0.67273969  0.51860990  0.69173179  1  0.141492  0  0.109805  0.086001  0  1.037695  0
H  H7  1  0.67272512  0.98138536  0.19173605  1  0.141502  0  0.109809  0.085999  0  1.037832  0
H  H8  1  0.47656897  0.39364240  0.39036252  1  0.124656  0  0.105539  0.125544  0  1.010894  0
H  H9  1  0.47657212  0.10636720  0.89035791  1  0.124547  0  0.105578  0.125624  0  1.011032  0
H  H10  1  0.52343933  0.60635935  0.60963571  1  0.124553  0  0.105536  0.125556  0  1.010891  0
H  H11  1  0.52343102  0.89363861  0.10964025  1  0.124522  0  0.105601  0.125685  0  1.010989  0
H  H12  1  0.69024873  0.79594495  0.41252602  1  0.104965  0  0.115266  0.126122  0  0.982048  0
H  H13  1  0.69021152  0.70405632  0.91252946  1  0.105428  0  0.115252  0.12604  0  0.981873  0
H  H14  1  0.30975424  0.20405477  0.58747413  1  0.104992  0  0.115286  0.126132  0  0.982059  0
H  H15  1  0.30977198  0.29594238  0.08747206  1  0.105154  0  0.115252  0.126097  0  0.981952  0
H  H16  1  0.53041322  0.86708938  0.33040540  1  0.139464  0  0.115108  0.089822  0  1.020578  0
H  H17  1  0.53038119  0.63291448  0.83040986  1  0.139567  0  0.11511  0.089876  0  1.020484  0
H  H18  1  0.46959637  0.13291034  0.66959285  1  0.139512  0  0.115136  0.089881  0  1.02053  0
H  H19  1  0.46959969  0.36708625  0.16959202  1  0.139587  0  0.115061  0.089793  0  1.020564  0
H  H20  1  0.94305878  0.39455403  0.61137619  1  0.107172  0  0.107297  0.125629  0  1.015103  0
H  H21  1  0.94303582  0.10544748  0.11137529  1  0.107274  0  0.10728  0.125619  0  1.015036  0
H  H22  1  0.05694544  0.60545077  0.38862438  1  0.107094  0  0.107309  0.125632  0  1.015031  0
H  H23  1  0.05697373  0.89454614  0.88862335  1  0.107079  0  0.107232  0.1255  0  1.015081  0
H  H24  1  0.11693189  0.48579755  0.68812835  1  0.16651  0  0.109339  0.092521  0  1.040316  0
H  H25  1  0.11693348  0.01420720  0.18812438  1  0.166584  0  0.109315  0.092512  0  1.040416  0
H  H26  1  0.88305921  0.51420623  0.31187484  1  0.167212  0  0.109313  0.092478  0  1.040375  0
H  H27  1  0.88307607  0.98578540  0.81187426  1  0.166479  0  0.109348  0.092527  0  1.040393  0
H  H28  1  0.09460768  0.87816799  0.62885795  1  0.102809  0  0.120105  0.092998  0  0.989563  0
H  H29  1  0.09461214  0.62183730  0.12885654  1  0.102781  0  0.120082  0.092886  0  0.989596  0
H  H30  1  0.90538979  0.12183579  0.37114611  1  0.102898  0  0.120097  0.09297  0  0.989586  0
H  H31  1  0.90538686  0.37815225  0.87114476  1  0.102864  0  0.120069  0.092901  0  0.989645  0
H  H32  1  0.92392290  0.80402655  0.54874967  1  0.101481  0  0.119447  0.131709  0  0.971679  0
H  H33  1  0.92389603  0.69597253  0.04875169  1  0.101436  0  0.119422  0.131658  0  0.971792  0
H  H34  1  0.07608390  0.19598028  0.45125092  1  0.100877  0  0.119475  0.131692  0  0.971772  0
H  H35  1  0.07610446  0.30401905  0.95124724  1  0.10094  0  0.119469  0.131676  0  0.971781  0
C  C36  1  0.40704241  0.54773671  0.33307957  1  0.412226  0  0.045386  0.101914  0  3.935741  0
C  C37  1  0.40703302  0.95227087  0.83307757  1  0.412583  0  0.045375  0.101934  0  3.936138  0
C  C38  1  0.59296715  0.45226402  0.66691907  1  0.412631  0  0.045475  0.10197  0  3.935733  0
C  C39  1  0.59296347  0.04773393  0.16692290  1  0.412561  0  0.045393  0.10187  0  3.93603  0
C  C40  1  0.49039925  0.49931050  0.37824354  1  0.055066  0  -0.077607  -0.142408  0  3.90878  0
C  C41  1  0.49039150  0.00070146  0.87824026  1  0.054792  0  -0.077606  -0.142481  0  3.908748  0
C  C42  1  0.50961030  0.50068921  0.62175509  1  0.05507  0  -0.077638  -0.142523  0  3.908896  0
C  C43  1  0.50961015  0.99930130  0.12176028  1  0.05487  0  -0.077725  -0.142646  0  3.908853  0
C  C44  1  0.59197438  0.58901319  0.40848298  1  -0.008927  0  0.008601  0.04349  0  4.034778  0
C  C45  1  0.59194998  0.91099116  0.90848249  1  -0.008004  0  0.008598  0.043473  0  4.034804  0
C  C46  1  0.40803507  0.41098856  0.59151685  1  -0.00888  0  0.008585  0.043537  0  4.034665  0
C  C47  1  0.40804651  0.08900855  0.09151798  1  -0.008459  0  0.008662  0.043588  0  4.034692  0
C  C48  1  0.60921252  0.72354054  0.39115780  1  -0.005247  0  -0.074566  -0.145639  0  3.920409  0
C  C49  1  0.60918185  0.77646731  0.89115915  1  -0.006243  0  -0.074566  -0.145565  0  3.920772  0
C  C50  1  0.39079442  0.27645918  0.60884120  1  -0.005268  0  -0.074559  -0.145622  0  3.920411  0
C  C51  1  0.39080690  0.22353343  0.10884123  1  -0.005579  0  -0.074545  -0.145613  0  3.920703  0
C  C52  1  0.52059065  0.76345128  0.34536530  1  0.512109  0  0.05595  0.110994  0  3.923362  0
C  C53  1  0.52056691  0.73655529  0.84536842  1  0.512136  0  0.055942  0.11092  0  3.923512  0
C  C54  1  0.47942026  0.23654844  0.65463256  1  0.512153  0  0.055924  0.110858  0  3.923481  0
C  C55  1  0.47941794  0.26344645  0.15463231  1  0.512036  0  0.055969  0.110934  0  3.923357  0
C  C56  1  0.67456635  0.53856712  0.45646846  1  1.013394  0  0.222902  0.300755  0  3.987333  0
C  C57  1  0.67454785  0.96143535  0.95646911  1  1.014664  0  0.222873  0.300725  0  3.987421  0
C  C58  1  0.32544182  0.46143361  0.54353136  1  1.013428  0  0.222885  0.30071  0  3.987213  0
C  C59  1  0.32545115  0.03856029  0.04353219  1  1.014941  0  0.222932  0.300787  0  3.987168  0
C  C60  1  0.81987260  0.54001183  0.52940779  1  1.041281  0  0.219939  0.289512  0  3.991955  0
C  C61  1  0.81985140  0.95998542  0.02941004  1  1.041533  0  0.219905  0.289358  0  3.992062  0
C  C62  1  0.18013814  0.45999094  0.47059206  1  1.04169  0  0.219986  0.289398  0  3.991942  0
C  C63  1  0.18015418  0.04000514  0.97058975  1  1.042163  0  0.21985  0.289162  0  3.992465  0
C  C64  1  0.91954048  0.59271791  0.57397188  1  0.018361  0  0.007458  0.039684  0  4.032883  0
C  C65  1  0.91951981  0.90728176  0.07397267  1  0.018231  0  0.007432  0.039635  0  4.033136  0
C  C66  1  0.08046379  0.40728384  0.42602828  1  0.018232  0  0.00745  0.039651  0  4.032931  0
C  C67  1  0.08048323  0.09271185  0.92602668  1  0.018201  0  0.007359  0.039462  0  4.033452  0
C  C68  1  0.97429458  0.50236495  0.61386764  1  -0.006895  0  -0.077343  -0.148956  0  3.914562  0
C  C69  1  0.97427690  0.99763369  0.11386626  1  -0.006865  0  -0.077312  -0.148772  0  3.914354  0
C  C70  1  0.02571090  0.49763679  0.38613333  1  -0.007138  0  -0.077352  -0.148909  0  3.914508  0
C  C71  1  0.02573394  0.00235993  0.88613239  1  -0.006675  0  -0.07729  -0.148622  0  3.914409  0
C  C72  1  0.07000467  0.55263518  0.65651456  1  0.462584  0  0.047778  0.100027  0  3.920105  0
C  C73  1  0.07000416  0.94737045  0.15651390  1  0.46276  0  0.0478  0.099955  0  3.919948  0
C  C74  1  0.92999039  0.44736860  0.34348748  1  0.462452  0  0.047847  0.100127  0  3.92009  0
C  C75  1  0.93000142  0.05262215  0.84348588  1  0.46296  0  0.047819  0.099904  0  3.919979  0
C  C76  1  0.05872023  0.77192353  0.62311860  1  0.547585  0  0.05683  0.10706  0  3.93522  0
C  C77  1  0.05871864  0.72807943  0.12311805  1  0.54798  0  0.056929  0.107361  0  3.935128  0
C  C78  1  0.94127487  0.22807923  0.37688305  1  0.547497  0  0.056899  0.107154  0  3.935142  0
C  C79  1  0.94128179  0.27191114  0.87688167  1  0.548044  0  0.056912  0.107208  0  3.935281  0
C  C80  1  0.96303390  0.73055098  0.57888721  1  -0.015275  0  -0.072828  -0.143563  0  3.917921  0
C  C81  1  0.96301353  0.76944502  0.07888794  1  -0.015254  0  -0.07277  -0.143541  0  3.91797  0
C  C82  1  0.03696893  0.26944975  0.42111453  1  -0.014628  0  -0.072841  -0.143515  0  3.917993  0
C  C83  1  0.03698557  0.23054758  0.92111217  1  -0.014593  0  -0.072794  -0.143439  0  3.917977  0
C  C84  1  0.89682124  0.92619862  0.28582720  1  0.555027  0  0.147007  0.278998  0  4.312447  0
C  C85  1  0.89681196  0.57379457  0.78582571  1  0.555399  0  0.147125  0.279162  0  4.312479  0
C  C86  1  0.10316365  0.07381227  0.71417314  1  0.554482  0  0.146981  0.279075  0  4.312509  0
C  C87  1  0.10318585  0.42618380  0.21417438  1  0.555007  0  0.147016  0.279035  0  4.312595  0
C  C88  1  0.62364892  0.56141102  0.21761594  1  0.590832  0  0.14965  0.282013  0  4.295927  0
C  C89  1  0.62363886  0.93859350  0.71761913  1  0.590768  0  0.149766  0.282118  0  4.295593  0
C  C90  1  0.37635199  0.43860090  0.78237822  1  0.5903  0  0.149794  0.282045  0  4.295534  0
C  C91  1  0.37634592  0.06141740  0.28238240  1  0.590831  0  0.14971  0.282039  0  4.295843  0
S  S92  1  0.98281413  0.78487327  0.30637222  1  0.063368  0  -0.160411  -0.322463  0  2.487747  0
S  S93  1  0.98279508  0.71511951  0.80637664  1  0.063372  0  -0.160503  -0.322542  0  2.487636  0
S  S94  1  0.01718786  0.21513356  0.69362434  1  0.063346  0  -0.160408  -0.322471  0  2.48801  0
S  S95  1  0.01720752  0.28485784  0.19362788  1  0.063302  0  -0.160474  -0.322559  0  2.487962  0
S  S96  1  0.55874406  0.68716240  0.18039534  1  0.031334  0  -0.16459  -0.323177  0  2.426743  0
S  S97  1  0.55872826  0.81284808  0.68039598  1  0.031473  0  -0.164645  -0.323246  0  2.426505  0
S  S98  1  0.44124754  0.31285459  0.81960190  1  0.031808  0  -0.164736  -0.323337  0  2.426756  0
S  S99  1  0.44124788  0.18717197  0.31960108  1  0.031249  0  -0.164632  -0.323285  0  2.426806  0
N  N100  1  0.41967399  0.67811151  0.31728944  1  -1.217214  0  -0.320373  -0.222467  0  3.483323  0
N  N101  1  0.41965972  0.82190051  0.81728888  1  -1.21766  0  -0.320385  -0.222478  0  3.483434  0
N  N102  1  0.58033431  0.32189024  0.68270879  1  -1.217583  0  -0.320445  -0.222463  0  3.483519  0
N  N103  1  0.58033164  0.17810327  0.18271113  1  -1.217668  0  -0.320393  -0.2224  0  3.483287  0
N  N104  1  0.67370390  0.41349355  0.47479246  1  -0.658315  0  -0.221865  -0.244249  0  3.176054  0
N  N105  1  0.67369997  0.08650774  0.97479140  1  -0.658464  0  -0.221784  -0.244145  0  3.17611  0
N  N106  1  0.32630290  0.58650820  0.52520813  1  -0.658455  0  -0.22181  -0.244186  0  3.175978  0
N  N107  1  0.32630548  0.91348588  0.02520997  1  -0.658697  0  -0.221776  -0.244254  0  3.176286  0
N  N108  1  0.76800103  0.41431505  0.52168526  1  -0.691858  0  -0.219086  -0.238263  0  3.180254  0
N  N109  1  0.76799321  0.08568696  0.02168458  1  -0.692034  0  -0.219173  -0.238317  0  3.180187  0
N  N110  1  0.23200713  0.58568771  0.47831456  1  -0.692091  0  -0.21916  -0.238278  0  3.180164  0
N  N111  1  0.23201621  0.91430564  0.97831564  1  -0.692037  0  -0.219059  -0.238078  0  3.180306  0
N  N112  1  0.11176338  0.68491597  0.66114417  1  -1.226815  0  -0.317537  -0.221185  0  3.47733  0
N  N113  1  0.11176617  0.81508597  0.16113950  1  -1.227404  0  -0.317602  -0.221337  0  3.477312  0
N  N114  1  0.88822904  0.31508984  0.33885864  1  -1.227048  0  -0.317654  -0.221358  0  3.477302  0
N  N115  1  0.88823555  0.18490460  0.83886024  1  -1.227829  0  -0.317591  -0.221172  0  3.477269  0
N  N116  1  0.83046903  0.02812764  0.27110232  1  -1.303207  0  -0.397556  -0.478054  0  3.184025  0
N  N117  1  0.83047202  0.47186517  0.77109525  1  -1.303573  0  -0.397596  -0.478189  0  3.184227  0
N  N118  1  0.16950120  0.97187614  0.72890341  1  -1.30276  0  -0.397541  -0.478148  0  3.183791  0
N  N119  1  0.16953268  0.52811421  0.22889975  1  -1.303157  0  -0.397493  -0.47798  0  3.183894  0
N  N120  1  0.66910341  0.47029368  0.24512219  1  -1.294909  0  -0.391912  -0.468479  0  3.17659  0
N  N121  1  0.66909139  0.02970594  0.74512912  1  -1.295075  0  -0.392002  -0.468536  0  3.176551  0
N  N122  1  0.33089895  0.52971519  0.75487000  1  -1.294819  0  -0.391926  -0.468423  0  3.176339  0
N  N123  1  0.33089950  0.97029682  0.25487645  1  -1.294894  0  -0.39197  -0.468427  0  3.176386  0
O  O124  1  0.76542916  0.62470070  0.48924538  1  -1.048707  0  -0.094335  -0.168713  0  2.489376  0
O  O125  1  0.76539608  0.87529716  0.98924885  1  -1.04984  0  -0.094286  -0.168625  0  2.48956  0
O  O126  1  0.23458162  0.37530104  0.51075407  1  -1.048707  0  -0.094338  -0.168617  0  2.489434  0
O  O127  1  0.23460306  0.12469544  0.01075086  1  -1.050409  0  -0.094355  -0.168568  0  2.489549  0
