# generated using pymatgen
data_CdH19C31N5O4
_symmetry_space_group_name_H-M   'P 1'
_cell_length_a   10.80843612
_cell_length_b   12.28688408
_cell_length_c   12.21513656
_cell_angle_alpha   59.49546392
_cell_angle_beta   82.71162487
_cell_angle_gamma   78.10572515
_symmetry_Int_Tables_number   1
_chemical_formula_structural   CdH19C31N5O4
_chemical_formula_sum   'Cd2 H38 C62 N10 O8'
_cell_volume   1367.18049088
_cell_formula_units_Z   2
loop_
 _symmetry_equiv_pos_site_id
 _symmetry_equiv_pos_as_xyz
  1  'x, y, z'
loop_
 _atom_site_type_symbol
 _atom_site_label
 _atom_site_symmetry_multiplicity
 _atom_site_fract_x
 _atom_site_fract_y
 _atom_site_fract_z
 _atom_site_occupancy
 _atom_site_hle17_bader_spin_density
 _atom_site_hle17_ddec_charge
 _atom_site_hle17_ddec_spin_density
 _atom_site_hle17_ddec_sum_bond_order
 _atom_site_hle17_magmom
 _atom_site_hse06_10hf_bader_spin_density
 _atom_site_hse06_10hf_ddec_charge
 _atom_site_hse06_10hf_ddec_spin_density
 _atom_site_hse06_10hf_ddec_sum_bond_order
 _atom_site_hse06_10hf_magmom
 _atom_site_hse06_bader_spin_density
 _atom_site_hse06_ddec_charge
 _atom_site_hse06_ddec_spin_density
 _atom_site_hse06_ddec_sum_bond_order
 _atom_site_hse06_magmom
 _atom_site_pbe_bader_spin_density
 _atom_site_pbe_cm5_charge
 _atom_site_pbe_ddec_charge
 _atom_site_pbe_ddec_spin_density
 _atom_site_pbe_ddec_sum_bond_order
 _atom_site_pbe_magmom
Cd  Cd0  1  0.28194143  0.49691571  0.93541120  1  0  1.097181  0  1.677292  0  0  0.906849  0  2.123356  0  0  0.96482  0  2.072674  0  0  0.773346  0.866121  0  2.157515  0
Cd  Cd1  1  0.71805822  0.50308158  0.06459089  1  0  1.097181  0  1.677256  0  0  0.906847  0  2.123317  0  0  0.964821  0  2.072637  0  0  0.77334  0.866115  0  2.157475  0
H  H2  1  0.10758136  0.14947400  0.72018926  1  0  0.101784  0  0.96055  0  0  0.112176  0  1.021208  0  0  0.114676  0  1.020618  0  0  0.104209  0.110387  0  1.021697  0
H  H3  1  0.89242077  0.85052523  0.27980913  1  0  0.101754  0  0.960559  0  0  0.112146  0  1.021226  0  0  0.114645  0  1.020635  0  0  0.104195  0.11036  0  1.021717  0
H  H4  1  0.30793710  0.00006229  0.80360280  1  0  0.086576  0  0.991979  0  0  0.098203  0  1.052491  0  0  0.099608  0  1.053549  0  0  0.098249  0.097172  0  1.051832  0
H  H5  1  0.69206613  0.99993596  0.19639842  1  0  0.086548  0  0.992024  0  0  0.098143  0  1.052568  0  0  0.099549  0  1.053625  0  0  0.098232  0.097118  0  1.051909  0
H  H6  1  0.45445021  0.03218623  0.91755800  1  0  0.082117  0  0.969089  0  0  0.096679  0  1.02452  0  0  0.098894  0  1.023903  0  0  0.098817  0.09503  0  1.025133  0
H  H7  1  0.54555068  0.96781489  0.08244204  1  0  0.08214  0  0.969044  0  0  0.096702  0  1.024471  0  0  0.098917  0  1.023855  0  0  0.09884  0.095056  0  1.025088  0
H  H8  1  0.40575171  0.22053737  0.95596714  1  0  0.119475  0  0.963388  0  0  0.128017  0  1.024257  0  0  0.131634  0  1.022041  0  0  0.105361  0.125388  0  1.025925  0
H  H9  1  0.59424825  0.77946375  0.04403299  1  0  0.119476  0  0.963428  0  0  0.12801  0  1.024309  0  0  0.131627  0  1.022092  0  0  0.10535  0.125374  0  1.025977  0
H  H10  1  0.00647548  0.53275257  0.79326327  1  0  0.122467  0  0.899268  0  0  0.136344  0  0.952397  0  0  0.138985  0  0.948379  0  0  0.153251  0.13435  0  0.955266  0
H  H11  1  0.99352308  0.46724570  0.20673681  1  0  0.122558  0  0.899203  0  0  0.136396  0  0.952352  0  0  0.139038  0  0.948342  0  0  0.153261  0.134395  0  0.955223  0
H  H12  1  0.80664679  0.48109679  0.78489232  1  0  0.149228  0  0.958782  0  0  0.153132  0  1.028548  0  0  0.156949  0  1.025682  0  0  0.119957  0.150167  0  1.030903  0
H  H13  1  0.19335255  0.51890244  0.21510719  1  0  0.149244  0  0.95875  0  0  0.15316  0  1.028494  0  0  0.156977  0  1.025629  0  0  0.119969  0.150197  0  1.030842  0
H  H14  1  0.67036482  0.48272482  0.46617032  1  0  0.086204  0  0.955525  0  0  0.090686  0  1.025437  0  0  0.093282  0  1.024436  0  0  0.11272  0.088779  0  1.026285  0
H  H15  1  0.32963406  0.51727728  0.53382780  1  0  0.086229  0  0.955496  0  0  0.090702  0  1.0254  0  0  0.093298  0  1.024399  0  0  0.11273  0.088787  0  1.026281  0
H  H16  1  0.04569764  0.33456255  0.55983846  1  0  0.086714  0  0.938355  0  0  0.096479  0  0.997613  0  0  0.099146  0  0.995944  0  0  0.116497  0.094586  0  0.998902  0
H  H17  1  0.95430092  0.66543572  0.44016162  1  0  0.08673  0  0.938327  0  0  0.096496  0  0.997586  0  0  0.099162  0  0.995918  0  0  0.116503  0.094603  0  0.99888  0
H  H18  1  0.60292285  0.70917457  0.37601791  1  0  0.098628  0  0.991645  0  0  0.104782  0  1.061776  0  0  0.106769  0  1.062772  0  0  0.097291  0.103364  0  1.061059  0
H  H19  1  0.39707663  0.29082368  0.62398454  1  0  0.098636  0  0.991633  0  0  0.104799  0  1.061753  0  0  0.106786  0  1.062739  0  0  0.097308  0.103385  0  1.061028  0
H  H20  1  0.41169174  0.86729931  0.27507738  1  0  0.082463  0  0.962333  0  0  0.094142  0  1.023065  0  0  0.096457  0  1.022518  0  0  0.096185  0.092428  0  1.0236  0
H  H21  1  0.58830837  0.13270084  0.72492405  1  0  0.082443  0  0.962372  0  0  0.094104  0  1.023124  0  0  0.096419  0  1.022578  0  0  0.096163  0.09239  0  1.023655  0
H  H22  1  0.21820458  0.88334432  0.40166149  1  0  0.087181  0  0.942032  0  0  0.101889  0  0.994829  0  0  0.104072  0  0.99471  0  0  0.100465  0.100327  0  0.995013  0
H  H23  1  0.78179367  0.11665585  0.59833931  1  0  0.087201  0  0.942046  0  0  0.101912  0  0.994836  0  0  0.104095  0  0.994716  0  0  0.100474  0.10035  0  0.995022  0
H  H24  1  0.21058132  0.74035323  0.63818332  1  0  0.117756  0  0.942839  0  0  0.127524  0  1.002419  0  0  0.130647  0  1.000361  0  0  0.10854  0.125283  0  1.00391  0
H  H25  1  0.78941786  0.25964693  0.36181821  1  0  0.117797  0  0.942801  0  0  0.127549  0  1.002393  0  0  0.130671  0  1.000336  0  0  0.108545  0.125304  0  1.003884  0
H  H26  1  0.59268368  0.42480983  0.85817949  1  0  0.124111  0  0.930676  0  0  0.132449  0  0.993499  0  0  0.135983  0  0.988361  0  0  0.145453  0.129789  0  0.997232  0
H  H27  1  0.40731643  0.57519033  0.14182194  1  0  0.124168  0  0.930598  0  0  0.132449  0  0.993487  0  0  0.135984  0  0.988347  0  0  0.145455  0.129792  0  0.997211  0
H  H28  1  0.20912706  0.80454335  0.07078602  1  0  0.101133  0  0.944508  0  0  0.111589  0  1.006889  0  0  0.115231  0  1.00422  0  0  0.102445  0.109016  0  1.008742  0
H  H29  1  0.79087399  0.19545685  0.92921036  1  0  0.101147  0  0.944493  0  0  0.111578  0  1.006905  0  0  0.115221  0  1.004236  0  0  0.102443  0.109005  0  1.008759  0
H  H30  1  0.18839775  0.94678461  0.16451290  1  0  0.08935  0  0.952678  0  0  0.10252  0  1.011329  0  0  0.10528  0  1.01058  0  0  0.099572  0.10056  0  1.011903  0
H  H31  1  0.81160330  0.05321558  0.83548513  1  0  0.089354  0  0.952675  0  0  0.102525  0  1.01133  0  0  0.105282  0  1.010577  0  0  0.099579  0.100566  0  1.0119  0
H  H32  1  0.06986679  0.13471403  0.18375677  1  0  0.108885  0  0.938328  0  0  0.119364  0  0.995914  0  0  0.123372  0  0.993029  0  0  0.105714  0.116431  0  0.998096  0
H  H33  1  0.93013239  0.86528617  0.81624064  1  0  0.108867  0  0.938267  0  0  0.119332  0  0.995875  0  0  0.12334  0  0.992991  0  0  0.105692  0.116396  0  0.998055  0
H  H34  1  0.26790205  0.15154333  0.39861386  1  0  0.101012  0  0.939983  0  0  0.111167  0  1.000914  0  0  0.115374  0  0.997395  0  0  0.101881  0.108127  0  1.003445  0
H  H35  1  0.73209775  0.84845874  0.60138663  1  0  0.101062  0  0.939934  0  0  0.111208  0  1.000869  0  0  0.115417  0  0.997349  0  0  0.10189  0.108164  0  1.003411  0
H  H36  1  0.26542382  0.97997804  0.62635972  1  0  0.088463  0  0.937978  0  0  0.104093  0  0.98939  0  0  0.106769  0  0.988562  0  0  0.101421  0.102212  0  0.989965  0
H  H37  1  0.73457629  0.02002213  0.37364088  1  0  0.088465  0  0.937975  0  0  0.104099  0  0.989385  0  0  0.106771  0  0.98856  0  0  0.101424  0.102218  0  0.98996  0
H  H38  1  0.38300219  0.80232333  0.81755270  1  0  0.104145  0  0.96282  0  0  0.110802  0  1.030664  0  0  0.114286  0  1.02824  0  0  0.100155  0.108201  0  1.032574  0
H  H39  1  0.61699777  0.19767779  0.18244743  1  0  0.104119  0  0.962872  0  0  0.110813  0  1.03066  0  0  0.114295  0  1.028237  0  0  0.100163  0.108215  0  1.032574  0
C  C40  1  0.14734395  0.27295854  0.78715927  1  0  0.101779  0  3.759406  0  0  0.090784  0  4.007862  0  0  0.094641  0  4.030492  0  0  0.093217  0.088161  0  3.99261  0
C  C41  1  0.85265601  0.72704260  0.21283921  1  0  0.101659  0  3.759479  0  0  0.090707  0  4.007934  0  0  0.094563  0  4.030562  0  0  0.093172  0.088079  0  3.992687  0
C  C42  1  0.17281782  0.16813187  0.76725767  1  0  -0.153362  0  3.775865  0  0  -0.173622  0  4.033351  0  0  -0.177108  0  4.053989  0  0  -0.095758  -0.171123  0  4.01929  0
C  C43  1  0.82718525  0.83186735  0.23274145  1  0  -0.153255  0  3.77594  0  0  -0.17352  0  4.03341  0  0  -0.177006  0  4.054047  0  0  -0.095692  -0.171029  0  4.019367  0
C  C44  1  0.28462360  0.08332483  0.81624328  1  0  -0.058759  0  3.782304  0  0  -0.075096  0  4.03386  0  0  -0.076524  0  4.057017  0  0  -0.093574  -0.074087  0  4.018084  0
C  C45  1  0.71537962  0.91667342  0.18375712  1  0  -0.058719  0  3.782391  0  0  -0.07502  0  4.033944  0  0  -0.076446  0  4.057101  0  0  -0.093563  -0.074013  0  4.018181  0
C  C46  1  0.36818543  0.10188318  0.88224752  1  0  -0.080605  0  3.79353  0  0  -0.095856  0  4.046521  0  0  -0.098687  0  4.068898  0  0  -0.09689  -0.09375  0  4.031197  0
C  C47  1  0.63181748  0.89811698  0.11775277  1  0  -0.080584  0  3.793609  0  0  -0.095844  0  4.046591  0  0  -0.098676  0  4.068968  0  0  -0.096888  -0.093745  0  4.031278  0
C  C48  1  0.34295581  0.20585267  0.90306964  1  0  -0.141573  0  3.728166  0  0  -0.158385  0  3.974377  0  0  -0.161115  0  3.994591  0  0  -0.091198  -0.156494  0  3.960692  0
C  C49  1  0.65704399  0.79414940  0.09693086  1  0  -0.14167  0  3.728319  0  0  -0.158473  0  3.97453  0  0  -0.161204  0  3.994744  0  0  -0.091225  -0.156579  0  3.960845  0
C  C50  1  0.23044417  0.29160928  0.85475021  1  0  0.148705  0  3.819637  0  0  0.145721  0  4.065893  0  0  0.148775  0  4.090697  0  0  0.086466  0.143591  0  4.04917  0
C  C51  1  0.76955688  0.70839092  0.14524699  1  0  0.148777  0  3.819623  0  0  0.145785  0  4.065866  0  0  0.148842  0  4.090669  0  0  0.086467  0.143662  0  4.049132  0
C  C52  1  0.06933303  0.44625598  0.80535307  1  0  0.236963  0  3.601958  0  0  0.168264  0  3.879691  0  0  0.187115  0  3.887864  0  0  0.176796  0.156138  0  3.873473  0
C  C53  1  0.93066724  0.55374324  0.19464634  1  0  0.236867  0  3.60194  0  0  0.168245  0  3.879668  0  0  0.187089  0  3.887849  0  0  0.176789  0.15612  0  3.873448  0
C  C54  1  0.93980973  0.40100648  0.68418539  1  0  0.161163  0  3.783103  0  0  0.155256  0  4.034643  0  0  0.158038  0  4.057838  0  0  0.104265  0.153136  0  4.019228  0
C  C55  1  0.06019070  0.59899178  0.31581532  1  0  0.161178  0  3.783011  0  0  0.155327  0  4.034532  0  0  0.15811  0  4.057726  0  0  0.104295  0.15321  0  4.019113  0
C  C56  1  0.82246529  0.45949412  0.70747947  1  0  -0.178333  0  3.647809  0  0  -0.211881  0  3.903027  0  0  -0.213775  0  3.920577  0  0  -0.067796  -0.210402  0  3.891395  0
C  C57  1  0.17753591  0.54050508  0.29252232  1  0  -0.178322  0  3.647777  0  0  -0.211889  0  3.902982  0  0  -0.21378  0  3.920523  0  0  -0.067803  -0.210413  0  3.891335  0
C  C58  1  0.72401033  0.48898392  0.62817311  1  0  0.155566  0  3.783025  0  0  0.152381  0  4.028022  0  0  0.155082  0  4.050672  0  0  0.103049  0.150165  0  4.012924  0
C  C59  1  0.27598993  0.51101529  0.37182795  1  0  0.15552  0  3.782926  0  0  0.152421  0  4.027925  0  0  0.155124  0  4.050572  0  0  0.10303  0.150205  0  4.012827  0
C  C60  1  0.74644843  0.46190280  0.52821192  1  0  0.029844  0  3.712848  0  0  -0.004133  0  3.98142  0  0  1.1e-05  0  3.997228  0  0  0.040941  -0.007124  0  3.97146  0
C  C61  1  0.25355044  0.53809929  0.47178702  1  0  0.029802  0  3.712756  0  0  -0.004166  0  3.981324  0  0  -2.3e-05  0  3.997133  0  0  0.04091  -0.007161  0  3.971367  0
C  C62  1  0.95403429  0.37678843  0.58230211  1  0  0.020488  0  3.728853  0  0  -0.012589  0  3.996067  0  0  -0.008691  0  4.011407  0  0  0.039322  -0.015436  0  3.986656  0
C  C63  1  0.04596598  0.62321079  0.41769813  1  0  0.020444  0  3.728813  0  0  -0.012649  0  3.996042  0  0  -0.008752  0  4.011381  0  0  0.039288  -0.0155  0  3.986641  0
C  C64  1  0.51203162  0.63421235  0.56468000  1  0  0.099172  0  3.764994  0  0  0.089299  0  4.009741  0  0  0.093255  0  4.031173  0  0  0.090956  0.086402  0  3.995345  0
C  C65  1  0.48796756  0.36578781  0.43532153  1  0  0.099176  0  3.764891  0  0  0.08933  0  4.009695  0  0  0.093283  0  4.031131  0  0  0.090982  0.086428  0  3.995306  0
C  C66  1  0.51808611  0.71328882  0.43305708  1  0  -0.155558  0  3.773453  0  0  -0.175469  0  4.030464  0  0  -0.178742  0  4.051714  0  0  -0.102086  -0.172925  0  4.015883  0
C  C67  1  0.48191509  0.28671038  0.56694471  1  0  -0.155568  0  3.773449  0  0  -0.175473  0  4.03046  0  0  -0.178741  0  4.051716  0  0  -0.102104  -0.172932  0  4.015873  0
C  C68  1  0.40987202  0.80232878  0.37738479  1  0  -0.068019  0  3.78542  0  0  -0.084686  0  4.042148  0  0  -0.086625  0  4.065542  0  0  -0.096667  -0.083468  0  4.026398  0
C  C69  1  0.59012638  0.19767041  0.62261812  1  0  -0.067982  0  3.785313  0  0  -0.084644  0  4.042047  0  0  -0.086582  0  4.065442  0  0  -0.096638  -0.083428  0  4.026298  0
C  C70  1  0.30021182  0.81193981  0.44962470  1  0  -0.071937  0  3.787216  0  0  -0.0905  0  4.04562  0  0  -0.093374  0  4.068831  0  0  -0.096647  -0.088419  0  4.029873  0
C  C71  1  0.69978860  0.18805842  0.55037930  1  0  -0.0719  0  3.786995  0  0  -0.090454  0  4.045379  0  0  -0.093328  0  4.068589  0  0  -0.096619  -0.088374  0  4.029633  0
C  C72  1  0.29438629  0.73307329  0.58086898  1  0  -0.120566  0  3.730082  0  0  -0.140713  0  3.985142  0  0  -0.142637  0  4.00453  0  0  -0.082698  -0.139214  0  3.971957  0
C  C73  1  0.70561289  0.26692687  0.41913254  1  0  -0.120696  0  3.730067  0  0  -0.140853  0  3.985139  0  0  -0.142778  0  4.004527  0  0  -0.082761  -0.139344  0  3.971944  0
C  C74  1  0.40228131  0.64385293  0.63812251  1  0  0.141915  0  3.824951  0  0  0.139171  0  4.07263  0  0  0.142233  0  4.096911  0  0  0.086516  0.137035  0  4.056202  0
C  C75  1  0.59771818  0.35614531  0.36188077  1  0  0.14198  0  3.824959  0  0  0.139303  0  4.07255  0  0  0.142364  0  4.096833  0  0  0.086578  0.137159  0  4.056129  0
C  C76  1  0.54398047  0.49840572  0.77169641  1  0  0.222957  0  3.598992  0  0  0.159474  0  3.868307  0  0  0.177512  0  3.877415  0  0  0.169344  0.147906  0  3.86149  0
C  C77  1  0.45601979  0.50159348  0.22830547  1  0  0.222907  0  3.599029  0  0  0.159534  0  3.868381  0  0  0.177573  0  3.877489  0  0  0.169345  0.147967  0  3.861556  0
C  C78  1  0.14750169  0.71354126  0.93029027  1  0  0.61428  0  3.948793  0  0  0.567849  0  4.235793  0  0  0.601884  0  4.231311  0  0  0.185443  0.544882  0  4.237787  0
C  C79  1  0.85250045  0.28645799  0.06970647  1  0  0.614318  0  3.948701  0  0  0.567893  0  4.235703  0  0  0.601928  0  4.231215  0  0  0.185391  0.544925  0  4.237708  0
C  C80  1  0.07725747  0.82579129  0.94202009  1  0  -0.052704  0  3.754436  0  0  -0.030774  0  3.993202  0  0  -0.038489  0  4.016212  0  0  -0.020697  -0.0258  0  3.977619  0
C  C81  1  0.92274187  0.17420796  0.05797779  1  0  -0.052733  0  3.754584  0  0  -0.030789  0  3.993335  0  0  -0.038502  0  4.016342  0  0  -0.020668  -0.025817  0  3.977764  0
C  C82  1  0.12183840  0.85957709  0.02025268  1  0  -0.107727  0  3.702245  0  0  -0.142819  0  3.957957  0  0  -0.141721  0  3.97563  0  0  -0.082657  -0.143236  0  3.945773  0
C  C83  1  0.87816374  0.14042214  0.97974571  1  0  -0.107635  0  3.702397  0  0  -0.142731  0  3.958077  0  0  -0.141632  0  3.97575  0  0  -0.082598  -0.143143  0  3.945898  0
C  C84  1  0.05678307  0.96400759  0.03458953  1  0  0.05203  0  3.802963  0  0  0.070094  0  4.028147  0  0  0.069736  0  4.052161  0  0  -0.00825  0.07031  0  4.011804  0
C  C85  1  0.94321597  0.03599359  0.96540577  1  0  0.051922  0  3.803111  0  0  0.070059  0  4.028236  0  0  0.069697  0  4.052249  0  0  -0.008286  0.070266  0  4.011912  0
C  C86  1  0.10085919  0.00083573  0.11391197  1  0  -0.114424  0  3.754927  0  0  -0.134293  0  4.007342  0  0  -0.137679  0  4.029584  0  0  -0.089682  -0.131948  0  3.99217  0
C  C87  1  0.89914108  0.99916351  0.88608580  1  0  -0.114461  0  3.755004  0  0  -0.134355  0  4.007408  0  0  -0.137731  0  4.029642  0  0  -0.089739  -0.132014  0  3.992238  0
C  C88  1  0.03595013  0.10365220  0.12535470  1  0  -0.076738  0  3.743905  0  0  -0.101864  0  3.995532  0  0  -0.102365  0  4.016096  0  0  -0.088207  -0.101386  0  3.981576  0
C  C89  1  0.96404998  0.89634800  0.87464261  1  0  -0.076736  0  3.743844  0  0  -0.101838  0  3.995479  0  0  -0.102338  0  4.016042  0  0  -0.088186  -0.101356  0  3.981513  0
C  C90  1  0.36924397  0.29138461  0.16465732  1  0  0.618022  0  3.953619  0  0  0.572093  0  4.240735  0  0  0.60602  0  4.236108  0  0  0.18283  0.549185  0  4.242855  0
C  C91  1  0.63075598  0.70861650  0.83534447  1  0  0.617989  0  3.953664  0  0  0.572031  0  4.240809  0  0  0.605955  0  4.236186  0  0  0.182804  0.549125  0  4.242925  0
C  C92  1  0.43545425  0.18268672  0.28044063  1  0  -0.052642  0  3.76714  0  0  -0.0303  0  4.003157  0  0  -0.03777  0  4.026374  0  0  -0.021932  -0.025535  0  3.987553  0
C  C93  1  0.56454649  0.81731534  0.71956059  1  0  -0.05269  0  3.767221  0  0  -0.030302  0  4.003185  0  0  -0.037766  0  4.026398  0  0  -0.021965  -0.025532  0  3.987573  0
C  C94  1  0.36971278  0.12080981  0.39424411  1  0  -0.111064  0  3.703077  0  0  -0.143475  0  3.951817  0  0  -0.143136  0  3.970045  0  0  -0.082512  -0.143411  0  3.9393  0
C  C95  1  0.63028733  0.87919034  0.60575731  1  0  -0.111147  0  3.703252  0  0  -0.143566  0  3.951972  0  0  -0.143229  0  3.970199  0  0  -0.082535  -0.143508  0  3.93947  0
C  C96  1  0.43287184  0.01906790  0.50385732  1  0  0.061583  0  3.786201  0  0  0.078238  0  4.012657  0  0  0.077793  0  4.037598  0  0  -0.0049  0.078551  0  3.995672  0
C  C97  1  0.56713029  0.98093129  0.49614519  1  0  0.061656  0  3.78628  0  0  0.078328  0  4.012712  0  0  0.077883  0  4.037653  0  0  -0.004892  0.078639  0  3.995727  0
C  C98  1  0.36791288  0.95272506  0.62141130  1  0  -0.112118  0  3.762567  0  0  -0.129734  0  4.012547  0  0  -0.132804  0  4.033887  0  0  -0.088271  -0.127592  0  3.997917  0
C  C99  1  0.63208723  0.04727511  0.37858930  1  0  -0.112137  0  3.762546  0  0  -0.129764  0  4.012525  0  0  -0.132831  0  4.033864  0  0  -0.088265  -0.127613  0  3.997892  0
C  C100  1  0.43184408  0.85503710  0.72688170  1  0  -0.079378  0  3.74469  0  0  -0.104533  0  3.998753  0  0  -0.104904  0  4.018762  0  0  -0.09148  -0.104124  0  3.985291  0
C  C101  1  0.56815603  0.14496306  0.27311972  1  0  -0.079385  0  3.744725  0  0  -0.104542  0  3.998782  0  0  -0.104914  0  4.018796  0  0  -0.091511  -0.104143  0  3.985331  0
N  N102  1  0.04480122  0.37295317  0.75753700  1  0  -0.14973  0  3.552495  0  0  -0.068372  0  3.774207  0  0  -0.085797  0  3.799133  0  0  -0.220318  -0.056564  0  3.756965  0
N  N103  1  0.95519780  0.62704798  0.24246159  1  0  -0.149742  0  3.552593  0  0  -0.068487  0  3.77437  0  0  -0.085911  0  3.799295  0  0  -0.220358  -0.056679  0  3.757126  0
N  N104  1  0.17824503  0.40062996  0.86347021  1  0  -0.412123  0  3.186672  0  0  -0.343048  0  3.473192  0  0  -0.365794  0  3.487783  0  0  -0.342122  -0.327615  0  3.462635  0
N  N105  1  0.82175509  0.59937022  0.13652874  1  0  -0.412105  0  3.18669  0  0  -0.343028  0  3.473188  0  0  -0.365776  0  3.487784  0  0  -0.342107  -0.327603  0  3.462632  0
N  N106  1  0.85968821  0.40726837  0.50581566  1  0  -0.269688  0  3.140072  0  0  -0.234975  0  3.414454  0  0  -0.245093  0  3.431747  0  0  -0.317193  -0.228599  0  3.403772  0
N  N107  1  0.14031082  0.59273278  0.49418292  1  0  -0.269668  0  3.140064  0  0  -0.234951  0  3.414443  0  0  -0.245067  0  3.431735  0  0  -0.317177  -0.228578  0  3.403776  0
N  N108  1  0.60094071  0.54024355  0.65293686  1  0  -0.14415  0  3.533923  0  0  -0.060318  0  3.749324  0  0  -0.076998  0  3.77274  0  0  -0.220598  -0.048894  0  3.733222  0
N  N109  1  0.39906034  0.45975661  0.34706363  1  0  -0.144069  0  3.533776  0  0  -0.060459  0  3.749406  0  0  -0.077139  0  3.772823  0  0  -0.220597  -0.049032  0  3.733298  0
N  N110  1  0.42604908  0.55731937  0.76604405  1  0  -0.417264  0  3.184142  0  0  -0.349734  0  3.470855  0  0  -0.372625  0  3.486615  0  0  -0.344329  -0.333927  0  3.459338  0
N  N111  1  0.57395009  0.44268078  0.23395912  1  0  -0.41734  0  3.184251  0  0  -0.34982  0  3.470915  0  0  -0.372709  0  3.486675  0  0  -0.344388  -0.334012  0  3.459399  0
O  O112  1  0.10838752  0.68394503  0.85658535  1  0  -0.629878  0  1.89915  0  0  -0.572881  0  2.12133  0  0  -0.599635  0  2.111392  0  0  -0.334531  -0.554121  0  2.12739  0
O  O113  1  0.89161354  0.31605517  0.14341103  1  0  -0.62994  0  1.89914  0  0  -0.572942  0  2.121318  0  0  -0.599695  0  2.111375  0  0  -0.334536  -0.554181  0  2.12738  0
O  O114  1  0.24636573  0.64942415  0.99776418  1  0  -0.648034  0  1.991786  0  0  -0.582572  0  2.240265  0  0  -0.611879  0  2.229435  0  0  -0.334038  -0.56208  0  2.24696  0
O  O115  1  0.75363454  0.35057508  0.00223523  1  0  -0.648041  0  1.991705  0  0  -0.582601  0  2.240191  0  0  -0.611906  0  2.229359  0  0  -0.334045  -0.562111  0  2.246896  0
O  O116  1  0.25650086  0.34262763  0.17336571  1  0  -0.644301  0  1.897004  0  0  -0.592044  0  2.122911  0  0  -0.617854  0  2.112371  0  0  -0.343873  -0.57384  0  2.12939  0
O  O117  1  0.74349770  0.65737062  0.82663684  1  0  -0.644261  0  1.897037  0  0  -0.591997  0  2.122956  0  0  -0.617807  0  2.11242  0  0  -0.343846  -0.573788  0  2.129424  0
O  O118  1  0.43294264  0.32972610  0.05866596  1  0  -0.64861  0  1.966625  0  0  -0.582834  0  2.209758  0  0  -0.612506  0  2.199822  0  0  -0.341712  -0.562028  0  2.215648  0
O  O119  1  0.56705778  0.67027787  0.94133515  1  0  -0.648581  0  1.966594  0  0  -0.582786  0  2.209719  0  0  -0.61246  0  2.199796  0  0  -0.341682  -0.561983  0  2.215613  0
