# generated using pymatgen
data_AlH15C22I2O5
_symmetry_space_group_name_H-M   'P 1'
_cell_length_a   6.66398594
_cell_length_b   25.40850589
_cell_length_c   28.94961119
_cell_angle_alpha   90.00006848
_cell_angle_beta   89.99891115
_cell_angle_gamma   90.36596574
_symmetry_Int_Tables_number   1
_chemical_formula_structural   AlH15C22I2O5
_chemical_formula_sum   'Al4 H60 C88 I8 O20'
_cell_volume   4901.70392846
_cell_formula_units_Z   4
loop_
 _symmetry_equiv_pos_site_id
 _symmetry_equiv_pos_as_xyz
  1  'x, y, z'
loop_
 _atom_site_type_symbol
 _atom_site_label
 _atom_site_symmetry_multiplicity
 _atom_site_fract_x
 _atom_site_fract_y
 _atom_site_fract_z
 _atom_site_occupancy
 _atom_site_pbe_bader_charge
 _atom_site_pbe_bader_spin_density
 _atom_site_pbe_cm5_charge
 _atom_site_pbe_ddec_charge
 _atom_site_pbe_ddec_spin_density
 _atom_site_pbe_ddec_sum_bond_order
 _atom_site_pbe_magmom
Al  Al0  1  0.80095119  0.74970619  0.75000086  1  2.481275  0  0.399081  1.648035  0  2.581479  0
Al  Al1  1  0.19903995  0.25028825  0.24999953  1  2.481222  0  0.399049  1.648352  0  2.58123  0
Al  Al2  1  0.30129236  0.75101988  0.75000106  1  2.480083  0  0.398322  1.651794  0  2.583061  0
Al  Al3  1  0.69869877  0.24897180  0.25000141  1  2.479897  0  0.39832  1.651893  0  2.583014  0
H  H4  1  0.23651116  0.32668049  0.37364363  1  0.093602  0  0.109009  0.110049  0  1.004515  0
H  H5  1  0.76348443  0.67330371  0.62636299  1  0.093913  0  0.109019  0.110087  0  1.004449  0
H  H6  1  0.76348161  0.67331175  0.87364956  1  0.094547  0  0.109052  0.110108  0  1.004481  0
H  H7  1  0.23652154  0.32668191  0.12635361  1  0.094326  0  0.109021  0.11001  0  1.00456  0
H  H8  1  0.73224635  0.12018232  0.16775905  1  0.073261  0  0.107139  0.108228  0  1.000662  0
H  H9  1  0.26773126  0.87980580  0.83224377  1  0.07318  0  0.107179  0.108199  0  1.00063  0
H  H10  1  0.26784996  0.87985700  0.66778905  1  0.074411  0  0.107238  0.108442  0  1.000319  0
H  H11  1  0.73231424  0.12023369  0.33226800  1  0.073163  0  0.107266  0.108461  0  1.000612  0
H  H12  1  0.25504017  0.38852475  0.44035263  1  0.053576  0  0.086144  0.091629  0  1.05327  0
H  H13  1  0.74493892  0.61145905  0.55965468  1  0.053553  0  0.086104  0.091428  0  1.053426  0
H  H14  1  0.74497484  0.61147038  0.94036135  1  0.053547  0  0.086056  0.091487  0  1.053399  0
H  H15  1  0.25506286  0.38853120  0.05964699  1  0.053386  0  0.086064  0.091505  0  1.053269  0
H  H16  1  0.75224854  0.05348280  0.10491460  1  0.112895  0  0.086177  0.091904  0  1.051276  0
H  H17  1  0.24772306  0.94650413  0.89509202  1  0.06128  0  0.086136  0.091842  0  1.051368  0
H  H18  1  0.24787327  0.94655371  0.60494062  1  0.11344  0  0.086098  0.0919  0  1.051633  0
H  H19  1  0.75236144  0.05353432  0.39511332  1  0.06086  0  0.086106  0.091857  0  1.051203  0
H  H20  1  0.68083003  0.45098100  0.40131999  1  0.045662  0  0.09521  0.102393  0  1.018277  0
H  H21  1  0.31916710  0.54900951  0.59867730  1  0.045738  0  0.095272  0.102524  0  1.018219  0
H  H22  1  0.31917127  0.54901248  0.90131521  1  0.045799  0  0.095255  0.10245  0  1.018199  0
H  H23  1  0.68085743  0.45098948  0.09868449  1  0.045928  0  0.095181  0.10236  0  1.018279  0
H  H24  1  0.18371460  0.10697539  0.05312812  1  0.056946  0  0.095418  0.102686  0  1.016344  0
H  H25  1  0.81629156  0.89302025  0.94686813  1  0.056507  0  0.095449  0.102646  0  1.016351  0
H  H26  1  0.81623496  0.89298211  0.55310499  1  0.056376  0  0.095402  0.102788  0  1.016168  0
H  H27  1  0.18357268  0.10692549  0.44683876  1  0.056724  0  0.095368  0.102711  0  1.01617  0
H  H28  1  0.75267016  0.50446966  0.56352616  1  0.102888  0  0.100869  0.114065  0  1.006572  0
H  H29  1  0.24731344  0.49551650  0.43647665  1  0.102761  0  0.100883  0.114021  0  1.006643  0
H  H30  1  0.24735386  0.49552298  0.06352449  1  0.102692  0  0.100907  0.114087  0  1.006686  0
H  H31  1  0.75270335  0.50447902  0.93648178  1  0.10297  0  0.100921  0.114098  0  1.006587  0
H  H32  1  0.25194974  0.92837022  0.98848911  1  0.099424  0  0.101378  0.115435  0  1.005393  0
H  H33  1  0.74806237  0.07161519  0.01151613  1  0.099636  0  0.101272  0.115341  0  1.005381  0
H  H34  1  0.74809926  0.07161046  0.48847072  1  0.099374  0  0.101305  0.115432  0  1.005157  0
H  H35  1  0.25198634  0.92836678  0.51151448  1  0.098951  0  0.101388  0.115521  0  1.005195  0
H  H36  1  0.51883388  0.42710798  0.33551535  1  0.015599  0  0.08872  0.124154  0  0.99919  0
H  H37  1  0.65401720  0.39567388  0.29027778  1  0.022186  0  0.092166  0.125235  0  1.013379  0
H  H38  1  0.51128867  0.35740466  0.32899884  1  0.08416  0  0.100404  0.146126  0  1.006152  0
H  H39  1  0.48120529  0.57288612  0.66447019  1  0.015349  0  0.088867  0.124372  0  0.999323  0
H  H40  1  0.48872799  0.64258980  0.67098878  1  0.084276  0  0.1004  0.146075  0  1.006249  0
H  H41  1  0.34604444  0.60431435  0.70971675  1  0.022274  0  0.092128  0.125179  0  1.013436  0
H  H42  1  0.48113609  0.57287867  0.83550634  1  0.015681  0  0.08871  0.124155  0  0.999206  0
H  H43  1  0.34596506  0.60432099  0.79027085  1  0.016925  0  0.092142  0.12521  0  1.013449  0
H  H44  1  0.48870729  0.64258398  0.82899470  1  0.084519  0  0.100404  0.146069  0  1.006045  0
H  H45  1  0.51886556  0.42711617  0.16449164  1  0.015777  0  0.088707  0.124123  0  0.999256  0
H  H46  1  0.51128688  0.35741321  0.17099845  1  0.084359  0  0.100384  0.146071  0  1.00624  0
H  H47  1  0.65402758  0.39567148  0.20972471  1  0.017052  0  0.092245  0.125307  0  1.013522  0
H  H48  1  0.02581940  0.17930058  0.08166952  1  0.03616  0  0.088772  0.123644  0  0.999062  0
H  H49  1  0.01029895  0.17652455  0.14304309  1  0.075486  0  0.098954  0.145615  0  1.002276  0
H  H50  1  0.15948920  0.22514264  0.11694049  1  0.084011  0  0.095043  0.135186  0  1.00079  0
H  H51  1  0.97421531  0.82070257  0.91831776  1  0.036583  0  0.088835  0.123679  0  0.999005  0
H  H52  1  0.84051998  0.77485615  0.88305714  1  0.083971  0  0.095098  0.135193  0  1.000761  0
H  H53  1  0.98967870  0.82347144  0.85694246  1  0.075091  0  0.098961  0.145711  0  1.002347  0
H  H54  1  0.97396730  0.82060794  0.58162826  1  0.034365  0  0.088715  0.123352  0  0.998907  0
H  H55  1  0.98967109  0.82341460  0.64299900  1  0.07642  0  0.098857  0.145526  0  1.002083  0
H  H56  1  0.84026518  0.77481036  0.61693992  1  0.082248  0  0.094981  0.134828  0  1.000694  0
H  H57  1  0.02542854  0.17917435  0.41826264  1  0.030319  0  0.088799  0.123428  0  0.998962  0
H  H58  1  0.15911772  0.22508487  0.38306704  1  0.038173  0  0.094973  0.134795  0  1.000671  0
H  H59  1  0.01024895  0.17646167  0.35688534  1  0.074781  0  0.098802  0.145093  0  1.002861  0
H  H60  1  0.54771846  0.68043973  0.74998349  1  0.595659  0  0.351726  0.427774  0  0.861336  0
H  H61  1  0.45227870  0.31955629  0.24997856  1  0.595784  0  0.351661  0.427702  0  0.861273  0
H  H62  1  0.04876182  0.82011011  0.74994404  1  0.591098  0  0.35888  0.43631  0  0.841906  0
H  H63  1  0.95123533  0.17988394  0.24992648  1  0.590932  0  0.35878  0.436075  0  0.84217  0
C  C64  1  0.55367240  0.81282663  0.68650739  1  1.558466  0  0.267336  0.650196  0  4.086147  0
C  C65  1  0.44631729  0.18717568  0.31349923  1  1.55989  0  0.26748  0.650286  0  4.08659  0
C  C66  1  0.44633832  0.18717010  0.18650305  1  1.558289  0  0.267365  0.650223  0  4.086107  0
C  C67  1  0.55365879  0.81281725  0.81349942  1  1.55868  0  0.267342  0.649984  0  4.08708  0
C  C68  1  0.05093319  0.68579295  0.81211475  1  1.570266  0  0.266352  0.646589  0  4.092964  0
C  C69  1  0.94903692  0.31419752  0.18788151  1  1.569935  0  0.266503  0.646578  0  4.093067  0
C  C70  1  0.94903848  0.31419918  0.31211461  1  1.57003  0  0.266304  0.646361  0  4.093367  0
C  C71  1  0.05096766  0.68579252  0.68788510  1  1.570483  0  0.26629  0.646298  0  4.093504  0
C  C72  1  0.11435320  0.35390972  0.38041847  1  -0.004052  0  -0.081535  -0.078567  0  4.009592  0
C  C73  1  0.88563640  0.64607606  0.61958745  1  -0.004364  0  -0.081661  -0.079034  0  4.009361  0
C  C74  1  0.88563459  0.64608372  0.88042135  1  -0.004847  0  -0.081669  -0.078929  0  4.009463  0
C  C75  1  0.11436707  0.35391191  0.11958043  1  -0.004835  0  -0.08148  -0.078503  0  4.009547  0
C  C76  1  0.61184605  0.11651710  0.14250236  1  -0.06215  0  -0.083013  -0.077922  0  4.008336  0
C  C77  1  0.38814809  0.88347537  0.85749770  1  -0.063912  0  -0.083017  -0.077805  0  4.008029  0
C  C78  1  0.38823098  0.88350642  0.64252210  1  -0.062305  0  -0.083301  -0.078243  0  4.008352  0
C  C79  1  0.61186549  0.11654482  0.35750939  1  -0.064141  0  -0.083111  -0.078258  0  4.008212  0
C  C80  1  0.12446035  0.38833613  0.41763658  1  -0.072829  0  -0.097942  -0.139511  0  3.990059  0
C  C81  1  0.87552775  0.61164925  0.58236727  1  -0.069573  0  -0.097888  -0.139058  0  3.989786  0
C  C82  1  0.87554728  0.61165778  0.91764155  1  -0.072661  0  -0.097775  -0.139194  0  3.989902  0
C  C83  1  0.12448441  0.38834143  0.08236472  1  -0.035043  0  -0.097986  -0.139431  0  3.990093  0
C  C84  1  0.62268420  0.07931403  0.10749493  1  -0.063137  0  -0.098576  -0.140448  0  3.992434  0
C  C85  1  0.37730242  0.92067568  0.89250719  1  -0.010756  0  -0.098585  -0.14049  0  3.992306  0
C  C86  1  0.37739832  0.92070355  0.60750993  1  -0.063983  0  -0.098353  -0.140442  0  3.99299  0
C  C87  1  0.62273114  0.07934145  0.39251741  1  -0.009445  0  -0.098569  -0.140462  0  3.992211  0
C  C88  1  0.96560559  0.42299525  0.42592548  1  0.004283  0  -0.012223  0.084495  0  4.029332  0
C  C89  1  0.03437951  0.57699052  0.57407700  1  0.000714  0  -0.012139  0.084509  0  4.029045  0
C  C90  1  0.03440595  0.57699868  0.92592732  1  0.004025  0  -0.012338  0.084266  0  4.029239  0
C  C91  1  0.96563175  0.42300212  0.07407861  1  -0.033097  0  -0.012203  0.084427  0  4.02902  0
C  C92  1  0.46534708  0.07489862  0.07557261  1  -0.032203  0  -0.011414  0.085529  0  4.030033  0
C  C93  1  0.53465005  0.92509110  0.92442848  1  -0.032106  0  -0.011513  0.085268  0  4.030343  0
C  C94  1  0.53470009  0.92509328  0.57557267  1  -0.03191  0  -0.011464  0.085428  0  4.030488  0
C  C95  1  0.46534206  0.07489689  0.42442497  1  -0.033297  0  -0.01126  0.085564  0  4.030712  0
C  C96  1  0.80097780  0.42268371  0.39580873  1  -0.033608  0  -0.098018  -0.206033  0  3.957009  0
C  C97  1  0.19901782  0.57730443  0.60418995  1  -0.032828  0  -0.098052  -0.206194  0  3.957043  0
C  C98  1  0.19901939  0.57730937  0.89580595  1  -0.033446  0  -0.097994  -0.206023  0  3.956963  0
C  C99  1  0.80100330  0.42269101  0.10419548  1  -0.033705  0  -0.097976  -0.205997  0  3.956822  0
C  C100  1  0.30232062  0.10923161  0.07906220  1  -0.04403  0  -0.09832  -0.207134  0  3.956702  0
C  C101  1  0.69768854  0.89076324  0.92093405  1  -0.043702  0  -0.09824  -0.206944  0  3.956758  0
C  C102  1  0.69766918  0.89074172  0.57905105  1  -0.042958  0  -0.098278  -0.207376  0  3.956972  0
C  C103  1  0.30223167  0.10919985  0.42091791  1  -0.043131  0  -0.098419  -0.207281  0  3.957105  0
C  C104  1  0.78739738  0.38838884  0.35808423  1  0.019565  0  0.004215  0.178104  0  3.921706  0
C  C105  1  0.21260574  0.61159970  0.64191375  1  0.019598  0  0.004132  0.178026  0  3.92183  0
C  C106  1  0.21258750  0.61160180  0.85808073  1  0.019548  0  0.004131  0.177881  0  3.921559  0
C  C107  1  0.78740816  0.38839343  0.14191759  1  0.019489  0  0.004163  0.178023  0  3.921696  0
C  C108  1  0.28810822  0.14716773  0.11398431  1  0.024598  0  0.005338  0.178357  0  3.924769  0
C  C109  1  0.71189494  0.85282869  0.88601194  1  0.024358  0  0.005175  0.1783  0  3.925036  0
C  C110  1  0.71185206  0.85280601  0.61397582  1  0.022576  0  0.005117  0.178366  0  3.925033  0
C  C111  1  0.28800227  0.14713708  0.38599487  1  0.024044  0  0.005083  0.177624  0  3.925729  0
C  C112  1  0.94782583  0.35303855  0.35080772  1  -0.048533  0  -0.016255  -0.112164  0  3.924011  0
C  C113  1  0.05218179  0.64695000  0.64919440  1  -0.049133  0  -0.016309  -0.112063  0  3.924045  0
C  C114  1  0.05216107  0.64695287  0.85080540  1  -0.049037  0  -0.016237  -0.111984  0  3.923807  0
C  C115  1  0.94783007  0.35303999  0.14919085  1  -0.048771  0  -0.01633  -0.11225  0  3.923778  0
C  C116  1  0.44620407  0.14996264  0.14663237  1  -0.012944  0  -0.017199  -0.113691  0  3.923014  0
C  C117  1  0.55379609  0.85003259  0.85336595  1  -0.011708  0  -0.017149  -0.113625  0  3.923139  0
C  C118  1  0.55379751  0.85003520  0.64663641  1  -0.013577  0  -0.016999  -0.113492  0  3.923007  0
C  C119  1  0.44615313  0.14996154  0.35336330  1  -0.011594  0  -0.017187  -0.113311  0  3.923777  0
C  C120  1  0.83892482  0.46489783  0.50080212  1  -0.25371  0  -0.048609  0.016228  0  3.899654  0
C  C121  1  0.16104678  0.53508910  0.49919932  1  -0.253405  0  -0.048638  0.016168  0  3.899197  0
C  C122  1  0.16109170  0.53509667  0.00080368  1  -0.253939  0  -0.04855  0.016288  0  3.899611  0
C  C123  1  0.83895952  0.46490807  0.99920432  1  -0.25358  0  -0.048573  0.016158  0  3.899272  0
C  C124  1  0.33847575  0.99504531  0.03014065  1  -0.294081  0  -0.048303  0.016703  0  3.900585  0
C  C125  1  0.66153036  0.00494049  0.96986459  1  -0.293432  0  -0.04817  0.016858  0  3.900812  0
C  C126  1  0.66157613  0.00493748  0.53012500  1  -0.293396  0  -0.048478  0.016463  0  3.900618  0
C  C127  1  0.33849147  0.99504131  0.46985812  1  -0.294155  0  -0.048349  0.016813  0  3.900677  0
C  C128  1  0.86061304  0.50277436  0.53530583  1  -0.008234  0  -0.097641  -0.164149  0  3.998792  0
C  C129  1  0.13936157  0.49721297  0.46469630  1  -0.008328  0  -0.097777  -0.164228  0  3.998842  0
C  C130  1  0.13940701  0.49721981  0.03530642  1  -0.007748  0  -0.097687  -0.164251  0  3.999159  0
C  C131  1  0.86065021  0.50278337  0.96470054  1  -0.008452  0  -0.097795  -0.164306  0  3.998904  0
C  C132  1  0.36036420  0.96015376  0.99336215  1  0.01999  0  -0.097921  -0.164465  0  3.999109  0
C  C133  1  0.63964191  0.03983243  0.00664205  1  0.018899  0  -0.097968  -0.164683  0  3.999601  0
C  C134  1  0.63966497  0.03983084  0.49334772  1  0.019167  0  -0.097876  -0.16458  0  3.998907  0
C  C135  1  0.36040116  0.96015228  0.50663748  1  0.020555  0  -0.09798  -0.164831  0  3.999348  0
C  C136  1  0.02200646  0.53864311  0.53558668  1  0.0228  0  -0.009717  0.049897  0  3.979755  0
C  C137  1  0.97797114  0.46134344  0.46441614  1  0.022874  0  -0.00955  0.050004  0  3.979882  0
C  C138  1  0.97800758  0.46135381  0.03558827  1  0.022404  0  -0.009673  0.050041  0  3.979711  0
C  C139  1  0.02204513  0.53864936  0.96441869  1  0.023096  0  -0.009636  0.050082  0  3.979713  0
C  C140  1  0.52232117  0.96400224  0.96244389  1  0.040457  0  -0.010267  0.049095  0  3.979633  0
C  C141  1  0.47768045  0.03598591  0.03755858  1  0.041711  0  -0.010248  0.04912  0  3.979646  0
C  C142  1  0.47768921  0.03598386  0.46243614  1  0.041554  0  -0.01021  0.049243  0  3.979499  0
C  C143  1  0.52236192  0.96400239  0.53755286  1  0.040367  0  -0.010085  0.049425  0  3.979515  0
C  C144  1  0.60813159  0.39240555  0.32664695  1  -0.04126  0  -0.238049  -0.409496  0  3.956899  0
C  C145  1  0.39190006  0.60758618  0.67334516  1  -0.041129  0  -0.238135  -0.409595  0  3.957089  0
C  C146  1  0.39185103  0.60758386  0.82663910  1  -0.041532  0  -0.238028  -0.409353  0  3.956557  0
C  C147  1  0.60814612  0.39241019  0.17335577  1  -0.041637  0  -0.238079  -0.409457  0  3.957241  0
C  C148  1  0.11159399  0.18385163  0.11381205  1  -0.095058  0  -0.238223  -0.40928  0  3.95171  0
C  C149  1  0.88841069  0.81614833  0.88617937  1  -0.094897  0  -0.238313  -0.409381  0  3.951801  0
C  C150  1  0.88827312  0.81609246  0.61378814  1  -0.091146  0  -0.237983  -0.408526  0  3.951163  0
C  C151  1  0.11135877  0.18377870  0.38614835  1  -0.042864  0  -0.23797  -0.407763  0  3.951256  0
I  I152  1  0.59800837  0.41119496  0.50810918  1  0.097443  0  0.077322  -0.032466  0  1.440956  0
I  I153  1  0.40197973  0.58879041  0.49189364  1  0.09749  0  0.07735  -0.032441  0  1.440775  0
I  I154  1  0.40201662  0.58879799  0.00810718  1  0.097406  0  0.077347  -0.032426  0  1.440949  0
I  I155  1  0.59801961  0.41121028  0.99190358  1  0.097735  0  0.077376  -0.032408  0  1.44098  0
I  I156  1  0.09676705  0.98082547  0.07568796  1  0.094979  0  0.075651  -0.034739  0  1.445913  0
I  I157  1  0.90323907  0.01916230  0.92431796  1  0.094943  0  0.075643  -0.034736  0  1.446016  0
I  I158  1  0.90336103  0.01914529  0.57565317  1  0.094912  0  0.07568  -0.034699  0  1.446144  0
I  I159  1  0.09679349  0.98081079  0.42431821  1  0.095256  0  0.075745  -0.034673  0  1.446246  0
O  O160  1  0.38272739  0.79944263  0.79723226  1  -1.253154  0  -0.239552  -0.603594  0  2.350496  0
O  O161  1  0.61725468  0.20053723  0.20277781  1  -1.252889  0  -0.23964  -0.603755  0  2.350212  0
O  O162  1  0.61723334  0.20054947  0.29723227  1  -1.253809  0  -0.239584  -0.603687  0  2.350627  0
O  O163  1  0.38274737  0.79945951  0.70278091  1  -1.252802  0  -0.239536  -0.60365  0  2.350183  0
O  O164  1  0.87992857  0.70044601  0.70278792  1  -1.254634  0  -0.239224  -0.602111  0  2.349527  0
O  O165  1  0.12007907  0.29954569  0.29721110  1  -1.254402  0  -0.239292  -0.602185  0  2.34934  0
O  O166  1  0.12008096  0.29954602  0.20278634  1  -1.254267  0  -0.239363  -0.602342  0  2.349322  0
O  O167  1  0.87989969  0.70044959  0.79721509  1  -1.254543  0  -0.239297  -0.602246  0  2.349174  0
O  O168  1  0.72249070  0.79811569  0.70242462  1  -1.259033  0  -0.232449  -0.59079  0  2.365567  0
O  O169  1  0.27749750  0.20188858  0.29757647  1  -1.259203  0  -0.23241  -0.59084  0  2.365524  0
O  O170  1  0.27751439  0.20188263  0.20242217  1  -1.258863  0  -0.232417  -0.59081  0  2.365573  0
O  O171  1  0.72246926  0.79811179  0.79757650  1  -1.258845  0  -0.232411  -0.590596  0  2.366192  0
O  O172  1  0.21974455  0.70172057  0.79682709  1  -1.250564  0  -0.232043  -0.587643  0  2.374976  0
O  O173  1  0.78023005  0.29826597  0.20316226  1  -1.250754  0  -0.232202  -0.587621  0  2.375089  0
O  O174  1  0.78023872  0.29827077  0.29682949  1  -1.250765  0  -0.23204  -0.587536  0  2.375247  0
O  O175  1  0.21977943  0.70172252  0.70316538  1  -1.250917  0  -0.232106  -0.587522  0  2.374954  0
O  O176  1  0.54981067  0.71849398  0.74999560  1  -1.400892  0  -0.450078  -0.999469  0  2.230502  0
O  O177  1  0.45018649  0.28150165  0.24999651  1  -1.400961  0  -0.450011  -0.999519  0  2.230427  0
O  O178  1  0.05085487  0.78205986  0.75000101  1  -1.394765  0  -0.447817  -0.99826  0  2.223519  0
O  O179  1  0.94913928  0.21793339  0.25000146  1  -1.394501  0  -0.447672  -0.998062  0  2.223689  0
