# generated using pymatgen
data_CuH7C2N11
_symmetry_space_group_name_H-M   'P 1'
_cell_length_a   7.33198470
_cell_length_b   9.40699597
_cell_length_c   12.52479534
_cell_angle_alpha   89.99984212
_cell_angle_beta   90.00006298
_cell_angle_gamma   90.86248511
_symmetry_Int_Tables_number   1
_chemical_formula_structural   CuH7C2N11
_chemical_formula_sum   'Cu4 H28 C8 N44'
_cell_volume   863.76169173
_cell_formula_units_Z   4
loop_
 _symmetry_equiv_pos_site_id
 _symmetry_equiv_pos_as_xyz
  1  'x, y, z'
loop_
 _atom_site_type_symbol
 _atom_site_label
 _atom_site_symmetry_multiplicity
 _atom_site_fract_x
 _atom_site_fract_y
 _atom_site_fract_z
 _atom_site_occupancy
 _atom_site_hle17_ddec_charge
 _atom_site_hle17_ddec_spin_density
 _atom_site_hle17_ddec_sum_bond_order
 _atom_site_hle17_magmom
 _atom_site_hse06_10hf_ddec_charge
 _atom_site_hse06_10hf_ddec_spin_density
 _atom_site_hse06_10hf_ddec_sum_bond_order
 _atom_site_hse06_10hf_magmom
 _atom_site_hse06_ddec_charge
 _atom_site_hse06_ddec_spin_density
 _atom_site_hse06_ddec_sum_bond_order
 _atom_site_hse06_magmom
 _atom_site_pbe_cm5_charge
 _atom_site_pbe_ddec_charge
 _atom_site_pbe_ddec_spin_density
 _atom_site_pbe_ddec_sum_bond_order
 _atom_site_pbe_magmom
Cu  Cu0  1  0.09998826  0.78414878  0.09704664  1  0.75108  0.70984  2.001385  0.522  0.709616  0.791705  2.418598  0.628  0.783599  0.853988  2.364055  0.703  0.760595  0.665016  0.747637  2.456089  0.579
Cu  Cu1  1  0.89998834  0.71578745  0.59697765  1  0.751031  -0.77096  2.001565  -0.518  0.709758  -0.846701  2.418602  -0.626  0.783574  -0.927244  2.364173  -0.703  0.760545  0.66495  -0.785397  2.456223  -0.575
Cu  Cu2  1  0.90000642  0.21579495  0.90300078  1  0.75133  0.705457  2.001464  0.519  0.709585  0.790349  2.418865  0.627  0.783539  0.853415  2.364193  0.703  0.760681  0.664953  0.743583  2.456379  0.576
Cu  Cu3  1  0.09995600  0.28413396  0.40292286  1  0.751483  0.711003  2.001174  0.523  0.709928  0.792105  2.418258  0.628  0.783767  0.854111  2.363808  0.703  0.760843  0.66544  0.748892  2.455694  0.58
H  H4  1  0.34124376  0.80488410  0.24792819  1  0.330389  -0.000536  0.935577  -0.001  0.305652  0.000528  1.021503  0.0  0.313201  0.000289  1.015846  0.0  0.283849  0.300192  0.000709  1.02589  0.0
H  H5  1  0.65886995  0.69518275  0.74790383  1  0.330503  0.000337  0.935437  0.001  0.305635  -0.000648  1.021514  0.0  0.313178  -0.000399  1.015863  0.0  0.28392  0.300185  -0.000822  1.025854  0.0
H  H6  1  0.65881127  0.19509025  0.75214957  1  0.330693  -0.000385  0.93485  -0.001  0.305916  0.00066  1.020901  0.0  0.313425  0.000354  1.015305  0.0  0.283972  0.300533  0.000912  1.025133  0.0
H  H7  1  0.34129040  0.30497128  0.25212522  1  0.330827  -0.000391  0.93486  -0.001  0.306129  0.000654  1.020787  0.0  0.313645  0.000352  1.015178  0.0  0.284063  0.300733  0.000905  1.025056  0.0
H  H8  1  0.61189512  0.06533899  0.07498495  1  0.295878  -3.8e-05  0.9565  0.0  0.265449  -5e-06  1.037387  0.0  0.275138  -2.9e-05  1.02937  0.0  0.301799  0.25869  2.3e-05  1.042885  0.0
H  H9  1  0.38808990  0.43469265  0.57490961  1  0.29578  0.000142  0.956792  0.0  0.265371  7.4e-05  1.037715  0.0  0.275061  4.5e-05  1.029703  0.0  0.301837  0.258603  0.000109  1.043222  0.0
H  H10  1  0.38810137  0.93468769  0.92504810  1  0.295799  -4.6e-05  0.956853  0.0  0.265464  -1.7e-05  1.037685  0.0  0.275144  -3.7e-05  1.029677  0.0  0.301834  0.258701  1.3e-05  1.043181  0.0
H  H11  1  0.61191421  0.56534877  0.42496775  1  0.296342  -0.000167  0.955984  0.0  0.265743  -8.6e-05  1.037079  0.0  0.275437  -5.8e-05  1.029044  0.0  0.301978  0.258984  -0.00012  1.042586  0.0
H  H12  1  0.38863211  0.92137749  0.15390976  1  0.32724  -0.000571  0.90208  -0.001  0.312342  0.000515  0.970601  0.0  0.318405  0.000236  0.967495  0.0  0.290438  0.308031  0.000729  0.973045  0.0
H  H13  1  0.61143563  0.57865129  0.65392557  1  0.327106  0.000418  0.901861  0.001  0.312376  -0.0006  0.970233  0.0  0.318428  -0.000311  0.967146  0.0  0.290466  0.308079  -0.0008  0.972641  0.0
H  H14  1  0.61147522  0.07860531  0.84619753  1  0.327478  -0.000599  0.901902  -0.001  0.31253  0.000512  0.97051  0.0  0.318584  0.000232  0.967397  0.0  0.290793  0.308248  0.000718  0.972913  0.0
H  H15  1  0.38856193  0.42142006  0.34621527  1  0.327207  -0.000599  0.902067  -0.001  0.312246  0.000499  0.970706  0.0  0.318304  0.000212  0.967589  0.0  0.290571  0.30795  0.000724  0.973142  0.0
H  H16  1  0.45098487  0.75418771  0.13907859  1  0.335399  -0.000189  0.87163  -0.001  0.333134  0.000838  0.914496  0.0  0.339018  0.000512  0.911906  0.0  0.298021  0.328978  0.001098  0.916599  0.001
H  H17  1  0.54908681  0.74583890  0.63907242  1  0.335595  1.7e-05  0.871793  0.001  0.333347  -0.00091  0.914627  0.0  0.339227  -0.000588  0.912047  0.0  0.298108  0.329194  -0.001143  0.916698  -0.001
H  H18  1  0.54910419  0.24576037  0.86102312  1  0.335972  -0.000207  0.871424  -0.001  0.333518  0.000823  0.914513  0.0  0.339412  0.000501  0.911888  0.0  0.298264  0.32938  0.001078  0.916583  0.001
H  H19  1  0.45097394  0.25426514  0.36101332  1  0.33575  -0.000214  0.871496  -0.001  0.333361  0.000806  0.9145  0.0  0.339244  0.000487  0.9119  0.0  0.298191  0.329215  0.001053  0.916593  0.001
H  H20  1  0.32730597  0.65939371  0.96229371  1  0.331698  0.000157  0.896796  -0.001  0.319654  0.001108  0.960116  0.0  0.326748  0.000751  0.955194  0.0  0.288903  0.314538  0.001384  0.964017  0.001
H  H21  1  0.67263931  0.84057818  0.46225269  1  0.331639  -0.00034  0.89672  0.001  0.319574  -0.00122  0.960113  0.0  0.326671  -0.000862  0.95518  0.0  0.288853  0.314477  -0.001475  0.963964  -0.001
H  H22  1  0.67264980  0.34058704  0.03773774  1  0.331648  0.000148  0.896759  -0.001  0.319533  0.001117  0.960226  0.0  0.326626  0.000761  0.955303  0.0  0.288859  0.314452  0.001392  0.964061  0.001
H  H23  1  0.32729750  0.15940510  0.53770131  1  0.331713  0.000154  0.89677  -0.001  0.319655  0.001113  0.960137  0.0  0.326742  0.000754  0.955225  0.0  0.288897  0.314549  0.001391  0.964021  0.001
H  H24  1  0.11235206  0.63600954  0.92596894  1  0.339778  -0.000505  0.888129  -0.001  0.323777  0.000521  0.955566  0.0  0.330009  0.000249  0.952199  0.0  0.293687  0.319441  0.000749  0.958062  0.0
H  H25  1  0.88761646  0.86393962  0.42593277  1  0.339896  0.000319  0.888145  0.001  0.32382  -0.000649  0.955699  0.0  0.330051  -0.000364  0.952329  0.0  0.293732  0.319496  -0.000866  0.958165  0.0
H  H26  1  0.88762813  0.36396856  0.07405692  1  0.339988  -0.000515  0.887989  -0.001  0.323897  0.000517  0.955559  0.0  0.330125  0.000245  0.952199  0.0  0.293766  0.31959  0.000745  0.957998  0.0
H  H27  1  0.11234450  0.13601122  0.57403161  1  0.339858  -0.00051  0.887998  -0.001  0.323829  0.000541  0.955475  0.0  0.330055  0.000263  0.952115  0.0  0.293692  0.319499  0.000765  0.957954  0.0
H  H28  1  0.19642428  0.53778277  0.02338825  1  0.329294  -0.000823  0.922931  -0.002  0.309346  0.000234  1.000053  0.0  0.316497  2.5e-05  0.995548  -0.001  0.283924  0.304147  0.000404  1.003695  0.0
H  H29  1  0.80355401  0.96213770  0.52339052  1  0.329248  0.000548  0.922543  0.002  0.30917  -0.000404  0.999849  0.0  0.316299  -0.000171  0.995378  0.001  0.283874  0.303993  -0.000573  1.003423  0.0
H  H30  1  0.80354865  0.46216249  0.97660727  1  0.329312  -0.000804  0.922697  -0.002  0.309156  0.00025  1.000089  0.0  0.316287  3.4e-05  0.995616  -0.001  0.283863  0.303988  0.000424  1.003655  0.0
H  H31  1  0.19642443  0.03775850  0.47663215  1  0.329186  -0.000737  0.923027  -0.002  0.30923  0.000306  1.000216  0.0  0.31638  7.8e-05  0.995714  -0.001  0.283881  0.304035  0.000482  1.003834  0.0
C  C32  1  0.72902530  0.88075242  0.01955401  1  0.484817  -0.001213  3.856919  0.0  0.436911  0.000693  4.146516  0.002  0.458352  -0.000196  4.158291  0.0  0.323906  0.422502  0.001422  4.138451  0.003
C  C33  1  0.27091143  0.61923174  0.51947613  1  0.48408  0.000508  3.856712  0.0  0.436328  -0.001202  4.146319  -0.002  0.457753  -0.000315  4.158125  -0.001  0.323797  0.421912  -0.001761  4.138224  -0.003
C  C34  1  0.27090898  0.11920964  0.98048702  1  0.484363  -0.001161  3.856848  0.0  0.436931  0.000658  4.145889  0.002  0.458349  -0.000213  4.157685  0.0  0.324036  0.42252  0.001343  4.137817  0.003
C  C35  1  0.72905637  0.38079450  0.48042438  1  0.484455  -0.000942  3.857482  0.0  0.436633  0.001016  4.14682  0.002  0.458065  9.8e-05  4.158595  0.001  0.323767  0.422236  0.001675  4.138751  0.003
C  C36  1  0.85806767  0.03298983  0.15484424  1  0.476846  4.1e-05  3.854818  0.001  0.438327  0.001087  4.136014  0.002  0.459049  0.000162  4.146054  0.001  0.315756  0.424418  0.001717  4.129151  0.003
C  C37  1  0.14188387  0.46697523  0.65475991  1  0.476723  -9.6e-05  3.855164  -0.001  0.438702  -0.00149  4.135862  -0.002  0.459422  -0.00063  4.145897  -0.001  0.315783  0.424785  -0.002114  4.128994  -0.003
C  C38  1  0.14184982  0.96693960  0.84521436  1  0.477337  -0.000706  3.853409  0.001  0.438886  0.00092  4.134619  0.002  0.459584  4.8e-05  4.144675  0.001  0.316097  0.424992  0.001632  4.127748  0.003
C  C39  1  0.85812346  0.53305015  0.34514938  1  0.478119  0.000434  3.853152  0.002  0.439119  0.001636  4.134838  0.003  0.459858  0.000653  4.144835  0.001  0.316363  0.425208  0.002284  4.127992  0.003
N  N40  1  0.10876436  0.03225253  0.24452934  1  -0.080278  -0.0028  2.958381  -0.003  -0.070474  -0.00051  3.256859  0.0  -0.065215  -0.000975  3.27001  -0.001  -0.111801  -0.073443  -0.000174  3.247775  0.0
N  N41  1  0.89124902  0.46769176  0.74448692  1  -0.080608  0.001047  2.959267  0.001  -0.070665  -0.000961  3.257632  -0.001  -0.06543  -0.00048  3.270773  0.0  -0.112031  -0.073631  -0.001214  3.248605  -0.001
N  N42  1  0.89128788  0.96772082  0.75545021  1  -0.080898  -0.001125  2.959789  -0.001  -0.071037  0.000828  3.258165  0.001  -0.065805  0.000324  3.271306  0.0  -0.112172  -0.074003  0.001093  3.249132  0.001
N  N43  1  0.10871875  0.53220892  0.25540480  1  -0.080998  -0.002951  2.958955  -0.003  -0.071274  -0.000511  3.257463  0.0  -0.066026  -0.000974  3.270622  -0.001  -0.11242  -0.074229  -0.000176  3.248365  0.0
N  N44  1  0.72519188  0.99930202  0.08178723  1  -0.50113  -0.000516  3.394588  0.001  -0.447255  -0.001269  3.65357  -0.001  -0.46697  -0.00158  3.652908  -0.001  -0.399842  -0.4338  -0.000988  3.654429  0.0
N  N45  1  0.27472251  0.50064517  0.58168646  1  -0.500122  0.000963  3.394324  0.002  -0.446603  -0.000175  3.653337  0.001  -0.46631  -0.000108  3.652663  0.001  -0.399706  -0.433132  -0.000175  3.654181  0.001
N  N46  1  0.27469394  0.00059723  0.91829053  1  -0.50114  -0.001494  3.393572  -0.001  -0.447862  -0.001404  3.653032  -0.001  -0.467544  -0.001632  3.652325  -0.001  -0.40036  -0.434383  -0.001105  3.65388  -0.001
N  N47  1  0.72525675  0.49936592  0.41820686  1  -0.50198  0.000242  3.394407  0.0  -0.447933  0.000218  3.653787  -0.001  -0.467621  3.1e-05  3.65303  -0.001  -0.400431  -0.434467  0.000447  3.654658  0.0
N  N48  1  0.86241876  0.78389209  0.01762039  1  -0.362751  0.068227  3.211782  0.088  -0.332572  0.052195  3.539149  0.07  -0.36212  0.043506  3.555142  0.062  -0.272077  -0.31464  0.057879  3.529766  0.075
N  N49  1  0.13752650  0.71609827  0.51757096  1  -0.362435  -0.073599  3.211666  -0.087  -0.332342  -0.055438  3.539005  -0.07  -0.361887  -0.047072  3.555012  -0.061  -0.272  -0.314318  -0.060545  3.529559  -0.075
N  N50  1  0.13746457  0.21601148  0.98247573  1  -0.362421  0.067763  3.212356  0.087  -0.332337  0.051878  3.539569  0.07  -0.3619  0.043288  3.555558  0.061  -0.272204  -0.314402  0.057531  3.530206  0.075
N  N51  1  0.86247582  0.28396021  0.48241657  1  -0.362582  0.068796  3.211875  0.089  -0.332484  0.052134  3.539308  0.07  -0.361997  0.043384  3.555295  0.062  -0.272181  -0.314601  0.057939  3.529955  0.076
N  N52  1  0.01699899  0.96384254  0.16558885  1  -0.367761  0.073943  3.224367  0.095  -0.335044  0.052335  3.550117  0.071  -0.364192  0.042921  3.565493  0.061  -0.277257  -0.316723  0.058431  3.540372  0.076
N  N53  1  0.98291239  0.53604592  0.66547400  1  -0.368138  -0.080282  3.225002  -0.094  -0.335613  -0.056345  3.550671  -0.071  -0.364674  -0.047114  3.565985  -0.061  -0.277421  -0.31733  -0.061717  3.541006  -0.076
N  N54  1  0.98296855  0.03610390  0.83443861  1  -0.367931  0.073868  3.224664  0.095  -0.334972  0.052603  3.550083  0.071  -0.364046  0.04322  3.565387  0.062  -0.277313  -0.316745  0.058526  3.540457  0.076
N  N55  1  0.01692512  0.46376819  0.33431632  1  -0.367569  0.074118  3.224149  0.095  -0.334588  0.052476  3.549804  0.071  -0.363701  0.043028  3.565146  0.061  -0.276899  -0.316289  0.058698  3.540087  0.076
N  N56  1  0.64851267  0.71831206  0.90789603  1  -0.099827  0.003828  3.02871  0.005  -0.085852  0.002439  3.319699  0.003  -0.083779  0.001096  3.326584  0.001  -0.101683  -0.086135  0.003704  3.314193  0.004
N  N57  1  0.35147075  0.78178579  0.40791566  1  -0.100092  -0.00333  3.028774  -0.003  -0.086104  -0.00232  3.3198  -0.003  -0.084043  -0.001119  3.326705  -0.001  -0.101647  -0.086376  -0.003352  3.314297  -0.004
N  N58  1  0.35153779  0.28182837  0.09199968  1  -0.100143  0.004198  3.028545  0.005  -0.086254  0.002972  3.319775  0.004  -0.084168  0.001364  3.326686  0.002  -0.101778  -0.086585  0.004558  3.314247  0.005
N  N59  1  0.64845986  0.21828380  0.59203355  1  -0.099844  0.004161  3.029418  0.005  -0.085852  0.002868  3.320496  0.004  -0.083759  0.001297  3.327405  0.002  -0.101511  -0.086183  0.004384  3.314955  0.005
N  N60  1  0.59446145  0.84321007  0.95143511  1  -0.393958  0.00426  2.990764  0.005  -0.348657  0.00222  3.26177  0.003  -0.364365  0.001781  3.271937  0.002  -0.238142  -0.337301  0.002677  3.253757  0.003
N  N61  1  0.40552168  0.65685574  0.45141513  1  -0.393856  -0.004502  2.990531  -0.005  -0.348598  -0.00251  3.261534  -0.003  -0.364311  -0.002098  3.271721  -0.002  -0.238107  -0.337245  -0.002803  3.253531  -0.003
N  N62  1  0.40559938  0.15692057  0.04847817  1  -0.393647  0.004138  2.991041  0.005  -0.348469  0.002262  3.261929  0.003  -0.364194  0.001805  3.272131  0.002  -0.237889  -0.337084  0.002813  3.253894  0.003
N  N63  1  0.59441609  0.34317008  0.54847899  1  -0.393929  0.004211  2.991946  0.005  -0.348633  0.002394  3.262869  0.003  -0.364363  0.001965  3.273064  0.002  -0.238063  -0.337254  0.002779  3.25483  0.003
N  N64  1  0.80669666  0.68285450  0.94700015  1  -0.088271  -0.000566  3.025559  0.0  -0.069813  0.000767  3.319138  0.001  -0.067696  0.000233  3.330988  0.0  -0.095627  -0.071101  0.001217  3.311222  0.002
N  N65  1  0.19325657  0.81718855  0.44700125  1  -0.088106  0.000506  3.025332  0.0  -0.069619  -0.00062  3.318933  -0.001  -0.067501  -0.000283  3.330782  0.0  -0.095689  -0.070926  -0.000815  3.311012  -0.001
N  N66  1  0.19323586  0.31715015  0.05299457  1  -0.088122  -0.000253  3.025008  0.0  -0.069659  0.000787  3.318631  0.001  -0.067543  0.000196  3.330474  0.0  -0.095617  -0.070963  0.001222  3.310761  0.002
N  N67  1  0.80670971  0.18288454  0.55299348  1  -0.088318  -0.001051  3.025637  -0.001  -0.069885  0.000382  3.319302  0.001  -0.067765  0.0  3.331137  0.0  -0.095682  -0.071173  0.000613  3.31142  0.001
N  N68  1  0.34945933  0.81779703  0.16614879  1  -0.817329  0.094695  2.965323  0.118  -0.816566  0.065776  3.219786  0.083  -0.849006  0.052465  3.20932  0.071  -0.779275  -0.796425  0.073161  3.228153  0.089
N  N69  1  0.65062917  0.68223659  0.66613005  1  -0.816844  -0.10401  2.96582  -0.118  -0.816606  -0.070628  3.220317  -0.083  -0.849069  -0.057293  3.209881  -0.071  -0.779125  -0.796266  -0.07759  3.228561  -0.089
N  N70  1  0.65063272  0.18218079  0.83392577  1  -0.81747  0.095583  2.965565  0.119  -0.817175  0.065993  3.22029  0.084  -0.849613  0.05258  3.209858  0.071  -0.779689  -0.796937  0.073716  3.22849  0.09
N  N71  1  0.34944938  0.31784366  0.33390539  1  -0.817857  0.095117  2.965086  0.118  -0.817016  0.065927  3.219324  0.084  -0.84939  0.052517  3.208872  0.071  -0.779744  -0.796939  0.073518  3.227609  0.089
N  N72  1  0.84688798  0.14160100  0.22360053  1  -0.364996  0.006334  2.844046  0.007  -0.348421  0.003065  3.122029  0.003  -0.358065  0.00219  3.131063  0.003  -0.25875  -0.341546  0.003812  3.115423  0.004
N  N73  1  0.15318301  0.35844959  0.72360587  1  -0.364775  -0.006677  2.843841  -0.007  -0.34831  -0.003055  3.121524  -0.004  -0.357967  -0.002355  3.130549  -0.003  -0.258507  -0.341365  -0.003666  3.11493  -0.004
N  N74  1  0.15308516  0.85832298  0.77644849  1  -0.364725  0.00658  2.843865  0.008  -0.348171  0.003282  3.121766  0.004  -0.357823  0.002464  3.130799  0.003  -0.258528  -0.341231  0.004063  3.115127  0.005
N  N75  1  0.84703035  0.64177566  0.27648865  1  -0.365343  0.006086  2.843511  0.007  -0.348683  0.003188  3.121763  0.003  -0.358343  0.002317  3.130807  0.003  -0.259039  -0.341793  0.003996  3.115142  0.004
N  N76  1  0.00689556  0.13632585  0.27759800  1  -0.105222  0.005868  3.229833  0.009  -0.085796  0.002172  3.56565  0.004  -0.093546  0.000603  3.577744  0.002  -0.128492  -0.080245  0.004301  3.557186  0.007
N  N77  1  0.99321312  0.36371311  0.77762533  1  -0.105798  -0.008027  3.22975  -0.008  -0.085886  -0.003423  3.56516  -0.003  -0.093596  -0.002064  3.577213  -0.002  -0.128623  -0.08055  -0.004971  3.556849  -0.005
N  N78  1  0.99316160  0.86363782  0.72239672  1  -0.105748  0.007552  3.23068  0.008  -0.085969  0.003366  3.566188  0.003  -0.093656  0.001966  3.578266  0.002  -0.128631  -0.080597  0.004974  3.557802  0.005
N  N79  1  0.00697895  0.63642215  0.22244524  1  -0.105012  0.006165  3.22972  0.01  -0.085581  0.002438  3.565527  0.004  -0.093357  0.000804  3.577658  0.002  -0.128214  -0.08001  0.004627  3.557011  0.007
N  N80  1  0.19856038  0.63824964  0.99036442  1  -0.82144  0.087179  2.932936  0.108  -0.813824  0.059254  3.177973  0.075  -0.845075  0.047304  3.165643  0.064  -0.77808  -0.794804  0.065539  3.187973  0.08
N  N81  1  0.80139192  0.86169966  0.49032342  1  -0.820958  -0.095761  2.932335  -0.108  -0.813557  -0.063627  3.177749  -0.075  -0.844754  -0.05169  3.165422  -0.064  -0.777934  -0.794331  -0.069552  3.1876  -0.08
N  N82  1  0.80140287  0.36171818  0.00966783  1  -0.821096  0.087712  2.932294  0.109  -0.813632  0.05932  3.177803  0.075  -0.844892  0.047354  3.165515  0.064  -0.777949  -0.79443  0.065887  3.187598  0.08
N  N83  1  0.19855199  0.13823878  0.50963537  1  -0.821412  0.087537  2.932515  0.109  -0.813932  0.059404  3.177529  0.075  -0.845173  0.047397  3.165229  0.064  -0.778075  -0.794898  0.065818  3.187489  0.08
