# generated using pymatgen
data_Ni2H39C43(N3O5)2
_symmetry_space_group_name_H-M   'P 1'
_cell_length_a   9.15394348
_cell_length_b   10.01179496
_cell_length_c   24.51633330
_cell_angle_alpha   97.46273277
_cell_angle_beta   99.86410425
_cell_angle_gamma   100.86763830
_symmetry_Int_Tables_number   1
_chemical_formula_structural   Ni2H39C43(N3O5)2
_chemical_formula_sum   'Ni4 H78 C86 N12 O20'
_cell_volume   2143.18406297
_cell_formula_units_Z   2
loop_
 _symmetry_equiv_pos_site_id
 _symmetry_equiv_pos_as_xyz
  1  'x, y, z'
loop_
 _atom_site_type_symbol
 _atom_site_label
 _atom_site_symmetry_multiplicity
 _atom_site_fract_x
 _atom_site_fract_y
 _atom_site_fract_z
 _atom_site_occupancy
 _atom_site_pbe_bader_charge
 _atom_site_pbe_bader_spin_density
 _atom_site_pbe_cm5_charge
 _atom_site_pbe_ddec_charge
 _atom_site_pbe_ddec_spin_density
 _atom_site_pbe_ddec_sum_bond_order
 _atom_site_pbe_magmom
Ni  Ni0  1  0.89328938  0.38629967  0.32024486  1  1.173325  1.558438  0.64604  0.784937  1.760052  2.502887  1.541
Ni  Ni1  1  0.10671081  0.61370085  0.67975504  1  1.173341  1.55844  0.646018  0.784896  1.760054  2.502894  1.541
Ni  Ni2  1  0.72965451  0.12969033  0.20603241  1  1.201829  1.567747  0.641182  0.860224  1.771224  2.447756  1.555
Ni  Ni3  1  0.27034542  0.87030915  0.79396824  1  1.201748  1.567744  0.64118  0.860201  1.771225  2.447834  1.555
H  H4  1  0.80403079  0.38604604  0.09209308  1  0.105989  0.00031  0.108413  0.125179  0.000175  1.025429  0.0
H  H5  1  0.19596498  0.61395450  0.90790612  1  0.105961  0.00031  0.108415  0.125167  0.000175  1.025425  0.0
H  H6  1  0.74251035  0.78789101  0.05790496  1  0.132135  0.0005  0.111002  0.130905  0.000335  0.9958  0.0
H  H7  1  0.25748431  0.21210954  0.94209417  1  0.128787  0.000504  0.111039  0.130964  0.000335  0.995804  0.0
H  H8  1  0.76303061  0.69172469  0.22516249  1  0.098794  0.000703  0.103498  0.115608  0.000476  1.015599  0.0
H  H9  1  0.23696960  0.30827584  0.77483659  1  0.098768  0.000703  0.103509  0.115605  0.000476  1.015588  0.0
H  H10  1  0.63951628  0.34986975  0.01024760  1  0.054669  -4e-06  0.102685  0.068969  -1.5e-05  0.976075  0.0
H  H11  1  0.36048453  0.65012871  0.98975182  1  0.054629  -4e-06  0.102677  0.068926  -1.5e-05  0.976091  0.0
H  H12  1  0.82522744  0.35987463  0.99495261  1  0.044466  5e-06  0.096694  0.060234  0.0  0.985999  0.0
H  H13  1  0.17477436  0.64012795  0.00504751  1  0.044462  5e-06  0.096702  0.060208  0.0  0.985993  0.0
H  H14  1  0.59377587  0.27724477  0.91191775  1  -0.003116  -1.5e-05  0.090273  0.08345  -4.2e-05  0.998532  0.0
H  H15  1  0.40622605  0.72275368  0.08808174  1  -0.003098  -1.5e-05  0.090268  0.083391  -4.2e-05  0.998532  0.0
H  H16  1  0.56396529  0.44609866  0.92153705  1  0.045636  -9e-06  0.09529  0.098872  -1.9e-05  0.984918  0.0
H  H17  1  0.43603418  0.55389877  0.07846182  1  0.045456  -9e-06  0.095287  0.098865  -1.9e-05  0.9849  0.0
H  H18  1  0.84651944  0.35712985  0.88996614  1  0.008841  8e-06  0.079926  0.066249  4e-06  1.015406  0.0
H  H19  1  0.15348186  0.64287066  0.11003384  1  0.009065  8e-06  0.079947  0.066264  4e-06  1.015407  0.0
H  H20  1  0.83514129  0.53053980  0.90537206  1  0.026025  2.9e-05  0.087481  0.082403  1.5e-05  0.988984  0.0
H  H21  1  0.16486001  0.46946072  0.09462832  1  0.026034  2.9e-05  0.087473  0.082392  1.5e-05  0.989036  0.0
H  H22  1  0.44473562  0.02049160  0.71191693  1  0.118535  2.2e-05  0.115771  0.145161  -0.000109  0.997294  0.0
H  H23  1  0.55526433  0.97950789  0.28808249  1  0.11854  2.2e-05  0.115776  0.145161  -0.000109  0.997281  0.0
H  H24  1  0.93263000  0.07059327  0.74801797  1  0.140942  0.000223  0.110297  0.129623  0.000108  1.023873  0.0
H  H25  1  0.06736883  0.92940622  0.25198260  1  0.140933  0.000223  0.110285  0.129635  0.000108  1.023856  0.0
H  H26  1  0.64737379  0.66492648  0.69611332  1  0.08586  0.000551  0.102857  0.111545  0.000342  1.02008  0.0
H  H27  1  0.35262395  0.33507302  0.30388554  1  0.085829  0.000551  0.102842  0.111536  0.000342  1.020106  0.0
H  H28  1  0.88110003  0.25215930  0.80414717  1  0.05661  3e-06  0.096082  0.057769  -1.6e-05  1.012214  0.0
H  H29  1  0.11889966  0.74783915  0.19585299  1  0.056607  3e-06  0.096058  0.057755  -1.6e-05  1.012214  0.0
H  H30  1  0.91478918  0.30615770  0.74023652  1  0.080877  0.0  0.097071  0.066907  -5.5e-05  1.019555  0.0
H  H31  1  0.08521051  0.69384075  0.25976405  1  0.080878  0.0  0.097069  0.066908  -5.5e-05  1.019535  0.0
H  H32  1  0.73608518  0.46574820  0.74815901  1  0.024298  -5e-06  0.090343  0.091657  -2.4e-05  0.989256  0.0
H  H33  1  0.26391723  0.53425231  0.25184103  1  0.024287  -5e-06  0.090304  0.091615  -2.4e-05  0.989217  0.0
H  H34  1  0.89453990  0.50924185  0.80364834  1  0.031042  1.4e-05  0.096385  0.105948  -8e-06  0.986728  0.0
H  H35  1  0.10546201  0.49075660  0.19635196  1  0.031267  1.4e-05  0.096391  0.105949  -8e-06  0.986718  0.0
H  H36  1  0.62166792  0.50400384  0.82692427  1  0.013291  -5e-06  0.086553  0.079848  1e-06  1.019077  0.0
H  H37  1  0.37833313  0.49599565  0.17307563  1  0.013279  -5e-06  0.086519  0.079804  1e-06  1.019029  0.0
H  H38  1  0.59591421  0.32450686  0.81431234  1  0.061022  0.000174  0.087504  0.087442  0.000145  1.002938  0.0
H  H39  1  0.40408795  0.67549262  0.18568763  1  0.0609  0.000174  0.087513  0.087442  0.000145  1.002983  0.0
H  H40  1  0.40310432  0.92146788  0.15973622  1  0.121839  0.000527  0.136145  0.10631  -6e-06  1.008894  0.0
H  H41  1  0.59689537  0.07853058  0.84026394  1  0.12186  0.000528  0.136159  0.106317  -6e-06  1.008899  0.0
H  H42  1  0.21995432  0.26657588  0.12537421  1  0.117396  0.001009  0.126153  0.128479  0.000441  1.007951  0.001
H  H43  1  0.78004672  0.73342360  0.87462651  1  0.117417  0.001009  0.12618  0.128513  0.000441  1.007999  0.001
H  H44  1  0.53070348  0.35161097  0.16834039  1  0.10077  0.001014  0.115059  0.105255  0.000294  1.046346  0.001
H  H45  1  0.46929558  0.64838953  0.83166148  1  0.100482  0.001014  0.115081  0.105304  0.000294  1.046408  0.001
H  H46  1  0.03996050  0.01265175  0.14356790  1  0.119199  2.8e-05  0.116766  0.116673  -2.4e-05  0.988283  0.0
H  H47  1  0.96003920  0.98734670  0.85643185  1  0.119273  2.8e-05  0.116775  0.11671  -2.4e-05  0.988233  0.0
H  H48  1  0.12501979  0.87525436  0.12096149  1  0.038158  5.2e-05  0.111512  0.091998  2.1e-05  0.997012  0.0
H  H49  1  0.87498015  0.12474513  0.87903833  1  0.038173  5.2e-05  0.111524  0.09202  2.1e-05  0.997007  0.0
H  H50  1  0.88273591  0.09789000  0.07599483  1  0.118055  5.9e-05  0.108029  0.129339  -2.8e-05  1.010769  0.0
H  H51  1  0.11726515  0.90210949  0.92400508  1  0.118173  5.9e-05  0.108024  0.129336  -2.8e-05  1.010767  0.0
H  H52  1  0.21384765  0.88361064  0.02334930  1  0.040305  -2e-06  0.100126  0.098477  -1.6e-05  1.013015  0.0
H  H53  1  0.78615204  0.11638782  0.97665086  1  0.040321  -2e-06  0.100139  0.098482  -1.6e-05  1.013008  0.0
H  H54  1  0.86986358  0.71004003  0.34733135  1  0.11269  0.000802  0.128277  0.128093  0.00024  0.975097  0.001
H  H55  1  0.13013806  0.28995738  0.65267011  1  0.112637  0.000802  0.128293  0.128146  0.00024  0.975073  0.001
H  H56  1  0.13414529  0.91626062  0.38272535  1  0.105801  0.001112  0.123205  0.126682  0.000481  1.002454  0.0
H  H57  1  0.86585548  0.08373782  0.61727652  1  0.105774  0.001112  0.12319  0.126635  0.000481  1.002504  0.0
H  H58  1  0.24680524  0.52351185  0.36896235  1  0.143427  0.000558  0.13684  0.102449  4.1e-05  1.012158  0.0
H  H59  1  0.75319803  0.47648763  0.63103770  1  0.143464  0.000558  0.136845  0.102483  4.1e-05  1.012102  0.0
H  H60  1  0.42798996  0.85132393  0.36000233  1  0.116063  9.9e-05  0.113587  0.101633  3.5e-05  1.026551  0.0
H  H61  1  0.57200937  0.14867762  0.63999798  1  0.116038  9.9e-05  0.113594  0.101641  3.5e-05  1.026576  0.0
H  H62  1  0.45885659  0.71804713  0.39845187  1  0.074346  0.000123  0.118944  0.107075  6.2e-05  0.971544  0.0
H  H63  1  0.54114656  0.28195647  0.60154880  1  0.074427  0.000123  0.118954  0.107119  6.2e-05  0.971594  0.0
H  H64  1  0.29704122  0.79287992  0.49450062  1  0.046734  8e-06  0.0997  0.099784  -5e-06  1.038231  0.0
H  H65  1  0.70296169  0.20712265  0.50549997  1  0.046702  8e-06  0.099698  0.099743  -5e-06  1.038246  0.0
H  H66  1  0.60883210  0.04381473  0.41615559  1  0.051426  -1.9e-05  0.10424  0.112432  -2.9e-05  0.997081  0.0
H  H67  1  0.39116833  0.95618682  0.58384479  1  0.051498  -1.9e-05  0.104228  0.112422  -2.9e-05  0.997046  0.0
H  H68  1  0.16334498  0.25243879  0.37868184  1  0.157019  0.000535  0.129612  0.093214  4.4e-05  1.056519  0.0
H  H69  1  0.83665523  0.74756174  0.62131724  1  0.157039  0.000535  0.129622  0.093205  4.4e-05  1.056557  0.0
H  H70  1  0.79874707  0.36541559  0.44332808  1  0.099691  0.000835  0.113194  0.108276  0.000225  1.036637  0.001
H  H71  1  0.20125263  0.63458287  0.55667168  1  0.099676  0.000835  0.113198  0.108282  0.000225  1.036638  0.001
H  H72  1  0.00630071  0.31025511  0.53107605  1  0.144645  0.000933  0.114767  0.112809  0.000373  1.053867  0.001
H  H73  1  0.99370011  0.68974335  0.46892297  1  0.144631  0.000933  0.114747  0.112819  0.000373  1.053836  0.001
H  H74  1  0.29739743  0.15957124  0.47124629  1  0.079453  5.8e-05  0.110519  0.096428  1.4e-05  0.997416  0.0
H  H75  1  0.70260278  0.84042929  0.52875279  1  0.079456  5.8e-05  0.110501  0.096371  1.4e-05  0.997441  0.0
H  H76  1  0.25308335  0.22964043  0.53515427  1  0.055536  0.000178  0.117726  0.104476  6.9e-05  0.963185  0.0
H  H77  1  0.74691796  0.77036010  0.46484489  1  0.055495  0.000178  0.117711  0.104437  6.9e-05  0.963229  0.0
H  H78  1  0.36400896  0.47555889  0.57892905  1  0.124876  0.000124  0.104417  0.118162  3.6e-05  1.023392  0.0
H  H79  1  0.63599235  0.52444163  0.42107052  1  0.124845  0.000124  0.104422  0.118152  3.6e-05  1.023375  0.0
H  H80  1  0.44863349  0.31337368  0.41734226  1  0.093853  0.00013  0.100137  0.102129  7.9e-05  1.027773  0.0
H  H81  1  0.55136585  0.68662787  0.58265723  1  0.093857  0.00013  0.100153  0.102146  7.9e-05  1.027748  0.0
C  C82  1  0.80998594  0.43096340  0.20233526  1  1.544062  0.002298  0.207894  0.56677  0.001439  4.199411  0.0
C  C83  1  0.19001425  0.56903712  0.79766504  1  1.544161  0.002299  0.207858  0.566738  0.001439  4.199471  0.0
C  C84  1  0.79078981  0.53121696  0.16238411  1  -0.057528  0.013007  -0.024184  -0.025225  0.007735  4.023568  0.01
C  C85  1  0.20921064  0.46878459  0.83761545  1  -0.057668  0.013007  -0.024152  -0.025237  0.007735  4.023605  0.01
C  C86  1  0.79001137  0.49005052  0.10538547  1  0.0073  0.000241  -0.101205  -0.238063  -0.000225  3.97292  0.0
C  C87  1  0.20998526  0.50994898  0.89461373  1  0.007389  0.000241  -0.101232  -0.238048  -0.000225  3.972942  0.0
C  C88  1  0.77053032  0.58195457  0.06764047  1  0.500563  0.001108  0.079328  0.246355  0.000505  4.09991  0.001
C  C89  1  0.22946630  0.41804493  0.93235914  1  0.50056  0.001108  0.079346  0.246321  0.000504  4.099928  0.001
C  C90  1  0.75592476  0.71582249  0.08715563  1  -0.081818  -0.000137  -0.090221  -0.203079  -0.000559  3.931382  0.0
C  C91  1  0.24407076  0.28417701  0.91284390  1  -0.078445  -0.000141  -0.090273  -0.203164  -0.000559  3.931426  0.0
C  C92  1  0.75088541  0.75376398  0.14358830  1  -0.028716  0.005257  -0.020757  -0.017653  0.003293  4.023759  0.004
C  C93  1  0.24911097  0.24623449  0.85641124  1  -0.028554  0.005257  -0.020776  -0.017674  0.003292  4.023634  0.004
C  C94  1  0.76823652  0.66175795  0.18139822  1  -0.025864  0.001128  -0.09096  -0.139951  0.00027  3.965543  0.001
C  C95  1  0.23176368  0.33824257  0.81860127  1  -0.025935  0.001128  -0.090916  -0.13986  0.00027  3.965432  0.001
C  C96  1  0.72357412  0.89200488  0.16390975  1  1.520982  -0.004568  0.190596  0.540274  -0.006619  4.210388  -0.007
C  C97  1  0.27642335  0.10799358  0.83609027  1  1.520931  -0.004568  0.190561  0.540226  -0.006619  4.210555  -0.007
C  C98  1  0.72218380  0.40288427  0.98802394  1  0.397117  1.4e-05  -0.065886  0.034293  4e-06  3.897317  0.0
C  C99  1  0.27781504  0.59711522  0.01197582  1  0.397154  1.4e-05  -0.065889  0.034391  4e-06  3.897219  0.0
C  C100  1  0.65317925  0.38598120  0.92609028  1  0.007136  7e-06  -0.167508  -0.181098  -1.3e-05  3.972948  0.0
C  C101  1  0.34682156  0.61401726  0.07390914  1  0.007288  7e-06  -0.167503  -0.181033  -1.3e-05  3.972933  0.0
C  C102  1  0.76548086  0.42611165  0.88854243  1  -0.036229  2e-05  -0.168784  -0.143315  1.8e-05  3.955247  0.0
C  C103  1  0.23452020  0.57388784  0.11145706  1  -0.036431  2e-05  -0.168787  -0.143343  1.8e-05  3.955377  0.0
C  C104  1  0.37678261  0.74226443  0.68837764  1  1.515764  0.00373  0.207589  0.572899  0.002284  4.13862  0.001
C  C105  1  0.62321648  0.25773609  0.31162218  1  1.515573  0.003731  0.20761  0.573  0.002284  4.138588  0.001
C  C106  1  0.53029389  0.83371538  0.69955276  1  0.005405  0.003356  -0.021821  -0.014978  0.002067  4.036246  0.002
C  C107  1  0.46970656  0.16628617  0.30044721  1  0.005625  0.003355  -0.021826  -0.014974  0.002067  4.036248  0.002
C  C108  1  0.54473696  0.97643985  0.71123718  1  -0.027839  -0.000188  -0.095861  -0.227416  -0.000724  3.956173  0.0
C  C109  1  0.45526213  0.02356067  0.28876265  1  -0.02782  -0.000188  -0.095867  -0.227426  -0.000724  3.956145  0.0
C  C110  1  0.68954971  0.06345757  0.72754283  1  0.442833  0.000739  0.076575  0.242686  0.000349  4.111635  0.001
C  C111  1  0.31045023  0.93654192  0.27245699  1  0.442854  0.000739  0.076557  0.242663  0.000349  4.111656  0.001
C  C112  1  0.81867566  0.00690649  0.73345440  1  -0.048286  0.001096  -0.103471  -0.241089  0.000608  3.972935  0.001
C  C113  1  0.18132342  0.99309403  0.26654583  1  -0.048262  0.001096  -0.103428  -0.241059  0.000608  3.972871  0.001
C  C114  1  0.80238325  0.86320418  0.72180291  1  -0.039295  0.013344  -0.022637  -0.015358  0.007882  4.014187  0.01
C  C115  1  0.19761694  0.13679634  0.27819739  1  -0.039292  0.013343  -0.022665  -0.015392  0.007882  4.014237  0.01
C  C116  1  0.65912858  0.77637660  0.70345230  1  -0.035923  0.00179  -0.097985  -0.160282  0.000932  3.987415  0.001
C  C117  1  0.34087051  0.22362393  0.29654712  1  -0.035908  0.00179  -0.097969  -0.160294  0.000932  3.987467  0.001
C  C118  1  0.94281709  0.80515664  0.73154353  1  1.584755  -0.000873  0.21501  0.578058  -0.001469  4.164496  -0.001
C  C119  1  0.05718285  0.19484284  0.26845670  1  1.58484  -0.000873  0.215004  0.578048  -0.001469  4.16457  -0.001
C  C120  1  0.83184161  0.29511260  0.76783162  1  0.338683  1.5e-05  -0.069813  0.02888  -3e-05  3.868717  0.0
C  C121  1  0.16816055  0.70488687  0.23216877  1  0.338707  1.5e-05  -0.069787  0.028893  -3e-05  3.868743  0.0
C  C122  1  0.78954239  0.43106802  0.78592546  1  0.035512  3e-06  -0.168651  -0.178148  -4.5e-05  3.93535  0.0
C  C123  1  0.21045866  0.56893146  0.21407444  1  0.035278  3e-06  -0.168653  -0.178156  -4.5e-05  3.935273  0.0
C  C124  1  0.68391699  0.42040164  0.82805343  1  -0.054175  8.1e-05  -0.169751  -0.147456  5.8e-05  3.931361  0.0
C  C125  1  0.31608430  0.57959888  0.17194695  1  -0.054049  8.1e-05  -0.169717  -0.147382  5.8e-05  3.931303  0.0
C  C126  1  0.39784211  0.02724546  0.15600835  1  0.980562  -0.004621  0.13988  0.091657  -0.005706  3.911975  -0.003
C  C127  1  0.60215648  0.97275300  0.84399174  1  0.980567  -0.00462  0.139837  0.091701  -0.005706  3.911972  -0.003
C  C128  1  0.30498111  0.20961247  0.13912145  1  0.330144  0.002917  0.000843  -0.104264  0.001564  3.915299  0.002
C  C129  1  0.69501857  0.79038598  0.86087912  1  0.330077  0.002917  0.000817  -0.104202  0.001564  3.915244  0.002
C  C130  1  0.45837394  0.24951336  0.16037114  1  0.396233  -0.001054  -0.004554  -0.030017  -0.001602  4.007445  -0.001
C  C131  1  0.54162352  0.75048509  0.83962969  1  0.396523  -0.001054  -0.004589  -0.030142  -0.001602  4.007578  -0.001
C  C132  1  0.11572213  0.98126784  0.11645676  1  0.301394  0.001168  -0.0453  -0.116673  0.000718  3.89098  0.001
C  C133  1  0.88427867  0.01873062  0.88354307  1  0.300977  0.001168  -0.045313  -0.116679  0.000718  3.890993  0.001
C  C134  1  0.05465724  0.98997651  0.05609285  1  -0.048135  0.000301  -0.014157  0.084628  0.000158  3.990231  0.0
C  C135  1  0.94534246  0.01002195  0.94390690  1  -0.047831  0.000301  -0.014145  0.084669  0.000158  3.990175  0.0
C  C136  1  0.93512144  0.05673972  0.04268824  1  -0.015805  0.00049  -0.09036  -0.134673  0.000354  3.976106  0.0
C  C137  1  0.06487936  0.94325873  0.95731159  1  -0.015865  0.00049  -0.090402  -0.134723  0.000354  3.976075  0.0
C  C138  1  0.11907021  0.93393542  0.01308821  1  -0.06963  0.000403  -0.09371  -0.131069  0.000194  3.999122  0.0
C  C139  1  0.88093084  0.06606406  0.98691170  1  -0.069617  0.000403  -0.093714  -0.13105  0.000194  3.999099  0.0
C  C140  1  0.98733566  0.70204212  0.35868782  1  0.39808  0.000348  0.004484  -0.034066  -6.4e-05  4.010367  0.001
C  C141  1  0.01266648  0.29795735  0.64131338  1  0.398509  0.000347  0.004441  -0.034212  -6.4e-05  4.010457  0.001
C  C142  1  0.11676755  0.80486617  0.37580262  1  0.299464  0.003331  0.00024  -0.115646  0.001754  3.937688  0.002
C  C143  1  0.88323322  0.19513227  0.62419925  1  0.299508  0.003331  0.00026  -0.115549  0.001754  3.937646  0.002
C  C144  1  0.17792791  0.60053838  0.36906327  1  1.000678  -0.004161  0.147442  0.098547  -0.005374  3.892532  -0.003
C  C145  1  0.82207536  0.39946110  0.63093677  1  1.000708  -0.00416  0.147439  0.098473  -0.005374  3.89254  -0.003
C  C146  1  0.39847750  0.80292189  0.39546400  1  0.294524  0.000946  -0.043024  -0.111694  0.00059  3.893529  0.001
C  C147  1  0.60152404  0.19707965  0.60453686  1  0.294454  0.000946  -0.043039  -0.111797  0.00059  3.893667  0.001
C  C148  1  0.44683400  0.90624345  0.44920103  1  -0.040548  0.000153  -0.014957  0.079496  7.1e-05  3.992442  0.0
C  C149  1  0.55316755  0.09375810  0.55079902  1  -0.040533  0.000153  -0.014954  0.079598  7.1e-05  3.992309  0.0
C  C150  1  0.38599791  0.88370819  0.49669226  1  -0.003218  0.000105  -0.095963  -0.141817  3.9e-05  4.01584  0.0
C  C151  1  0.61400252  0.11629335  0.50330853  1  -0.00318  0.000105  -0.095977  -0.141809  3.9e-05  4.015862  0.0
C  C152  1  0.56115533  0.02387704  0.45295126  1  -0.055926  6e-05  -0.091629  -0.136  2.5e-05  3.987701  0.0
C  C153  1  0.43884511  0.97612450  0.54704912  1  -0.055963  6e-05  -0.091649  -0.136061  2.5e-05  3.987688  0.0
C  C154  1  0.08962311  0.27368610  0.40739912  1  0.937538  -0.001464  0.133342  0.086463  -0.002583  3.910611  -0.001
C  C155  1  0.91037709  0.72631442  0.59260037  1  0.937501  -0.001464  0.133322  0.086416  -0.002583  3.910666  -0.001
C  C156  1  0.90484703  0.33249483  0.44303460  1  0.411773  0.000663  -0.007487  -0.034304  -1.6e-05  4.00865  0.001
C  C157  1  0.09515292  0.66750466  0.55696482  1  0.411702  0.000663  -0.007504  -0.034365  -1.6e-05  4.008716  0.001
C  C158  1  0.00570957  0.30560700  0.48658651  1  0.271601  0.002632  -0.008217  -0.11994  0.001345  3.938743  0.002
C  C159  1  0.99429174  0.69439352  0.51341305  1  0.271628  0.002632  -0.008209  -0.119958  0.001345  3.938728  0.002
C  C160  1  0.26844542  0.25052539  0.49342307  1  0.316279  0.001341  -0.044896  -0.109377  0.000791  3.900379  0.001
C  C161  1  0.73155504  0.74947617  0.50657609  1  0.31627  0.001341  -0.044871  -0.109295  0.000791  3.900274  0.001
C  C162  1  0.39150230  0.37798594  0.49767913  1  -0.04786  0.000419  -0.016495  0.078165  0.000198  3.987596  0.0
C  C163  1  0.60849816  0.62201562  0.50232002  1  -0.047599  0.000419  -0.016483  0.078158  0.000198  3.987543  0.0
C  C164  1  0.42293578  0.48431880  0.54397002  1  -0.048362  0.000355  -0.094033  -0.1442  0.000244  3.984665  0.0
C  C165  1  0.57706468  0.51568276  0.45602913  1  -0.048351  0.000355  -0.094054  -0.144184  0.000244  3.984638  0.0
C  C166  1  0.46994726  0.39469571  0.45384436  1  -0.098204  0.000328  -0.092043  -0.127973  0.000205  3.981313  0.0
C  C167  1  0.53005319  0.60530585  0.54615480  1  -0.098455  0.000328  -0.092123  -0.128038  0.000205  3.981373  0.0
N  N168  1  0.02741597  0.57538664  0.35473510  1  -1.192928  0.055663  -0.350958  -0.276418  0.032352  3.617519  0.049
N  N169  1  0.97258619  0.42461284  0.64526529  1  -1.193367  0.055664  -0.350973  -0.276428  0.032351  3.61762  0.049
N  N170  1  0.23683641  0.73868240  0.38223679  1  -1.229738  0.00115  -0.243622  0.043578  0.000228  3.776735  0.001
N  N171  1  0.76316377  0.26131811  0.61776392  1  -1.229783  0.00115  -0.243587  0.043682  0.000227  3.776786  0.001
N  N172  1  0.95891088  0.31287101  0.39402177  1  -1.168127  0.05941  -0.346883  -0.279158  0.034311  3.593252  0.053
N  N173  1  0.04108933  0.68712952  0.60597732  1  -1.168094  0.059409  -0.346835  -0.27905  0.034311  3.593161  0.053
N  N174  1  0.12193376  0.26759224  0.46318193  1  -1.232933  0.001832  -0.246962  0.037142  0.000606  3.767746  0.001
N  N175  1  0.87806780  0.73240931  0.53681770  1  -1.232895  0.001832  -0.246951  0.037189  0.000606  3.767765  0.001
N  N176  1  0.51501090  0.13501862  0.17101696  1  -1.189031  0.059334  -0.357305  -0.300384  0.034136  3.641092  0.053
N  N177  1  0.48498879  0.86497983  0.82898361  1  -1.189052  0.059333  -0.357295  -0.300314  0.034136  3.641039  0.053
N  N178  1  0.26831168  0.06856129  0.13674585  1  -1.212501  0.000827  -0.241229  0.044967  -8e-05  3.775746  0.001
N  N179  1  0.73168741  0.93143923  0.86325398  1  -1.212467  0.000827  -0.24121  0.044775  -8e-05  3.775821  0.001
O  O180  1  0.81036068  0.30864162  0.18060413  1  -1.150929  0.061907  -0.311775  -0.544078  0.033791  2.375731  0.056
O  O181  1  0.18963840  0.69135890  0.81939610  1  -1.150934  0.061908  -0.311773  -0.544068  0.03379  2.37579  0.056
O  O182  1  0.82164906  0.47700660  0.25432198  1  -1.145368  0.077695  -0.315456  -0.542441  0.042845  2.373271  0.071
O  O183  1  0.17835299  0.52299702  0.74567780  1  -1.145362  0.077696  -0.315424  -0.542411  0.042846  2.373262  0.071
O  O184  1  0.27393897  0.78686575  0.71135486  1  -1.135117  0.108832  -0.309771  -0.552883  0.061646  2.534576  0.099
O  O185  1  0.72606147  0.21313580  0.28864552  1  -1.135166  0.108831  -0.309786  -0.552931  0.061646  2.53453  0.099
O  O186  1  0.34371487  0.62485541  0.65750558  1  -1.149601  0.074663  -0.304345  -0.523411  0.041381  2.138355  0.065
O  O187  1  0.65628421  0.37514512  0.34249424  1  -1.149611  0.074662  -0.304318  -0.523422  0.04138  2.138365  0.065
O  O188  1  0.93175478  0.68081830  0.70783553  1  -1.156105  0.07223  -0.313611  -0.551803  0.038978  2.373167  0.066
O  O189  1  0.06824542  0.31918222  0.29216437  1  -1.156139  0.072232  -0.313615  -0.551811  0.03898  2.373188  0.066
O  O190  1  0.05830334  0.88738859  0.76189884  1  -1.144185  0.059954  -0.299813  -0.511236  0.033229  2.422387  0.056
O  O191  1  0.94169572  0.11261192  0.23810221  1  -1.144239  0.059952  -0.299816  -0.511241  0.033228  2.422421  0.056
O  O192  1  0.75123230  0.99019195  0.13611792  1  -1.133797  0.096224  -0.306068  -0.52607  0.05287  2.220066  0.087
O  O193  1  0.24876431  0.00980754  0.86388251  1  -1.133806  0.096225  -0.306087  -0.526079  0.05287  2.220146  0.087
O  O194  1  0.67560149  0.91237372  0.20973627  1  -1.139206  0.086477  -0.317729  -0.541702  0.047688  2.190992  0.078
O  O195  1  0.32439573  0.08762371  0.79026408  1  -1.139159  0.086475  -0.317677  -0.541646  0.047688  2.19106  0.078
O  O196  1  0.69208761  0.20095044  0.73821732  1  -1.087124  0.000422  -0.185615  -0.211221  0.000229  2.558528  0.0
O  O197  1  0.30791097  0.79904801  0.26178277  1  -1.087151  0.000422  -0.18561  -0.211208  0.000229  2.558565  0.0
O  O198  1  0.76044938  0.54816926  0.01104203  1  -1.070671  0.0004  -0.189987  -0.212263  0.000188  2.510429  0.0
O  O199  1  0.23954639  0.45183127  0.98895758  1  -1.070718  0.0004  -0.19001  -0.212263  0.000188  2.510447  0.0
