# generated using pymatgen
data_CdH8C8(SN3)2
_symmetry_space_group_name_H-M   'P 1'
_cell_length_a   5.53005253
_cell_length_b   6.93340677
_cell_length_c   16.21732759
_cell_angle_alpha   89.99949444
_cell_angle_beta   94.37662805
_cell_angle_gamma   89.99997804
_symmetry_Int_Tables_number   1
_chemical_formula_structural   CdH8C8(SN3)2
_chemical_formula_sum   'Cd2 H16 C16 S4 N12'
_cell_volume   619.99324536
_cell_formula_units_Z   2
loop_
 _symmetry_equiv_pos_site_id
 _symmetry_equiv_pos_as_xyz
  1  'x, y, z'
loop_
 _atom_site_type_symbol
 _atom_site_label
 _atom_site_symmetry_multiplicity
 _atom_site_fract_x
 _atom_site_fract_y
 _atom_site_fract_z
 _atom_site_occupancy
 _atom_site_pbe_bader_spin_density
 _atom_site_pbe_cm5_charge
 _atom_site_pbe_ddec_charge
 _atom_site_pbe_ddec_spin_density
 _atom_site_pbe_ddec_sum_bond_order
 _atom_site_pbe_magmom
Cd  Cd0  1  0.00001725  0.00000118  0.99999965  1  0  0.72946  0.723384  0  2.555621  0
Cd  Cd1  1  0.99999367  0.50000578  0.50000223  1  0  0.729485  0.723416  0  2.555622  0
H  H2  1  0.52536628  0.23153081  0.86828050  1  0  0.112811  0.10424  0  1.029856  0
H  H3  1  0.47463340  0.73152412  0.63172081  1  0  0.112815  0.104259  0  1.02981  0
H  H4  1  0.47463756  0.76847507  0.13171450  1  0  0.11279  0.104201  0  1.029881  0
H  H5  1  0.52536298  0.26847310  0.36828569  1  0  0.112784  0.104172  0  1.029939  0
H  H6  1  0.49125851  0.17318174  0.69891217  1  0  0.102858  0.132753  0  1.040344  0
H  H7  1  0.50871949  0.67317875  0.80108937  1  0  0.102873  0.132783  0  1.040248  0
H  H8  1  0.50872353  0.82680827  0.30108406  1  0  0.102856  0.13275  0  1.040346  0
H  H9  1  0.49128420  0.32680837  0.19891487  1  0  0.102864  0.132738  0  1.040426  0
H  H10  1  0.91021047  0.97283938  0.67189897  1  0  0.120118  0.113939  0  1.021455  0
H  H11  1  0.08976890  0.47284265  0.82810087  1  0  0.120117  0.113897  0  1.021485  0
H  H12  1  0.08976979  0.02714486  0.32809537  1  0  0.120126  0.113836  0  1.021634  0
H  H13  1  0.91023477  0.52714736  0.17190460  1  0  0.120141  0.113889  0  1.021574  0
H  H14  1  0.12616413  0.92641487  0.81823791  1  0  0.323627  0.26048  0  0.979513  0
H  H15  1  0.87382987  0.42641238  0.68175943  1  0  0.323593  0.26037  0  0.979581  0
H  H16  1  0.87383070  0.07358812  0.18175375  1  0  0.323573  0.260388  0  0.979552  0
H  H17  1  0.12616654  0.57358773  0.31824523  1  0  0.323574  0.260364  0  0.979572  0
C  C18  1  0.50460636  0.23131148  0.04297174  1  0  0.145371  0.26718  0  4.309901  0
C  C19  1  0.49540327  0.73131247  0.45703068  1  0  0.145449  0.267261  0  4.30972  0
C  C20  1  0.49541921  0.76870882  0.95702571  1  0  0.145413  0.267348  0  4.309075  0
C  C21  1  0.50460585  0.26870350  0.54297371  1  0  0.145429  0.267172  0  4.309281  0
C  C22  1  0.64978697  0.15850360  0.83010506  1  0  0.013489  0.009144  0  3.985302  0
C  C23  1  0.35020016  0.65850336  0.66989433  1  0  0.013503  0.009127  0  3.985111  0
C  C24  1  0.35020598  0.84149074  0.16989025  1  0  0.013497  0.009168  0  3.985318  0
C  C25  1  0.64979809  0.34148809  0.33010914  1  0  0.013546  0.009289  0  3.98529  0
C  C26  1  0.63455358  0.12835193  0.74405885  1  0  -0.121139  -0.223623  0  4.010039  0
C  C27  1  0.36542813  0.62834846  0.75594235  1  0  -0.121167  -0.223689  0  4.009784  0
C  C28  1  0.36543029  0.87163664  0.25593682  1  0  -0.121131  -0.22358  0  4.010088  0
C  C29  1  0.63457375  0.37163578  0.24406122  1  0  -0.121121  -0.223596  0  4.010108  0
C  C30  1  0.84359582  0.02621180  0.72888353  1  0  0.021167  0.005452  0  3.918206  0
C  C31  1  0.15638788  0.52620661  0.77111626  1  0  0.021208  0.00554  0  3.918181  0
C  C32  1  0.15639352  0.97378109  0.27111044  1  0  0.021213  0.00554  0  3.91849  0
C  C33  1  0.84361393  0.47377907  0.22889101  1  0  0.021111  0.005351  0  3.918641  0
S  S34  1  0.24975766  0.34087695  0.01791539  1  0  -0.139626  -0.268198  0  2.503459  0
S  S35  1  0.75024820  0.84087882  0.48208529  1  0  -0.139672  -0.268278  0  2.503411  0
S  S36  1  0.75027526  0.65913037  0.98207672  1  0  -0.139617  -0.268203  0  2.503049  0
S  S37  1  0.24973550  0.15913571  0.51792024  1  0  -0.139671  -0.2682  0  2.503081  0
N  N38  1  0.96918057  0.00097523  0.80296566  1  0  -0.281679  -0.084326  0  3.733964  0
N  N39  1  0.03080862  0.50096728  0.69703376  1  0  -0.281676  -0.084201  0  3.734059  0
N  N40  1  0.03081967  0.99902920  0.19702738  1  0  -0.281612  -0.084094  0  3.733568  0
N  N41  1  0.96918236  0.49902995  0.30297013  1  0  -0.281526  -0.083891  0  3.733804  0
N  N42  1  0.85436656  0.08011174  0.86525904  1  0  -0.257534  -0.184889  0  3.434537  0
N  N43  1  0.14562615  0.58010938  0.63474018  1  0  -0.257559  -0.184925  0  3.434656  0
N  N44  1  0.14563550  0.91989125  0.13473406  1  0  -0.257576  -0.185015  0  3.43447  0
N  N45  1  0.85437024  0.41989217  0.36526632  1  0  -0.257634  -0.185169  0  3.434624  0
N  N46  1  0.68833794  0.15037845  0.06392732  1  0  -0.404213  -0.49383  0  3.166339  0
N  N47  1  0.31167551  0.65038856  0.43607181  1  0  -0.404254  -0.493889  0  3.166312  0
N  N48  1  0.31167865  0.84963752  0.93606494  1  0  -0.40424  -0.494025  0  3.166087  0
N  N49  1  0.68833357  0.34963895  0.56393504  1  0  -0.404208  -0.493809  0  3.166148  0
