# generated using pymatgen
data_BaH4C5N2O5
_symmetry_space_group_name_H-M   'P 1'
_cell_length_a   7.21650663
_cell_length_b   10.17395706
_cell_length_c   10.54828067
_cell_angle_alpha   89.99995220
_cell_angle_beta   90.00000444
_cell_angle_gamma   101.72134467
_symmetry_Int_Tables_number   1
_chemical_formula_structural   BaH4C5N2O5
_chemical_formula_sum   'Ba4 H16 C20 N8 O20'
_cell_volume   758.30964077
_cell_formula_units_Z   4
loop_
 _symmetry_equiv_pos_site_id
 _symmetry_equiv_pos_as_xyz
  1  'x, y, z'
loop_
 _atom_site_type_symbol
 _atom_site_label
 _atom_site_symmetry_multiplicity
 _atom_site_fract_x
 _atom_site_fract_y
 _atom_site_fract_z
 _atom_site_occupancy
 _atom_site_hle17_bader_spin_density
 _atom_site_hle17_ddec_charge
 _atom_site_hle17_ddec_spin_density
 _atom_site_hle17_ddec_sum_bond_order
 _atom_site_hle17_magmom
 _atom_site_hse06_10hf_bader_spin_density
 _atom_site_hse06_10hf_ddec_charge
 _atom_site_hse06_10hf_ddec_spin_density
 _atom_site_hse06_10hf_ddec_sum_bond_order
 _atom_site_hse06_10hf_magmom
 _atom_site_hse06_bader_spin_density
 _atom_site_hse06_ddec_charge
 _atom_site_hse06_ddec_spin_density
 _atom_site_hse06_ddec_sum_bond_order
 _atom_site_hse06_magmom
 _atom_site_pbe_bader_spin_density
 _atom_site_pbe_cm5_charge
 _atom_site_pbe_ddec_charge
 _atom_site_pbe_ddec_spin_density
 _atom_site_pbe_ddec_sum_bond_order
 _atom_site_pbe_magmom
Ba  Ba0  1  0.16573602  0.26151218  0.14668352  1  0  1.624826  0  1.1621  0  0  1.468124  0  1.56908  0  0  1.508376  0  1.525702  0  0  0.95776  1.437845  0  1.600766  0
Ba  Ba1  1  0.33426375  0.73848663  0.64668330  1  0  1.624791  0  1.162112  0  0  1.468107  0  1.569079  0  0  1.508356  0  1.525701  0  0  0.957756  1.437827  0  1.600766  0
Ba  Ba2  1  0.83426353  0.73848778  0.85331700  1  0  1.624801  0  1.162115  0  0  1.46812  0  1.569073  0  0  1.508371  0  1.525691  0  0  0.957764  1.437841  0  1.60076  0
Ba  Ba3  1  0.66573579  0.26151334  0.35331626  1  0  1.624821  0  1.162109  0  0  1.468144  0  1.569049  0  0  1.508395  0  1.525671  0  0  0.957764  1.437862  0  1.600736  0
H  H4  1  0.70323340  0.95081778  0.42321174  1  0  0.290397  0  0.950755  0  0  0.264494  0  1.023757  0  0  0.274938  0  1.014356  0  0  0.322518  0.257063  0  1.030641  0
H  H5  1  0.79676840  0.04918227  0.92321207  1  0  0.290364  0  0.950691  0  0  0.264463  0  1.023703  0  0  0.274908  0  1.014299  0  0  0.322498  0.257033  0  1.030588  0
H  H6  1  0.29676753  0.04918218  0.57678878  1  0  0.290366  0  0.950699  0  0  0.264465  0  1.023717  0  0  0.274909  0  1.014316  0  0  0.322492  0.257034  0  1.030601  0
H  H7  1  0.20323282  0.95081870  0.07678749  1  0  0.290398  0  0.950749  0  0  0.264497  0  1.023758  0  0  0.274941  0  1.014359  0  0  0.322515  0.257066  0  1.030643  0
H  H8  1  0.14324599  0.36629947  0.43734222  1  0  0.43138  0  0.871696  0  0  0.397305  0  0.940965  0  0  0.40965  0  0.922876  0  0  0.30369  0.388463  0  0.953946  0
H  H9  1  0.35675234  0.63369907  0.93734209  1  0  0.431398  0  0.871671  0  0  0.397311  0  0.94096  0  0  0.409656  0  0.922871  0  0  0.303682  0.38847  0  0.953939  0
H  H10  1  0.85675327  0.63369948  0.56265735  1  0  0.43138  0  0.871696  0  0  0.397292  0  0.940987  0  0  0.409638  0  0.922897  0  0  0.30367  0.388451  0  0.953966  0
H  H11  1  0.64324692  0.36629988  0.06265748  1  0  0.431396  0  0.871676  0  0  0.397311  0  0.940962  0  0  0.409657  0  0.922871  0  0  0.303683  0.388471  0  0.95394  0
H  H12  1  0.55879957  0.66311819  0.12501159  1  0  0.139705  0  0.965855  0  0  0.147605  0  1.029505  0  0  0.152139  0  1.026099  0  0  0.125216  0.144189  0  1.032327  0
H  H13  1  0.94119951  0.33688212  0.62501171  1  0  0.139705  0  0.965858  0  0  0.147605  0  1.029506  0  0  0.152139  0  1.0261  0  0  0.12521  0.144189  0  1.032327  0
H  H14  1  0.44119887  0.33688277  0.87498892  1  0  0.139684  0  0.965885  0  0  0.147585  0  1.029534  0  0  0.152119  0  1.026128  0  0  0.125204  0.144171  0  1.032356  0
H  H15  1  0.05880142  0.66311785  0.37498786  1  0  0.139709  0  0.965854  0  0  0.147609  0  1.029503  0  0  0.152143  0  1.026097  0  0  0.125222  0.144193  0  1.032326  0
H  H16  1  0.07045300  0.21131959  0.46683145  1  0  0.430064  0  0.830151  0  0  0.405134  0  0.897294  0  0  0.413544  0  0.887713  0  0  0.325724  0.39909  0  0.904261  0
H  H17  1  0.42954422  0.78867993  0.96683120  1  0  0.429933  0  0.830349  0  0  0.405028  0  0.897431  0  0  0.413437  0  0.887855  0  0  0.325674  0.398986  0  0.904391  0
H  H18  1  0.92954349  0.78867936  0.53316812  1  0  0.429897  0  0.830327  0  0  0.404994  0  0.897414  0  0  0.413403  0  0.887839  0  0  0.325664  0.398952  0  0.904372  0
H  H19  1  0.57045504  0.21131903  0.03316837  1  0  0.430074  0  0.830148  0  0  0.405146  0  0.897286  0  0  0.413555  0  0.887707  0  0  0.325717  0.399101  0  0.904255  0
C  C20  1  0.75129471  0.95780060  0.15145845  1  0  0.667431  0  3.932117  0  0  0.616855  0  4.235419  0  0  0.65221  0  4.223102  0  0  0.231188  0.592613  0  4.243112  0
C  C21  1  0.74870602  0.04220070  0.65145689  1  0  0.667522  0  3.932015  0  0  0.616957  0  4.2353  0  0  0.652313  0  4.222978  0  0  0.231179  0.592716  0  4.242993  0
C  C22  1  0.24870344  0.04219936  0.84854302  1  0  0.667557  0  3.931967  0  0  0.616975  0  4.235278  0  0  0.65233  0  4.222959  0  0  0.231222  0.592733  0  4.242974  0
C  C23  1  0.25129519  0.95780027  0.34854268  1  0  0.667487  0  3.932029  0  0  0.616907  0  4.235338  0  0  0.652262  0  4.22302  0  0  0.231191  0.592666  0  4.243029  0
C  C24  1  0.57658703  0.71491301  0.21507459  1  0  -0.187592  0  3.685099  0  0  -0.227281  0  3.950425  0  0  -0.230828  0  3.968735  0  0  -0.086854  -0.224822  0  3.938487  0
C  C25  1  0.92341370  0.28508823  0.71507475  1  0  -0.187592  0  3.685061  0  0  -0.22728  0  3.95038  0  0  -0.230827  0  3.968689  0  0  -0.086839  -0.22482  0  3.938442  0
C  C26  1  0.42341141  0.28508795  0.78492687  1  0  -0.187579  0  3.685031  0  0  -0.227262  0  3.950353  0  0  -0.230809  0  3.968662  0  0  -0.086833  -0.224806  0  3.938418  0
C  C27  1  0.07658751  0.71491274  0.28492482  1  0  -0.187607  0  3.685092  0  0  -0.227296  0  3.950417  0  0  -0.230845  0  3.968727  0  0  -0.086866  -0.224837  0  3.938478  0
C  C28  1  0.51349859  0.66249046  0.33417269  1  0  0.035763  0  3.787331  0  0  0.040048  0  4.048677  0  0  0.038744  0  4.065965  0  0  0.095811  0.040601  0  4.037336  0
C  C29  1  0.98650184  0.33750967  0.83417281  1  0  0.035787  0  3.787406  0  0  0.040096  0  4.048752  0  0  0.038789  0  4.066034  0  0  0.095833  0.040649  0  4.037414  0
C  C30  1  0.48649985  0.33751050  0.66582782  1  0  0.035794  0  3.787317  0  0  0.040099  0  4.048675  0  0  0.038792  0  4.065956  0  0  0.095847  0.040652  0  4.037338  0
C  C31  1  0.01349909  0.66249030  0.16582676  1  0  0.035794  0  3.787345  0  0  0.040096  0  4.048693  0  0  0.038792  0  4.065975  0  0  0.095831  0.040648  0  4.037355  0
C  C32  1  0.66499271  0.84778206  0.23852860  1  0  0.029365  0  3.724599  0  0  0.016866  0  3.992402  0  0  0.016174  0  4.010502  0  0  0.089532  0.017717  0  3.97988  0
C  C33  1  0.83500774  0.15221816  0.73852791  1  0  0.029342  0  3.724514  0  0  0.016854  0  3.992316  0  0  0.016162  0  4.010414  0  0  0.089535  0.017704  0  3.979799  0
C  C34  1  0.33500683  0.15221790  0.76147286  1  0  0.029342  0  3.724491  0  0  0.016851  0  3.99232  0  0  0.016159  0  4.010419  0  0  0.089532  0.017704  0  3.979798  0
C  C35  1  0.16499319  0.84778181  0.26147166  1  0  0.029368  0  3.724551  0  0  0.016883  0  3.992356  0  0  0.016192  0  4.010455  0  0  0.08956  0.017736  0  3.97983  0
C  C36  1  0.39916905  0.52817165  0.36615236  1  0  0.670315  0  3.922005  0  0  0.618321  0  4.216168  0  0  0.653059  0  4.2059  0  0  0.235693  0.594602  0  4.222391  0
C  C37  1  0.10083014  0.47182997  0.86615234  1  0  0.670428  0  3.921847  0  0  0.618361  0  4.216118  0  0  0.653113  0  4.205827  0  0  0.235706  0.594643  0  4.222343  0
C  C38  1  0.60082967  0.47183032  0.63384815  1  0  0.670433  0  3.921829  0  0  0.618368  0  4.216098  0  0  0.65312  0  4.205808  0  0  0.235708  0.594649  0  4.222322  0
C  C39  1  0.89917107  0.52817100  0.13384722  1  0  0.670404  0  3.921813  0  0  0.618362  0  4.216052  0  0  0.653109  0  4.205769  0  0  0.235739  0.594643  0  4.222277  0
N  N40  1  0.65442141  0.86608908  0.36632383  1  0  -0.155611  0  3.499802  0  0  -0.096807  0  3.738597  0  0  -0.108117  0  3.755832  0  0  -0.255525  -0.089197  0  3.726961  0
N  N41  1  0.84557901  0.13391102  0.86632315  1  0  -0.155549  0  3.499697  0  0  -0.096761  0  3.738503  0  0  -0.108071  0  3.755738  0  0  -0.255489  -0.089151  0  3.726868  0
N  N42  1  0.34557813  0.13391088  0.63367764  1  0  -0.155556  0  3.499711  0  0  -0.096774  0  3.738532  0  0  -0.108084  0  3.755766  0  0  -0.255491  -0.089164  0  3.726894  0
N  N43  1  0.15442053  0.86608894  0.13367642  1  0  -0.155616  0  3.499711  0  0  -0.096839  0  3.738532  0  0  -0.108154  0  3.75577  0  0  -0.255535  -0.08923  0  3.726896  0
N  N44  1  0.56146046  0.75633999  0.42534012  1  0  -0.285717  0  3.063495  0  0  -0.266656  0  3.344161  0  0  -0.272233  0  3.358916  0  0  -0.280776  -0.262174  0  3.334149  0
N  N45  1  0.93853995  0.24366006  0.92533936  1  0  -0.285781  0  3.063608  0  0  -0.266715  0  3.344278  0  0  -0.272291  0  3.359032  0  0  -0.280803  -0.262232  0  3.334267  0
N  N46  1  0.43853798  0.24366097  0.57466134  1  0  -0.285785  0  3.063599  0  0  -0.266717  0  3.344266  0  0  -0.272293  0  3.359021  0  0  -0.280798  -0.262233  0  3.334254  0
N  N47  1  0.06146070  0.75633890  0.07466021  1  0  -0.285768  0  3.063529  0  0  -0.266704  0  3.344211  0  0  -0.272279  0  3.358963  0  0  -0.280803  -0.262221  0  3.334199  0
O  O48  1  0.41721051  0.43155881  0.29314809  1  0  -0.736812  0  1.99429  0  0  -0.666301  0  2.241135  0  0  -0.693525  0  2.231078  0  0  -0.412464  -0.646504  0  2.247451  0
O  O49  1  0.08278730  0.56844288  0.79314894  1  0  -0.736852  0  1.994283  0  0  -0.666335  0  2.241194  0  0  -0.693565  0  2.231132  0  0  -0.412486  -0.646537  0  2.24751  0
O  O50  1  0.58278960  0.56844316  0.70685148  1  0  -0.736876  0  1.994305  0  0  -0.666349  0  2.241201  0  0  -0.693578  0  2.231138  0  0  -0.412491  -0.646552  0  2.247516  0
O  O51  1  0.91721362  0.43155709  0.20685063  1  0  -0.736858  0  1.994208  0  0  -0.666351  0  2.241124  0  0  -0.693579  0  2.231064  0  0  -0.412513  -0.646551  0  2.247438  0
O  O52  1  0.28890023  0.51771658  0.46173666  1  0  -0.657818  0  1.940633  0  0  -0.596963  0  2.162526  0  0  -0.623369  0  2.153012  0  0  -0.314731  -0.578277  0  2.168664  0
O  O53  1  0.21110115  0.48228296  0.96173569  1  0  -0.657873  0  1.940567  0  0  -0.59697  0  2.162473  0  0  -0.623389  0  2.152966  0  0  -0.314722  -0.578285  0  2.168611  0
O  O54  1  0.71110042  0.48228238  0.53826385  1  0  -0.657857  0  1.940535  0  0  -0.596963  0  2.162448  0  0  -0.623386  0  2.152941  0  0  -0.314727  -0.578278  0  2.168586  0
O  O55  1  0.78889978  0.51771701  0.03826387  1  0  -0.657836  0  1.940593  0  0  -0.596954  0  2.162503  0  0  -0.623372  0  2.152991  0  0  -0.314723  -0.578271  0  2.168641  0
O  O56  1  0.82328216  0.07165501  0.19983351  1  0  -0.727234  0  1.936411  0  0  -0.667328  0  2.185586  0  0  -0.692699  0  2.174228  0  0  -0.3746  -0.649297  0  2.193156  0
O  O57  1  0.67671858  0.92834624  0.69983218  1  0  -0.727241  0  1.936336  0  0  -0.667358  0  2.185536  0  0  -0.692728  0  2.174169  0  0  -0.374557  -0.649329  0  2.193108  0
O  O58  1  0.17671739  0.92834495  0.80016700  1  0  -0.727293  0  1.936384  0  0  -0.667384  0  2.185561  0  0  -0.692755  0  2.174199  0  0  -0.374618  -0.649354  0  2.193132  0
O  O59  1  0.32328264  0.07165473  0.30016644  1  0  -0.727282  0  1.936394  0  0  -0.667369  0  2.185553  0  0  -0.692741  0  2.174196  0  0  -0.374611  -0.649338  0  2.193123  0
O  O60  1  0.05114036  0.28265810  0.40999087  1  0  -0.900408  0  1.869616  0  0  -0.843245  0  2.072661  0  0  -0.862754  0  2.042811  0  0  -0.626443  -0.829243  0  2.094008  0
O  O61  1  0.44885826  0.71734148  0.90999068  1  0  -0.90028  0  1.869746  0  0  -0.84312  0  2.07279  0  0  -0.862629  0  2.042943  0  0  -0.626385  -0.829118  0  2.094132  0
O  O62  1  0.94885890  0.71734086  0.59000869  1  0  -0.900228  0  1.869739  0  0  -0.84307  0  2.072783  0  0  -0.862578  0  2.042935  0  0  -0.626367  -0.829068  0  2.094124  0
O  O63  1  0.55114100  0.28265748  0.09000889  1  0  -0.900429  0  1.869563  0  0  -0.843261  0  2.072607  0  0  -0.862771  0  2.042756  0  0  -0.626432  -0.82926  0  2.093952  0
O  O64  1  0.74463736  0.92971919  0.03325626  1  0  -0.668029  0  1.985027  0  0  -0.610167  0  2.221823  0  0  -0.635292  0  2.210758  0  0  -0.335743  -0.592666  0  2.229449  0
O  O65  1  0.75536618  0.07028222  0.53325467  1  0  -0.668118  0  1.985015  0  0  -0.610253  0  2.221797  0  0  -0.635385  0  2.210745  0  0  -0.335789  -0.592752  0  2.229423  0
O  O66  1  0.25536357  0.07028078  0.96674426  1  0  -0.668093  0  1.985028  0  0  -0.610217  0  2.22182  0  0  -0.635348  0  2.210768  0  0  -0.335762  -0.592716  0  2.229447  0
O  O67  1  0.24463670  0.92971976  0.46674395  1  0  -0.668053  0  1.985023  0  0  -0.610189  0  2.221826  0  0  -0.635314  0  2.210761  0  0  -0.335755  -0.592689  0  2.229452  0
