# generated using pymatgen
data_Zn4H58C74N7O20
_symmetry_space_group_name_H-M   'P 1'
_cell_length_a   13.89702109
_cell_length_b   16.63282835
_cell_length_c   18.13147037
_cell_angle_alpha   112.64359360
_cell_angle_beta   97.68599165
_cell_angle_gamma   101.01038453
_symmetry_Int_Tables_number   1
_chemical_formula_structural   Zn4H58C74N7O20
_chemical_formula_sum   'Zn8 H116 C148 N14 O40'
_cell_volume   3696.06415808
_cell_formula_units_Z   2
loop_
 _symmetry_equiv_pos_site_id
 _symmetry_equiv_pos_as_xyz
  1  'x, y, z'
loop_
 _atom_site_type_symbol
 _atom_site_label
 _atom_site_symmetry_multiplicity
 _atom_site_fract_x
 _atom_site_fract_y
 _atom_site_fract_z
 _atom_site_occupancy
 _atom_site_pbe_bader_charge
 _atom_site_pbe_bader_spin_density
 _atom_site_pbe_cm5_charge
 _atom_site_pbe_ddec_charge
 _atom_site_pbe_ddec_spin_density
 _atom_site_pbe_ddec_sum_bond_order
 _atom_site_pbe_magmom
Zn  Zn0  1  0.83883849  0.65718052  0.14843446  1  1.249535  0  0.699717  0.758239  0  2.380408  0
Zn  Zn1  1  0.16116199  0.34281893  0.85156635  1  1.249508  0  0.699738  0.758315  0  2.380415  0
Zn  Zn2  1  0.17948930  0.84898162  0.84683101  1  1.246265  0  0.700162  0.760661  0  2.40252  0
Zn  Zn3  1  0.82050993  0.15101852  0.15316827  1  1.246208  0  0.700139  0.760615  0  2.402486  0
Zn  Zn4  1  0.85322183  0.08137290  0.40301469  1  1.277551  0  0.688109  0.865114  0  2.241781  0
Zn  Zn5  1  0.14677957  0.91862723  0.59698535  1  1.277541  0  0.688104  0.865029  0  2.241776  0
Zn  Zn6  1  0.84759934  0.59182083  0.39867468  1  1.28024  0  0.685017  0.858101  0  2.250287  0
Zn  Zn7  1  0.15239524  0.40817596  0.60132350  1  1.28031  0  0.685038  0.858116  0  2.25026  0
H  H8  1  0.17610802  0.60740978  0.14530471  1  0.056027  0  0.108209  0.12527  0  0.999783  0
H  H9  1  0.82389081  0.39259373  0.85469961  1  0.056205  0  0.108162  0.125192  0  0.999787  0
H  H10  1  0.37517907  0.66975578  0.37442319  1  0.10973  0  0.103154  0.118291  0  1.051606  0
H  H11  1  0.62482195  0.33024298  0.62557964  1  0.109707  0  0.103123  0.118219  0  1.05162  0
H  H12  1  0.22900899  0.66919344  0.44019562  1  0.073429  0  0.106942  0.106118  0  1.019847  0
H  H13  1  0.77099215  0.33080328  0.55980759  1  0.073624  0  0.106989  0.106139  0  1.019838  0
H  H14  1  0.53819761  0.61400750  0.20324899  1  0.102405  0  0.109996  0.131745  0  0.982157  0
H  H15  1  0.46180234  0.38599264  0.79675035  1  0.102371  0  0.109989  0.131737  0  0.982196  0
H  H16  1  0.37365873  0.81047366  0.30158444  1  0.058677  0  0.102885  0.116063  0  1.018875  0
H  H17  1  0.62634254  0.18952850  0.69841411  1  0.058663  0  0.102894  0.116073  0  1.018842  0
H  H18  1  0.53274173  0.93425992  0.34637420  1  0.067839  0  0.110093  0.117289  0  0.984833  0
H  H19  1  0.46725940  0.06574429  0.65362066  1  0.067861  0  0.110043  0.117243  0  0.984956  0
H  H20  1  0.48314414  0.87047961  0.79027628  1  0.109214  0  0.115074  0.137081  0  0.972542  0
H  H21  1  0.51684885  0.12951450  0.20971638  1  0.109432  0  0.115062  0.137042  0  0.972605  0
H  H22  1  0.64356168  0.66668039  0.75738241  1  0.060805  0  0.102821  0.115897  0  1.012732  0
H  H23  1  0.35644057  0.33331769  0.24261753  1  0.060844  0  0.102809  0.115893  0  1.012788  0
H  H24  1  0.47814479  0.54790392  0.70761645  1  0.091534  0  0.108206  0.113479  0  0.998425  0
H  H25  1  0.52185735  0.45209620  0.29238421  1  0.091388  0  0.108218  0.11352  0  0.998383  0
H  H26  1  0.85170537  0.88719322  0.86278090  1  0.094526  0  0.108355  0.123923  0  0.999033  0
H  H27  1  0.14829011  0.11280899  0.13721766  1  0.094453  0  0.108318  0.123889  0  0.998978  0
H  H28  1  0.62271900  0.79803122  0.64240507  1  0.102342  0  0.101314  0.11868  0  1.045541  0
H  H29  1  0.37728206  0.20197027  0.35759156  1  0.102353  0  0.101269  0.118637  0  1.045577  0
H  H30  1  0.75614595  0.81404723  0.56650670  1  0.115622  0  0.106506  0.105734  0  1.02701  0
H  H31  1  0.24385389  0.18595020  0.43349002  1  0.11558  0  0.106497  0.105725  0  1.026987  0
H  H32  1  0.78952254  0.77116158  0.06114859  1  0.115404  0  0.117525  0.091908  0  1.022355  0
H  H33  1  0.21047400  0.22883925  0.93885179  1  0.115484  0  0.11755  0.09193  0  1.022407  0
H  H34  1  0.80211775  0.77678510  0.92708625  1  0.065583  0  0.107449  0.11806  0  1.001336  0
H  H35  1  0.19788128  0.22321436  0.07291387  1  0.065513  0  0.107443  0.11805  0  1.001356  0
H  H36  1  0.96957266  0.57424624  0.88800266  1  0.151217  0  0.107181  0.129109  0  1.048818  0
H  H37  1  0.03042306  0.42575189  0.11199667  1  0.151204  0  0.107168  0.129092  0  1.048859  0
H  H38  1  0.94726080  0.57654450  0.02144080  1  0.145103  0  0.117334  0.097483  0  1.019419  0
H  H39  1  0.05273533  0.42345498  0.97855905  1  0.145032  0  0.11731  0.097406  0  1.019509  0
H  H40  1  0.71893685  0.58406094  0.50890708  1  0.097918  0  0.116715  0.084524  0  1.021631  0
H  H41  1  0.28106147  0.41593852  0.49109463  1  0.097694  0  0.116711  0.084545  0  1.02164  0
H  H42  1  0.72710551  0.57759768  0.64479068  1  0.083635  0  0.101905  0.106037  0  1.020791  0
H  H43  1  0.27289540  0.42240311  0.35521231  1  0.083054  0  0.101928  0.106034  0  1.02079  0
H  H44  1  0.04374870  0.59140568  0.66052264  1  0.168901  0  0.113874  0.142477  0  1.010033  0
H  H45  1  0.95625126  0.40859445  0.33947782  1  0.168865  0  0.113879  0.142488  0  1.010037  0
H  H46  1  0.02190086  0.59770926  0.52480767  1  0.137606  0  0.120387  0.095479  0  1.01713  0
H  H47  1  0.97809776  0.40228884  0.47519303  1  0.13756  0  0.120384  0.095498  0  1.017177  0
H  H48  1  0.83195173  0.69913098  0.79129895  1  0.033092  0  0.090394  0.087669  0  1.016043  0
H  H49  1  0.16804655  0.30086850  0.20869835  1  0.033149  0  0.09038  0.087647  0  1.016133  0
H  H50  1  0.96307926  0.72623165  0.81958355  1  0.102489  0  0.101547  0.118897  0  1.003317  0
H  H51  1  0.03691979  0.27376781  0.18041878  1  0.102388  0  0.101586  0.118999  0  1.003361  0
H  H52  1  0.83011853  0.53154155  0.74546406  1  0.055415  0  0.091852  0.093211  0  1.013555  0
H  H53  1  0.16988268  0.46845789  0.25453627  1  0.05544  0  0.091859  0.093228  0  1.013513  0
H  H54  1  0.96303497  0.56454253  0.76373736  1  0.088397  0  0.103198  0.112726  0  0.981767  0
H  H55  1  0.03696614  0.43545894  0.23626533  1  0.088394  0  0.10319  0.112724  0  0.9818  0
H  H56  1  0.79442050  0.50991056  0.20277314  1  0.168554  0  0.127242  0.108976  0  0.993203  0
H  H57  1  0.20557823  0.49009026  0.79722854  1  0.168617  0  0.127232  0.108987  0  0.993186  0
H  H58  1  0.69033417  0.34945111  0.14382036  1  0.125568  0  0.107922  0.12567  0  1.038163  0
H  H59  1  0.30966653  0.65054901  0.85618126  1  0.12566  0  0.107934  0.125679  0  1.038141  0
H  H60  1  0.57667327  0.38061173  0.92527112  1  0.078881  0  0.105239  0.116443  0  1.031456  0
H  H61  1  0.42332989  0.61938703  0.07472804  1  0.078853  0  0.105231  0.116428  0  1.031425  0
H  H62  1  0.68392358  0.53969244  0.99330266  1  0.062772  0  0.117467  0.085583  0  0.989268  0
H  H63  1  0.31607888  0.46030631  0.00669809  1  0.062904  0  0.117506  0.085661  0  0.989134  0
H  H64  1  0.21570467  0.99528920  0.79058367  1  0.140388  0  0.127902  0.107392  0  0.986669  0
H  H65  1  0.78429590  0.00471296  0.20941757  1  0.140362  0  0.127939  0.107462  0  0.986727  0
H  H66  1  0.31428162  0.15726987  0.84962556  1  0.159525  0  0.108428  0.129127  0  1.043965  0
H  H67  1  0.68572041  0.84273227  0.15037746  1  0.159576  0  0.108424  0.129107  0  1.043958  0
H  H68  1  0.44923752  0.12371444  0.06134381  1  0.093977  0  0.104982  0.114422  0  1.024841  0
H  H69  1  0.55076277  0.87628433  0.93865729  1  0.094018  0  0.104987  0.114439  0  1.024797  0
H  H70  1  0.34527344  0.96341389  0.99402367  1  0.07727  0  0.11635  0.083469  0  0.989121  0
H  H71  1  0.65472684  0.03658488  0.00597688  1  0.077299  0  0.116322  0.083415  0  0.989107  0
H  H72  1  0.56234487  0.22443800  0.92523074  1  0.053349  0  0.100014  0.105754  0  0.969732  0
H  H73  1  0.43765718  0.77555941  0.07477004  1  0.05331  0  0.099999  0.105738  0  0.969757  0
H  H74  1  0.59288069  0.21703444  0.02042812  1  0.047217  0  0.096136  0.095715  0  1.000429  0
H  H75  1  0.40712104  0.78296432  0.97957312  1  0.047246  0  0.096148  0.095723  0  1.0004  0
H  H76  1  0.41899606  0.28820925  0.96837712  1  0.027834  0  0.098501  0.102101  0  0.989278  0
H  H77  1  0.58100753  0.71179085  0.03162478  1  0.027872  0  0.098534  0.102166  0  0.989311  0
H  H78  1  0.45044312  0.28190796  0.06415898  1  0.052728  0  0.096713  0.102219  0  0.981026  0
H  H79  1  0.54956120  0.71809214  0.93584353  1  0.052758  0  0.096677  0.102225  0  0.98113  0
H  H80  1  0.21946543  0.73411472  0.93218684  1  0.13176  0  0.115642  0.088116  0  1.041338  0
H  H81  1  0.78053317  0.26588340  0.06781055  1  0.13188  0  0.115675  0.088131  0  1.041333  0
H  H82  1  0.20563022  0.72711120  0.06562454  1  0.066112  0  0.108059  0.11788  0  0.996513  0
H  H83  1  0.79436798  0.27288556  0.93437343  1  0.066152  0  0.108075  0.117897  0  0.996522  0
H  H84  1  0.04370615  0.93364341  0.10772729  1  0.139801  0  0.106376  0.127212  0  1.049012  0
H  H85  1  0.95629650  0.06635603  0.89227318  1  0.139708  0  0.106417  0.127294  0  1.048933  0
H  H86  1  0.07005648  0.93433680  0.97530651  1  0.136035  0  0.116973  0.096736  0  1.014679  0
H  H87  1  0.92994845  0.06566532  0.02469569  1  0.135957  0  0.116973  0.096776  0  1.014602  0
H  H88  1  0.28769139  0.94283291  0.50199706  1  0.111818  0  0.122548  0.096219  0  0.98708  0
H  H89  1  0.71231610  0.05717056  0.49800366  1  0.111743  0  0.122543  0.09617  0  0.987092  0
H  H90  1  0.29293176  0.95077838  0.36786005  1  0.059903  0  0.108938  0.118586  0  0.988948  0
H  H91  1  0.70707137  0.04922512  0.63213971  1  0.059896  0  0.108935  0.118601  0  0.989023  0
H  H92  1  0.96808307  0.89967024  0.32050512  1  0.136745  0  0.113926  0.140166  0  0.998925  0
H  H93  1  0.03192090  0.10033123  0.67949399  1  0.13671  0  0.113961  0.140213  0  0.998929  0
H  H94  1  0.97713971  0.89490848  0.45607396  1  0.142618  0  0.120919  0.101775  0  1.018364  0
H  H95  1  0.02286592  0.10509366  0.54392555  1  0.142566  0  0.12088  0.101694  0  1.018358  0
H  H96  1  0.17860615  0.80284273  0.20093736  1  0.043632  0  0.09341  0.094218  0  0.989753  0
H  H97  1  0.82139587  0.19715942  0.79906346  1  0.043682  0  0.093394  0.094178  0  0.989798  0
H  H98  1  0.04791802  0.78531145  0.17696686  1  0.10757  0  0.10123  0.117291  0  1.005725  0
H  H99  1  0.95208360  0.21468935  0.82303509  1  0.107527  0  0.101221  0.1173  0  1.005687  0
H  H100  1  0.19751997  0.97332550  0.25204160  1  0.046526  0  0.092585  0.095363  0  0.992885  0
H  H101  1  0.80248131  0.02667666  0.74795694  1  0.046544  0  0.09257  0.095312  0  0.992898  0
H  H102  1  0.06463849  0.95027630  0.23307939  1  0.066303  0  0.100528  0.10702  0  1.000182  0
H  H103  1  0.93536364  0.04972382  0.76692017  1  0.06627  0  0.10054  0.107044  0  1.000112  0
H  H104  1  0.85931810  0.25043124  0.47439242  1  0.657803  0  0.291079  0.394081  0  0.945871  0
H  H105  1  0.14068614  0.74957362  0.52560463  1  0.657995  0  0.291098  0.394137  0  0.945784  0
H  H106  1  0.78506721  0.20770876  0.38158625  1  0.661169  0  0.29769  0.408925  0  0.915381  0
H  H107  1  0.21493941  0.79229677  0.61841071  1  0.661265  0  0.297642  0.408846  0  0.915482  0
H  H108  1  0.78690542  0.71261329  0.37232632  1  0.671691  0  0.294074  0.398587  0  0.932469  0
H  H109  1  0.21309526  0.28738683  0.62767475  1  0.671699  0  0.294096  0.398587  0  0.93247  0
H  H110  1  0.85092271  0.76118495  0.46977393  1  0.671626  0  0.292177  0.397208  0  0.941982  0
H  H111  1  0.14907954  0.23881313  0.53022711  1  0.671622  0  0.292191  0.39727  0  0.941896  0
H  H112  1  0.60439963  0.22139774  0.42380285  1  0.079272  0  0.111673  0.087175  0  0.98843  0
H  H113  1  0.39560087  0.77860170  0.57620017  1  0.079211  0  0.111654  0.087109  0  0.988448  0
H  H114  1  0.61486983  0.38015088  0.44779000  1  0.056115  0  0.101379  0.111456  0  1.018819  0
H  H115  1  0.38512972  0.61984790  0.55221048  1  0.056082  0  0.101356  0.111412  0  1.018854  0
H  H116  1  0.38732727  0.37589481  0.58894524  1  0.110334  0  0.104472  0.125882  0  1.032673  0
H  H117  1  0.61266861  0.62410402  0.41104938  1  0.110143  0  0.104476  0.125869  0  1.032624  0
H  H118  1  0.38769452  0.21792469  0.55989944  1  0.095748  0  0.108285  0.078762  0  0.990554  0
H  H119  1  0.61229558  0.78207417  0.44009574  1  0.095656  0  0.108269  0.078694  0  0.990633  0
H  H120  1  0.43975683  0.50550416  0.56638338  1  0.035951  0  0.092214  0.087482  0  1.034737  0
H  H121  1  0.56024113  0.49449667  0.43361327  1  0.035748  0  0.092223  0.087498  0  1.034703  0
H  H122  1  0.57123929  0.53492378  0.58413694  1  0.026701  0  0.091943  0.09336  0  1.000194  0
H  H123  1  0.42876034  0.46507299  0.41585842  1  0.026626  0  0.091914  0.093324  0  1.000293  0
C  C124  1  0.11971733  0.63986827  0.33101631  1  0.063516  0  -0.015328  -0.069759  0  3.931576  0
C  C125  1  0.88028225  0.36013049  0.66898803  1  0.06157  0  -0.015174  -0.069531  0  3.931595  0
C  C126  1  0.10527982  0.62330826  0.24756695  1  -0.011411  0  1.2e-05  -0.00107  0  3.942263  0
C  C127  1  0.89472098  0.37669456  0.75243785  1  -0.011464  0  -3.1e-05  -0.001181  0  3.94234  0
C  C128  1  0.18713232  0.62173352  0.21022927  1  0.029828  0  -0.100553  -0.240186  0  3.989016  0
C  C129  1  0.81286869  0.37826998  0.78977579  1  0.029466  0  -0.100525  -0.240084  0  3.988828  0
C  C130  1  0.28326512  0.63888698  0.25627628  1  0.34336  0  0.08014  0.257551  0  4.075879  0
C  C131  1  0.71673547  0.36111517  0.74372661  1  0.34341  0  0.080153  0.25745  0  4.075948  0
C  C132  1  0.29954590  0.65667268  0.33936670  1  -0.022751  0  -0.102455  -0.204836  0  3.992217  0
C  C133  1  0.70045553  0.34332743  0.66063719  1  -0.022658  0  -0.102434  -0.204791  0  3.992282  0
C  C134  1  0.21758628  0.65677336  0.37576130  1  -0.024593  0  -0.078303  -0.065255  0  3.977421  0
C  C135  1  0.78241455  0.34322472  0.62424236  1  -0.022277  0  -0.078346  -0.065245  0  3.977495  0
C  C136  1  0.03431746  0.63417164  0.37288200  1  1.577319  0  0.212759  0.582296  0  4.186808  0
C  C137  1  0.96568314  0.36583050  0.62712254  1  1.576867  0  0.212764  0.582276  0  4.186852  0
C  C138  1  0.00583989  0.61119922  0.19497856  1  1.588544  0  0.204459  0.573058  0  4.224925  0
C  C139  1  0.99416093  0.38880360  0.80502734  1  1.58844  0  0.204543  0.573079  0  4.224903  0
C  C140  1  0.62458878  0.84448370  0.30028916  1  -0.045078  0  -0.023081  -0.080418  0  3.972496  0
C  C141  1  0.37541094  0.15552050  0.69971052  1  -0.04518  0  -0.023117  -0.080543  0  3.972566  0
C  C142  1  0.62564695  0.75386882  0.25961917  1  0.001686  0  -0.002747  -0.006845  0  3.970248  0
C  C143  1  0.37435195  0.24613268  0.74037947  1  0.001688  0  -0.00273  -0.00671  0  3.970296  0
C  C144  1  0.53731065  0.68446811  0.23397779  1  -0.010069  0  -0.103991  -0.240408  0  3.981411  0
C  C145  1  0.46268848  0.31553405  0.76602331  1  -0.010115  0  -0.104022  -0.240492  0  3.98145  0
C  C146  1  0.44712634  0.70528815  0.24849338  1  0.361318  0  0.0823  0.259665  0  4.078089  0
C  C147  1  0.55287558  0.29471603  0.75150981  1  0.36142  0  0.082371  0.259715  0  4.077915  0
C  C148  1  0.44430600  0.79511466  0.28939593  1  0.015096  0  -0.1078  -0.218123  0  4.011618  0
C  C149  1  0.55569497  0.20488885  0.71060472  1  0.015051  0  -0.107815  -0.218155  0  4.011591  0
C  C150  1  0.53307898  0.86378224  0.31458177  1  -0.005012  0  -0.080258  -0.064891  0  3.982807  0
C  C151  1  0.46692323  0.13622059  0.68541821  1  -0.004811  0  -0.08019  -0.064796  0  3.982834  0
C  C152  1  0.72163492  0.91721331  0.33037515  1  1.558971  0  0.189942  0.547294  0  4.269655  0
C  C153  1  0.27836324  0.08278820  0.66962231  1  1.559081  0  0.189912  0.547207  0  4.269727  0
C  C154  1  0.71818624  0.72652721  0.23746741  1  1.595523  0  0.210943  0.589295  0  4.207178  0
C  C155  1  0.28181225  0.27347294  0.76253125  1  1.595255  0  0.210966  0.589236  0  4.207094  0
C  C156  1  0.38859487  0.64194510  0.71931592  1  -0.000529  0  -0.021099  -0.080509  0  3.96983  0
C  C157  1  0.61140323  0.35805370  0.28068332  1  -0.000489  0  -0.021144  -0.080668  0  3.969953  0
C  C158  1  0.39011080  0.73351838  0.74570637  1  -0.057292  0  0.000596  -1.8e-05  0  3.945359  0
C  C159  1  0.60988742  0.26647837  0.25429381  1  -0.057414  0  0.000557  2.7e-05  0  3.945214  0
C  C160  1  0.48167265  0.79954521  0.77160713  1  -0.028874  0  -0.096956  -0.231788  0  3.964365  0
C  C161  1  0.51832358  0.20044751  0.22838755  1  -0.028772  0  -0.096848  -0.231625  0  3.964276  0
C  C162  1  0.57170683  0.77457608  0.77410374  1  0.365982  0  0.082317  0.260477  0  4.07971  0
C  C163  1  0.42829085  0.22542136  0.22589443  1  0.365703  0  0.082283  0.260359  0  4.079976  0
C  C164  1  0.57204940  0.68430609  0.75239604  1  0.021264  0  -0.106155  -0.218214  0  4.014441  0
C  C165  1  0.42795044  0.31569135  0.24760123  1  0.021297  0  -0.106135  -0.218117  0  4.014516  0
C  C166  1  0.48036234  0.61880709  0.72516076  1  0.001725  0  -0.082323  -0.073006  0  4.006587  0
C  C167  1  0.51963741  0.38119237  0.27483888  1  0.001895  0  -0.08234  -0.073081  0  4.006664  0
C  C168  1  0.28948666  0.57110876  0.68106119  1  1.544692  0  0.187013  0.538906  0  4.272982  0
C  C169  1  0.71050813  0.42888870  0.31893725  1  1.544608  0  0.187112  0.539037  0  4.27285  0
C  C170  1  0.29750953  0.76677474  0.75643972  1  1.606057  0  0.210613  0.595545  0  4.218041  0
C  C171  1  0.70248796  0.23322202  0.24355983  1  1.605821  0  0.210635  0.595536  0  4.217962  0
C  C172  1  0.87983313  0.85609394  0.66983554  1  0.091832  0  -0.018727  -0.07969  0  3.936051  0
C  C173  1  0.12016826  0.14390619  0.33016339  1  0.09178  0  -0.018732  -0.079729  0  3.936083  0
C  C174  1  0.90598165  0.87505779  0.75370888  1  -0.069414  0  0.0003  0.0006  0  3.949425  0
C  C175  1  0.09401725  0.12494371  0.24628975  1  -0.06944  0  0.000279  0.000552  0  3.949317  0
C  C176  1  0.83134055  0.87014484  0.79738193  1  0.046302  0  -0.102926  -0.24352  0  3.999678  0
C  C177  1  0.16865752  0.12985870  0.20261735  1  0.046331  0  -0.102951  -0.243571  0  3.999453  0
C  C178  1  0.73012766  0.84200578  0.75741563  1  0.321673  0  0.080515  0.261472  0  4.075855  0
C  C179  1  0.26986905  0.15799575  0.24258059  1  0.321686  0  0.080576  0.261618  0  4.07561  0
C  C180  1  0.70192508  0.81939481  0.67347956  1  0.013216  0  -0.107009  -0.217584  0  3.990472  0
C  C181  1  0.29807545  0.18060736  0.32651726  1  0.012945  0  -0.107017  -0.217657  0  3.990361  0
C  C182  1  0.77719801  0.82810562  0.63117551  1  -0.134679  0  -0.07787  -0.059778  0  3.972496  0
C  C183  1  0.22280244  0.17189385  0.36882144  1  -0.134342  0  -0.077814  -0.059685  0  3.972425  0
C  C184  1  0.95771455  0.87063190  0.62299996  1  1.58932  0  0.212083  0.582949  0  4.19165  0
C  C185  1  0.04228738  0.12936755  0.37700044  1  1.589202  0  0.212118  0.582999  0  4.191664  0
C  C186  1  0.01124752  0.89491959  0.80106537  1  1.617755  0  0.20746  0.579985  0  4.231217  0
C  C187  1  0.98874974  0.10508124  0.19893452  1  1.617778  0  0.207524  0.58014  0  4.231187  0
C  C188  1  0.82849377  0.72902736  0.02022111  1  0.419223  0  0.0432  0.093749  0  3.952303  0
C  C189  1  0.17150187  0.27097279  0.97978169  1  0.419281  0  0.043117  0.093663  0  3.952534  0
C  C190  1  0.83649096  0.73175969  0.94568968  1  -0.008982  0  -0.087897  -0.194  0  3.953348  0
C  C191  1  0.16350735  0.26823977  0.05431148  1  -0.009041  0  -0.087909  -0.194003  0  3.953467  0
C  C192  1  0.88711794  0.67605913  0.89476466  1  0.001362  0  0.017137  0.177618  0  3.931242  0
C  C193  1  0.11287687  0.32393832  0.10523654  1  0.00102  0  0.017245  0.17779  0  3.931096  0
C  C194  1  0.92926292  0.62030108  0.92317046  1  -0.055232  0  -0.084982  -0.180477  0  3.921739  0
C  C195  1  0.07073166  0.37969570  0.07682773  1  -0.055067  0  -0.085027  -0.180563  0  3.921814  0
C  C196  1  0.91751920  0.62046862  0.99800396  1  0.426464  0  0.045165  0.090493  0  3.942118  0
C  C197  1  0.08247746  0.37953017  0.00199680  1  0.426538  0  0.045205  0.090595  0  3.942115  0
C  C198  1  0.78891782  0.58476182  0.54463460  1  0.450836  0  0.043504  0.093639  0  3.959508  0
C  C199  1  0.21108103  0.41523695  0.45536746  1  0.45074  0  0.04344  0.09349  0  3.959523  0
C  C200  1  0.79448362  0.58171688  0.62030405  1  -0.001365  0  -0.086706  -0.188198  0  3.954428  0
C  C201  1  0.20551521  0.41828191  0.37969637  1  -0.000413  0  -0.086665  -0.188078  0  3.954431  0
C  C202  1  0.88638955  0.58401143  0.66467611  1  -0.063823  0  0.019396  0.182332  0  3.929008  0
C  C203  1  0.11361125  0.41598666  0.33532535  1  -0.063877  0  0.019389  0.182362  0  3.929024  0
C  C204  1  0.96976005  0.58941946  0.62969479  1  -0.004147  0  -0.07363  -0.165294  0  3.875937  0
C  C205  1  0.03024074  0.41057864  0.37030446  1  -0.004041  0  -0.073637  -0.165389  0  3.875884  0
C  C206  1  0.95850373  0.59210401  0.55345361  1  0.43673  0  0.056857  0.113852  0  3.916836  0
C  C207  1  0.04149438  0.40789478  0.44654728  1  0.436667  0  0.056851  0.113873  0  3.916761  0
C  C208  1  0.89435096  0.67588087  0.81295028  1  -0.03492  0  -0.156541  -0.197033  0  3.919334  0
C  C209  1  0.10564643  0.32411791  0.18705165  1  -0.0347  0  -0.156604  -0.197213  0  3.919792  0
C  C210  1  0.89434655  0.58340434  0.74768913  1  -0.043604  0  -0.156689  -0.202835  0  3.935921  0
C  C211  1  0.10565321  0.41659512  0.25231161  1  -0.043577  0  -0.156667  -0.202776  0  3.93595  0
C  C212  1  0.74440596  0.47865496  0.14189460  1  0.419111  0  0.060185  0.126348  0  3.891723  0
C  C213  1  0.25559164  0.52134450  0.85810759  1  0.419052  0  0.060179  0.126316  0  3.891685  0
C  C214  1  0.68620430  0.38970794  0.10865030  1  0.015381  0  -0.082562  -0.185582  0  3.905657  0
C  C215  1  0.31379587  0.61029286  0.89135096  1  0.015374  0  -0.082523  -0.185522  0  3.905576  0
C  C216  1  0.62494606  0.35181087  0.02931517  1  -0.048019  0  0.012586  0.165776  0  3.955596  0
C  C217  1  0.37505391  0.64818925  0.97068638  1  -0.048106  0  0.012592  0.165764  0  3.955632  0
C  C218  1  0.62308192  0.40683559  0.98719488  1  -0.019948  0  -0.089241  -0.194288  0  3.956567  0
C  C219  1  0.37691929  0.59316385  0.01280600  1  -0.019907  0  -0.089233  -0.194253  0  3.956466  0
C  C220  1  0.68267113  0.49521744  0.02461051  1  0.495871  0  0.04347  0.090093  0  3.974014  0
C  C221  1  0.31732853  0.50478404  0.97539205  1  0.495597  0  0.043429  0.090004  0  3.973985  0
C  C222  1  0.26874705  0.02631435  0.85005932  1  0.47552  0  0.064326  0.133837  0  3.89359  0
C  C223  1  0.73125477  0.97368712  0.14994179  1  0.475535  0  0.064263  0.133735  0  3.8935  0
C  C224  1  0.32425073  0.11609038  0.88311532  1  0.001159  0  -0.081846  -0.184949  0  3.901965  0
C  C225  1  0.67574997  0.88390974  0.11688685  1  0.00126  0  -0.081825  -0.184938  0  3.901886  0
C  C226  1  0.38976793  0.15377597  0.96061637  1  -0.098679  0  0.013614  0.167623  0  3.948471  0
C  C227  1  0.61023422  0.84622414  0.03938594  1  -0.098752  0  0.013598  0.167684  0  3.948421  0
C  C228  1  0.39891811  0.09775449  0.00099219  1  0.032038  0  -0.089729  -0.190825  0  3.95927  0
C  C229  1  0.60108330  0.90224563  0.99900840  1  0.031959  0  -0.089714  -0.190828  0  3.959166  0
C  C230  1  0.34137968  0.00872722  0.96398083  1  0.426142  0  0.04284  0.087967  0  3.979751  0
C  C231  1  0.65862080  0.99127223  0.03601943  1  0.42613  0  0.042877  0.088033  0  3.979811  0
C  C232  1  0.56158148  0.25587999  0.99075873  1  -0.004467  0  -0.152056  -0.195327  0  3.935612  0
C  C233  1  0.43842212  0.74412010  0.00924427  1  -0.004426  0  -0.151997  -0.195202  0  3.935439  0
C  C234  1  0.45133414  0.25033520  0.99864717  1  0.008617  0  -0.152672  -0.192624  0  3.922775  0
C  C235  1  0.54866945  0.74966491  0.00135418  1  0.008502  0  -0.152724  -0.192867  0  3.923128  0
C  C236  1  0.18259452  0.77756161  0.97408377  1  0.3974  0  0.041219  0.088786  0  3.96087  0
C  C237  1  0.81740502  0.22243717  0.02591450  1  0.397308  0  0.041115  0.08868  0  3.960911  0
C  C238  1  0.17381898  0.77405989  0.04815879  1  0.023559  0  -0.087843  -0.192865  0  3.953711  0
C  C239  1  0.82617993  0.22593687  0.95183815  1  0.023497  0  -0.087833  -0.192796  0  3.953762  0
C  C240  1  0.12553530  0.83127990  0.10016894  1  -0.019081  0  0.019417  0.179741  0  3.920369  0
C  C241  1  0.87446496  0.16871888  0.89983051  1  -0.019004  0  0.019415  0.17974  0  3.920416  0
C  C242  1  0.08481573  0.88836630  0.07245342  1  -0.029766  0  -0.083676  -0.178288  0  3.907007  0
C  C243  1  0.91518692  0.11163314  0.92754649  1  -0.029741  0  -0.083681  -0.178353  0  3.90694  0
C  C244  1  0.09797358  0.88921420  0.99816063  1  0.432765  0  0.044514  0.088783  0  3.939558  0
C  C245  1  0.90202761  0.11078525  0.00183915  1  0.432811  0  0.044516  0.088735  0  3.939417  0
C  C246  1  0.21894869  0.93333427  0.45923116  1  0.469496  0  0.048414  0.098057  0  3.948093  0
C  C247  1  0.78105693  0.06666786  0.54076835  1  0.469019  0  0.04844  0.098221  0  3.948192  0
C  C248  1  0.22077017  0.93683890  0.38421394  1  -0.012337  0  -0.086102  -0.188889  0  3.953445  0
C  C249  1  0.77923348  0.06316393  0.61578507  1  -0.011939  0  -0.086115  -0.188966  0  3.953604  0
C  C250  1  0.13033686  0.92426195  0.33143574  1  -0.051164  0  0.016279  0.173315  0  3.941643  0
C  C251  1  0.86966681  0.07574087  0.66856493  1  -0.051458  0  0.01633  0.173426  0  3.94186  0
C  C252  1  0.04118029  0.90877865  0.35757327  1  0.005684  0  -0.074839  -0.160888  0  3.888454  0
C  C253  1  0.95882172  0.09122351  0.64242700  1  0.005822  0  -0.074875  -0.161053  0  3.888699  0
C  C254  1  0.04496831  0.90670459  0.43370160  1  0.465754  0  0.056887  0.111146  0  3.910806  0
C  C255  1  0.95503681  0.09329822  0.56629976  1  0.465754  0  0.05697  0.111418  0  3.910884  0
C  C256  1  0.11955465  0.83135020  0.18220261  1  -0.042707  0  -0.155265  -0.194784  0  3.915504  0
C  C257  1  0.88044654  0.16864925  0.81779716  1  -0.042742  0  -0.155263  -0.194797  0  3.915491  0
C  C258  1  0.12863462  0.92567903  0.24908246  1  -0.017688  0  -0.156369  -0.201801  0  3.944123  0
C  C259  1  0.87136697  0.07432178  0.75091619  1  -0.017558  0  -0.15638  -0.201758  0  3.944235  0
C  C260  1  0.55680028  0.25760449  0.46010693  1  0.489965  0  0.034902  0.084639  0  4.012357  0
C  C261  1  0.44319660  0.74239498  0.53989519  1  0.489939  0  0.034992  0.084877  0  4.012181  0
C  C262  1  0.56252033  0.34716853  0.47375500  1  -0.07609  0  -0.09464  -0.195589  0  3.943015  0
C  C263  1  0.43747756  0.65282959  0.52624343  1  -0.075947  0  -0.094645  -0.195618  0  3.943074  0
C  C264  1  0.50089109  0.39275479  0.52032527  1  -0.028863  0  -0.000118  0.150774  0  3.94987  0
C  C265  1  0.49910514  0.60724267  0.47967276  1  -0.029519  0  -9.6e-05  0.150759  0  3.949773  0
C  C266  1  0.43735192  0.34484891  0.55204088  1  -0.047109  0  -0.096898  -0.210638  0  3.939769  0
C  C267  1  0.56264273  0.65515060  0.44795497  1  -0.046535  0  -0.096833  -0.210492  0  3.939708  0
C  C268  1  0.43730261  0.25552839  0.53536005  1  0.463008  0  0.038131  0.096663  0  4.017166  0
C  C269  1  0.56268977  0.74446842  0.46463518  1  0.462782  0  0.038088  0.096671  0  4.017379  0
C  C270  1  0.50242787  0.48938062  0.53768623  1  0.009061  0  -0.158716  -0.194347  0  3.940418  0
C  C271  1  0.49756919  0.51061480  0.46231060  1  -0.01469  0  -0.158703  -0.194378  0  3.94042  0
N  N272  1  0.86739323  0.67340359  0.04584600  1  -1.24746  0  -0.33912  -0.254635  0  3.60291  0
N  N273  1  0.13260289  0.32659589  0.95415274  1  -1.247443  0  -0.339104  -0.254644  0  3.602687  0
N  N274  1  0.86965545  0.58952205  0.51115909  1  -1.254865  0  -0.329631  -0.243299  0  3.584762  0
N  N275  1  0.13034266  0.41047674  0.48884180  1  -1.254865  0  -0.329624  -0.243272  0  3.584723  0
N  N276  1  0.74298817  0.53037463  0.10024854  1  -1.264046  0  -0.331401  -0.236599  0  3.601996  0
N  N277  1  0.25701036  0.46962550  0.89975453  1  -1.263901  0  -0.331451  -0.236664  0  3.602131  0
N  N278  1  0.27660718  0.97371879  0.89022591  1  -1.259979  0  -0.334523  -0.240894  0  3.608352  0
N  N279  1  0.72339277  0.02628135  0.10977344  1  -1.260007  0  -0.33453  -0.240874  0  3.60832  0
N  N280  1  0.14721512  0.83562127  0.94989577  1  -1.280111  0  -0.33908  -0.252234  0  3.59796  0
N  N281  1  0.85278369  0.16437753  0.05010244  1  -1.279992  0  -0.339055  -0.252195  0  3.59791  0
N  N282  1  0.13240755  0.91876777  0.48392765  1  -1.254045  0  -0.330806  -0.24604  0  3.5865  0
N  N283  1  0.86759736  0.08123436  0.51607179  1  -1.25375  0  -0.330854  -0.246285  0  3.586891  0
N  N284  1  0.49506284  0.21111535  0.48979552  1  -1.197639  0  -0.345533  -0.306663  0  3.308359  0
N  N285  1  0.50493380  0.78888346  0.51020248  1  -1.197226  0  -0.345576  -0.306805  0  3.308256  0
O  O286  1  0.94684208  0.58334436  0.32789834  1  -1.158528  0  -0.316276  -0.541024  0  2.299475  0
O  O287  1  0.05315654  0.41665848  0.67210406  1  -1.158615  0  -0.316295  -0.541034  0  2.299572  0
O  O288  1  0.80705041  0.19680505  0.43051979  1  -1.276668  0  -0.577021  -0.760222  0  2.113005  0
O  O289  1  0.19296013  0.80319910  0.56947540  1  -1.276948  0  -0.576971  -0.760158  0  2.112946  0
O  O290  1  0.80135405  0.70589094  0.42499209  1  -1.301004  0  -0.575546  -0.753877  0  2.139071  0
O  O291  1  0.19864592  0.29410919  0.57500946  1  -1.300999  0  -0.575591  -0.753964  0  2.139008  0
O  O292  1  0.04987945  0.67504999  0.44991151  1  -1.199188  0  -0.305577  -0.558445  0  2.248228  0
O  O293  1  0.95011928  0.32495082  0.55009127  1  -1.199025  0  -0.305626  -0.558495  0  2.248115  0
O  O294  1  0.96832290  0.67988734  0.22024380  1  -1.147392  0  -0.323942  -0.531245  0  2.333246  0
O  O295  1  0.03167975  0.32011683  0.77975946  1  -1.147255  0  -0.323992  -0.531303  0  2.333301  0
O  O296  1  0.96976322  0.54131643  0.12950733  1  -1.180745  0  -0.31859  -0.552521  0  2.143975  0
O  O297  1  0.03023668  0.45868571  0.87049935  1  -1.180745  0  -0.318662  -0.552527  0  2.144023  0
O  O298  1  0.71472945  0.99840801  0.34556239  1  -1.159613  0  -0.338333  -0.564384  0  2.264299  0
O  O299  1  0.28527039  0.00159416  0.65443713  1  -1.159556  0  -0.338315  -0.564332  0  2.264256  0
O  O300  1  0.80334800  0.89692198  0.34033415  1  -1.161438  0  -0.317238  -0.545593  0  2.141731  0
O  O301  1  0.19665066  0.10307413  0.65965757  1  -1.161585  0  -0.317186  -0.545499  0  2.141954  0
O  O302  1  0.76230758  0.68748966  0.27294935  1  -1.174722  0  -0.298  -0.530819  0  2.217071  0
O  O303  1  0.23768824  0.31251118  0.72705096  1  -1.174501  0  -0.297964  -0.530718  0  2.21698  0
O  O304  1  0.74073457  0.73403361  0.17311937  1  -1.165491  0  -0.328359  -0.55699  0  2.289254  0
O  O305  1  0.25926289  0.26596317  0.82687689  1  -1.165475  0  -0.328411  -0.557079  0  2.289302  0
O  O306  1  0.36172245  0.63320638  0.21603667  1  -1.104334  0  -0.164714  -0.231843  0  2.554393  0
O  O307  1  0.63827928  0.36679711  0.78396791  1  -1.104549  0  -0.164803  -0.231801  0  2.554321  0
O  O308  1  0.29232351  0.48814444  0.66210897  1  -1.164939  0  -0.335731  -0.564233  0  2.288167  0
O  O309  1  0.70767007  0.51185369  0.33789346  1  -1.164864  0  -0.335852  -0.564327  0  2.287995  0
O  O310  1  0.21081823  0.59413284  0.66670437  1  -1.156327  0  -0.31261  -0.534748  0  2.146043  0
O  O311  1  0.78918230  0.40586933  0.33329246  1  -1.156259  0  -0.312591  -0.534747  0  2.146064  0
O  O312  1  0.26761282  0.76560335  0.82095290  1  -1.170774  0  -0.335399  -0.565387  0  2.309654  0
O  O313  1  0.73238384  0.23439545  0.17904786  1  -1.170714  0  -0.335339  -0.565319  0  2.309665  0
O  O314  1  0.26333731  0.80419791  0.71483259  1  -1.183797  0  -0.304766  -0.541919  0  2.183683  0
O  O315  1  0.73666287  0.19579816  0.28516643  1  -1.183643  0  -0.304831  -0.541955  0  2.183552  0
O  O316  1  0.04755081  0.91773832  0.66566526  1  -1.15758  0  -0.316355  -0.54454  0  2.327805  0
O  O317  1  0.95245102  0.08226315  0.33433640  1  -1.157544  0  -0.31636  -0.54452  0  2.327792  0
O  O318  1  0.93427828  0.84040502  0.54591081  1  -1.206217  0  -0.307314  -0.557411  0  2.24124  0
O  O319  1  0.06572771  0.15959101  0.45408986  1  -1.20616  0  -0.307317  -0.55745  0  2.241305  0
O  O320  1  0.05097774  0.82750800  0.77581394  1  -1.156657  0  -0.329899  -0.536088  0  2.33505  0
O  O321  1  0.94902079  0.17249214  0.22418803  1  -1.156717  0  -0.329932  -0.536174  0  2.335066  0
O  O322  1  0.04869489  0.96747645  0.86377763  1  -1.185802  0  -0.322801  -0.558167  0  2.13374  0
O  O323  1  0.95130020  0.03252440  0.13622261  1  -1.185792  0  -0.322798  -0.558182  0  2.133686  0
O  O324  1  0.66105667  0.84275428  0.80608449  1  -1.104842  0  -0.167285  -0.238674  0  2.557374  0
O  O325  1  0.33894004  0.15724724  0.19391174  1  -1.104751  0  -0.16729  -0.238696  0  2.557471  0
