# generated using pymatgen
data_CoH13C16ClO7
_symmetry_space_group_name_H-M   'P 1'
_cell_length_a   7.06910368
_cell_length_b   9.20682694
_cell_length_c   14.40609828
_cell_angle_alpha   80.54412416
_cell_angle_beta   75.80617024
_cell_angle_gamma   67.41715198
_symmetry_Int_Tables_number   1
_chemical_formula_structural   CoH13C16ClO7
_chemical_formula_sum   'Co2 H26 C32 Cl2 O14'
_cell_volume   836.70772766
_cell_formula_units_Z   2
loop_
 _symmetry_equiv_pos_site_id
 _symmetry_equiv_pos_as_xyz
  1  'x, y, z'
loop_
 _atom_site_type_symbol
 _atom_site_label
 _atom_site_symmetry_multiplicity
 _atom_site_fract_x
 _atom_site_fract_y
 _atom_site_fract_z
 _atom_site_occupancy
 _atom_site_hle17_ddec_charge
 _atom_site_hle17_ddec_spin_density
 _atom_site_hle17_ddec_sum_bond_order
 _atom_site_hle17_magmom
 _atom_site_hse06_10hf_ddec_charge
 _atom_site_hse06_10hf_ddec_spin_density
 _atom_site_hse06_10hf_ddec_sum_bond_order
 _atom_site_hse06_10hf_magmom
 _atom_site_hse06_ddec_charge
 _atom_site_hse06_ddec_spin_density
 _atom_site_hse06_ddec_sum_bond_order
 _atom_site_hse06_magmom
 _atom_site_pbe_cm5_charge
 _atom_site_pbe_ddec_charge
 _atom_site_pbe_ddec_spin_density
 _atom_site_pbe_ddec_sum_bond_order
 _atom_site_pbe_magmom
Co  Co0  1  0.05516803  0.95620967  0.51575920  1  1.12144  2.839391  1.81939  2.604  1.101325  2.849578  2.218156  2.674  1.177931  2.885797  2.14534  2.743  0.653517  1.038367  2.815036  2.273709  2.606
Co  Co1  1  0.52715089  0.04388376  0.48418006  1  1.122096  2.841317  1.81895  2.604  1.102163  2.850753  2.217527  2.674  1.178603  2.886797  2.144835  2.743  0.654297  1.039476  2.816097  2.272887  2.606
H  H2  1  0.64177242  0.27579190  0.74493860  1  0.062385  -5.1e-05  0.907699  0.0  0.073792  0.000231  0.961709  0.0  0.075045  0.000161  0.961009  0.0  0.113722  0.072845  0.000279  0.962393  0.0
H  H3  1  0.66221472  0.72397631  0.25513839  1  0.062355  -7.9e-05  0.907242  0.0  0.074362  0.000225  0.961399  0.0  0.075559  0.000157  0.960701  0.0  0.113689  0.073464  0.000274  0.962104  0.0
H  H4  1  0.66700175  0.51820986  0.57341578  1  0.111426  -1e-05  0.954451  0.0  0.131679  -9e-06  1.014677  0.0  0.133131  -1.8e-05  1.01448  0.0  0.090886  0.130497  -1e-06  1.015121  0.0
H  H5  1  0.75924847  0.48132818  0.42650260  1  0.112088  -1.3e-05  0.953894  0.0  0.131686  -1e-05  1.014995  0.0  0.133157  -1.9e-05  1.014748  0.0  0.09091  0.130658  -1e-06  1.015176  0.0
H  H6  1  0.88846974  0.37165127  0.61588273  1  0.12539  -1.3e-05  0.930965  0.0  0.14687  -6.4e-05  0.986831  0.0  0.148472  -8.3e-05  0.986601  0.0  0.097968  0.145684  -3e-05  0.987012  0.0
H  H7  1  0.87656481  0.62786864  0.38391843  1  0.124817  -2.7e-05  0.930654  0.0  0.146216  -6.6e-05  0.986642  0.0  0.147792  -8.3e-05  0.986434  0.0  0.097507  0.145173  -2.6e-05  0.986683  0.0
H  H8  1  0.70398225  0.52117089  0.69084118  1  0.108691  0.000233  0.968431  0.0  0.127109  0.00024  1.036598  0.0  0.127969  0.000163  1.037647  0.0  0.087225  0.126724  0.000252  1.035488  0.0
H  H9  1  0.91592620  0.47850962  0.30894997  1  0.109189  0.000202  0.967989  0.0  0.127793  0.000202  1.035589  0.0  0.128598  0.000139  1.036708  0.0  0.087438  0.127292  0.000252  1.034795  0.0
H  H10  1  0.44895825  0.13439316  0.78011880  1  0.10342  -0.000128  0.977857  0.0  0.109172  -7.5e-05  1.048569  0.0  0.112222  -6.2e-05  1.047108  0.0  0.097588  0.106841  -0.00011  1.049986  0.0
H  H11  1  0.36254036  0.86566866  0.22036896  1  0.102715  -0.000135  0.978382  0.0  0.108954  -8.4e-05  1.048541  0.0  0.112004  -6.7e-05  1.047035  0.0  0.097769  0.106604  -0.000112  1.050227  0.0
H  H12  1  0.19146147  0.06140956  0.90816202  1  0.1017  -1.1e-05  0.971628  0.0  0.110214  -8e-06  1.03804  0.0  0.111926  -5e-06  1.039006  0.0  0.098225  0.109572  -2e-05  1.036039  0.0
H  H13  1  0.16067726  0.93868051  0.09207167  1  0.102439  -7e-06  0.970107  0.0  0.111493  -1.2e-05  1.035535  0.0  0.113181  -6e-06  1.036519  0.0  0.098354  0.109876  -1.9e-05  1.035575  0.0
H  H14  1  0.75349054  0.53795993  0.89574882  1  0.105022  -9e-06  0.97224  0.0  0.115979  -8e-06  1.034495  0.0  0.118853  -5e-06  1.032563  0.0  0.101591  0.113948  -9e-06  1.035852  0.0
H  H15  1  0.18764824  0.46202902  0.10404547  1  0.10607  -1.2e-05  0.970627  0.0  0.116858  -1.2e-05  1.032692  0.0  0.119639  -7e-06  1.030924  0.0  0.102233  0.114494  -8e-06  1.034906  0.0
H  H16  1  0.01418716  0.61454468  0.76452782  1  0.108765  8.9e-05  0.979995  0.0  0.115361  0.000112  1.049361  0.0  0.118404  6.7e-05  1.048206  0.0  0.099173  0.114001  0.000141  1.048479  0.0
H  H17  1  0.39303054  0.38542660  0.23555778  1  0.109063  7.7e-05  0.979401  0.0  0.116317  0.000121  1.047726  0.0  0.119378  7.2e-05  1.046509  0.0  0.099132  0.114262  0.00014  1.048436  0.0
H  H18  1  0.08079983  0.31821585  0.05084117  1  0.110664  -3e-06  0.972023  0.0  0.119355  1.5e-05  1.033387  0.0  0.122631  8e-06  1.032493  0.0  0.103455  0.116944  2.9e-05  1.034356  0.0
H  H19  1  0.45040683  0.68188485  0.94904318  1  0.109765  -8e-06  0.971944  0.0  0.118373  1.7e-05  1.033561  0.0  0.121722  1e-05  1.032558  0.0  0.103073  0.115965  3.1e-05  1.034474  0.0
H  H20  1  0.12738630  0.25252436  0.22071238  1  0.092216  0.000219  0.967902  0.0  0.099746  0.000229  1.037472  0.0  0.103132  0.000156  1.034355  0.0  0.100114  0.097175  0.000288  1.039956  0.0
H  H21  1  0.60101000  0.74779172  0.77919365  1  0.092508  0.00023  0.968808  0.0  0.099619  0.000244  1.038656  0.0  0.102989  0.000164  1.03553  0.0  0.100232  0.096922  0.00029  1.041329  0.0
H  H22  1  0.66233010  0.03695976  0.28080017  1  0.129645  -0.000376  0.979169  0.0  0.135109  -0.000216  1.045676  0.0  0.13928  -0.000251  1.042125  0.0  0.109805  0.131913  -0.00017  1.048432  0.0
H  H23  1  0.98038941  0.96313916  0.71908593  1  0.129731  -0.000379  0.98135  0.0  0.135644  -0.000212  1.04733  0.0  0.139743  -0.000249  1.043823  0.0  0.110102  0.132244  -0.000166  1.050494  0.0
H  H24  1  0.84206185  0.78417177  0.61149937  1  0.444955  -0.000359  0.849367  -0.001  0.414732  7.5e-05  0.912179  0.0  0.426362  -0.000163  0.895185  0.0  0.303851  0.406353  0.000261  0.92436  0.0
H  H25  1  0.23737972  0.21599864  0.38853532  1  0.44486  -0.000379  0.849426  -0.001  0.414975  4.5e-05  0.911807  0.0  0.426561  -0.000184  0.894848  0.0  0.304568  0.406676  0.000261  0.923859  0.0
H  H26  1  0.07708573  0.66433091  0.57730086  1  0.441519  0.000122  0.793635  0.0  0.427262  0.000559  0.842846  0.001  0.436633  0.000356  0.832428  0.001  0.333948  0.420425  0.000734  0.850434  0.001
H  H27  1  0.31842852  0.33573326  0.42280326  1  0.441945  0.000115  0.792433  0.0  0.428028  0.000543  0.84116  0.001  0.43733  0.000344  0.830833  0.001  0.334433  0.421124  0.000734  0.848828  0.001
C  C28  1  0.64840358  0.20911912  0.60881722  1  0.652564  -0.015887  3.818942  -0.011  0.611792  -0.001975  4.124465  0.0  0.649718  -0.001386  4.1163  0.001  0.219056  0.583158  -0.004716  4.129856  -0.002
C  C29  1  0.46659175  0.79075109  0.39128230  1  0.649613  -0.015959  3.822202  -0.011  0.610511  -0.002069  4.126243  0.0  0.648416  -0.001447  4.117983  0.001  0.219286  0.582181  -0.004751  4.131346  -0.002
C  C30  1  0.59671084  0.33766476  0.67688547  1  0.113262  0.006272  3.626338  0.01  0.095608  0.003817  3.872948  0.006  0.097466  0.002737  3.880668  0.004  0.006475  0.09448  0.005016  3.868026  0.007
C  C31  1  0.61123127  0.66212116  0.32323908  1  0.114006  0.006374  3.62442  0.01  0.093906  0.003895  3.87432  0.006  0.095879  0.002803  3.881705  0.004  0.006551  0.092708  0.005006  3.869483  0.007
C  C32  1  0.72235076  0.44422820  0.63624260  1  -0.328569  -0.000835  3.678274  -0.001  -0.413392  -0.000164  3.919156  0.0  -0.415197  -0.000196  3.927845  0.0  -0.245315  -0.411865  -0.000172  3.912981  0.0
C  C33  1  0.80306882  0.55541133  0.36365272  1  -0.329651  -0.000774  3.677256  -0.001  -0.413314  -0.000161  3.919118  0.0  -0.415147  -0.000181  3.927739  0.0  -0.245115  -0.412046  -0.000185  3.913077  0.0
C  C34  1  0.24747312  0.38147662  0.76457354  1  0.271817  -0.000115  3.806346  0.0  0.260943  6.1e-05  4.067862  0.0  0.271795  2.8e-05  4.083904  0.0  0.079485  0.253204  9.4e-05  4.057216  0.0
C  C35  1  0.39303709  0.61850020  0.23569207  1  0.272243  -0.000163  3.807336  0.0  0.261604  7.7e-05  4.068747  0.0  0.272416  3.7e-05  4.084824  0.0  0.080361  0.253955  9.5e-05  4.058024  0.0
C  C36  1  0.29834103  0.22504363  0.80452238  1  -0.184186  3.2e-05  3.766836  0.0  -0.205231  -3.9e-05  4.022215  0.0  -0.210323  -6.4e-05  4.043028  0.0  -0.110314  -0.201882  -7e-06  4.008275  0.0
C  C37  1  0.32729280  0.77500070  0.19581742  1  -0.184631  2.7e-05  3.766346  0.0  -0.205947  -9e-05  4.02147  0.0  -0.210962  -9.6e-05  4.042265  0.0  -0.111376  -0.202786  -1.9e-05  4.008315  0.0
C  C38  1  0.15279006  0.18286107  0.87703142  1  -0.1449  -0.000111  3.781247  0.0  -0.166488  1.9e-05  4.0336  0.0  -0.168838  1.5e-05  4.055485  0.0  -0.101825  -0.164349  -8e-06  4.016512  0.0
C  C39  1  0.21240185  0.81718893  0.12315384  1  -0.144969  -0.000252  3.778643  0.0  -0.166548  -2.8e-05  4.030598  0.0  -0.168903  -2e-05  4.05242  0.0  -0.102111  -0.164554  -1.8e-05  4.016013  0.0
C  C40  1  0.95808558  0.29587406  0.90892447  1  0.229177  0.000146  3.803462  0.0  0.223516  4.1e-05  4.062076  0.0  0.230449  1.1e-05  4.07913  0.0  0.062115  0.218875  8.5e-05  4.049854  0.0
C  C41  1  0.16308930  0.70413403  0.09103548  1  0.22987  0.000138  3.803259  0.0  0.224224  2.8e-05  4.062251  0.0  0.231205  4e-06  4.079249  0.0  0.063263  0.219506  7.5e-05  4.050394  0.0
C  C42  1  0.90551508  0.45108536  0.86896092  1  -0.146375  -0.000117  3.775335  0.0  -0.168838  1.4e-05  4.024383  0.0  -0.170244  1.4e-05  4.043426  0.0  -0.100121  -0.167841  -1e-05  4.011443  0.0
C  C43  1  0.22569321  0.54889977  0.13100468  1  -0.145613  -0.00015  3.772417  0.0  -0.167615  6e-06  4.021052  0.0  -0.168966  8e-06  4.04006  0.0  -0.100509  -0.16654  0.0  4.008948  0.0
C  C44  1  0.04971500  0.49380548  0.79649940  1  -0.1683  0.000245  3.759549  0.0  -0.189878  0.00019  4.016153  0.0  -0.195129  0.000117  4.037312  0.0  -0.106901  -0.1862  0.000281  4.000301  0.0
C  C45  1  0.33981214  0.50619061  0.20361017  1  -0.170385  0.000305  3.759234  0.0  -0.19192  0.00023  4.014826  0.0  -0.197176  0.000153  4.0359  0.0  -0.107599  -0.188418  0.000291  4.000714  0.0
C  C46  1  0.84039549  0.22110607  0.07157501  1  0.245931  -0.002576  3.782878  -0.002  0.225786  -0.000934  4.04951  -0.001  0.239475  -0.000655  4.062736  0.0  0.091572  0.216103  -0.001522  4.041301  -0.001
C  C47  1  0.13358175  0.77894765  0.92829549  1  0.246299  -0.00252  3.78199  -0.002  0.226046  -0.000867  4.049345  0.0  0.239722  -0.000606  4.062682  0.0  0.090897  0.216456  -0.001552  4.039517  -0.001
C  C48  1  0.98619123  0.26060548  0.10277195  1  -0.200476  0.000858  3.769336  0.001  -0.219407  0.000241  4.028347  0.0  -0.227414  0.000164  4.047724  0.0  -0.108298  -0.214428  0.000335  4.016496  0.001
C  C49  1  0.35006715  0.73947923  0.89710316  1  -0.199429  0.000866  3.76783  0.001  -0.218255  0.000236  4.026896  0.0  -0.226373  0.000158  4.046311  0.0  -0.107793  -0.213125  0.00035  4.014374  0.001
C  C50  1  0.01164345  0.22361348  0.19744299  1  -0.039483  -0.002611  3.757088  -0.002  -0.071433  -0.00037  4.016949  0.0  -0.065493  -0.00024  4.033582  0.0  -0.084839  -0.075445  -0.000729  4.00649  0.0
C  C51  1  0.43311671  0.77658792  0.80245193  1  -0.040906  -0.002495  3.758937  -0.002  -0.072267  -0.000243  4.018895  0.0  -0.066343  -0.000154  4.03547  0.0  -0.085798  -0.076545  -0.000731  4.008215  0.0
C  C52  1  0.89547929  0.14340834  0.26283302  1  -0.075504  0.002378  3.772031  0.003  -0.053886  0.00101  4.009773  0.001  -0.065504  0.000594  4.031792  0.001  -0.025458  -0.046056  0.001418  3.995725  0.002
C  C53  1  0.30206938  0.85682510  0.73707288  1  -0.075692  0.00237  3.773428  0.003  -0.054609  0.000972  4.012217  0.001  -0.066108  0.000568  4.034064  0.001  -0.025642  -0.046682  0.001417  3.997643  0.002
C  C54  1  0.75008237  0.10282594  0.23187713  1  -0.091378  -0.002613  3.700597  -0.002  -0.128257  -0.00049  3.953675  0.0  -0.123887  -0.000401  3.969508  0.0  -0.081549  -0.131193  -0.000815  3.943295  0.0
C  C55  1  0.08515834  0.89735634  0.76801058  1  -0.090242  -0.00258  3.703219  -0.002  -0.127792  -0.000457  3.957045  0.0  -0.123396  -0.00038  3.972934  0.0  -0.081644  -0.130511  -0.000847  3.944497  0.0
C  C56  1  0.72009542  0.14389620  0.13812436  1  0.027631  0.000708  3.779047  0.001  0.035454  0.000183  4.055566  0.0  0.033301  0.000139  4.074563  0.0  0.004055  0.03629  0.000231  4.043454  0.001
C  C57  1  0.00256188  0.85620987  0.86174997  1  0.024919  0.000701  3.783359  0.001  0.03309  0.000169  4.060644  0.0  0.030975  0.00013  4.079699  0.0  0.003698  0.034969  0.000218  4.044526  0.001
C  C58  1  0.93604700  0.09324732  0.36069503  1  0.666025  -0.012391  3.819403  -0.009  0.622887  -0.001393  4.109906  -0.001  0.66267  -0.001373  4.101476  0.0  0.218253  0.593335  -0.002392  4.115783  -0.002
C  C59  1  0.39022616  0.90694081  0.63919911  1  0.664422  -0.012478  3.820194  -0.009  0.621664  -0.001479  4.110451  -0.001  0.661428  -0.00146  4.102093  0.0  0.217471  0.591731  -0.002461  4.116835  -0.002
Cl  Cl60  1  0.53430715  0.09945241  0.10220220  1  -0.063205  9.4e-05  1.416289  0.0  -0.04738  5.2e-05  1.660912  0.0  -0.05024  3.5e-05  1.654834  0.0  0.020484  -0.044931  8.4e-05  1.66556  0.0
Cl  Cl61  1  0.73647498  0.90056653  0.89768341  1  -0.061611  9.6e-05  1.419486  0.0  -0.045514  5.2e-05  1.664492  0.0  -0.048416  3.3e-05  1.658448  0.0  0.021143  -0.043971  8.8e-05  1.667492  0.0
O  O62  1  0.83124814  0.10616475  0.60611477  1  -0.637815  0.034622  2.153608  0.065  -0.605037  0.02524  2.432  0.042  -0.642344  0.018796  2.419351  0.032  -0.31636  -0.575217  0.032788  2.439519  0.054
O  O63  1  0.54394964  0.89354854  0.39395766  1  -0.635479  0.034667  2.154224  0.065  -0.603689  0.025314  2.432596  0.042  -0.64094  0.01889  2.419958  0.032  -0.316408  -0.574044  0.032838  2.439662  0.054
O  O64  1  0.51417786  0.21440853  0.56275289  1  -0.620874  0.037365  2.073462  0.068  -0.593776  0.027711  2.337832  0.046  -0.628528  0.021222  2.324612  0.035  -0.315763  -0.566527  0.034801  2.346326  0.057
O  O65  1  0.29143323  0.78572362  0.43730538  1  -0.6205  0.037351  2.073538  0.068  -0.593524  0.027681  2.337197  0.046  -0.628368  0.021207  2.323957  0.035  -0.315933  -0.566098  0.034759  2.345551  0.057
O  O66  1  0.38041915  0.43643343  0.69517447  1  -0.289752  0.001201  2.301232  0.002  -0.226229  0.000819  2.52973  0.001  -0.24277  0.000511  2.531631  0.001  -0.179457  -0.21473  0.0013  2.527842  0.002
O  O67  1  0.51166035  0.56348969  0.30506687  1  -0.288969  0.001078  2.300312  0.002  -0.225715  0.000726  2.530139  0.001  -0.242279  0.000452  2.531961  0.001  -0.179937  -0.213969  0.001294  2.528442  0.002
O  O68  1  0.80827247  0.25310515  0.97969622  1  -0.282312  -0.000331  2.363351  0.0  -0.219568  -0.000181  2.592624  0.0  -0.236373  -0.000135  2.593313  0.0  -0.154389  -0.207844  -0.000258  2.591663  0.0
O  O69  1  0.04153463  0.74681857  0.02013882  1  -0.282076  -0.000301  2.363048  0.0  -0.220063  -0.000152  2.59301  0.0  -0.236942  -0.000121  2.593747  0.0  -0.154371  -0.208357  -0.000242  2.592221  0.0
O  O70  1  0.07310736  0.12380082  0.38945291  1  -0.632229  0.034031  2.042074  0.065  -0.589876  0.027584  2.289056  0.05  -0.623644  0.020816  2.277106  0.039  -0.298478  -0.564195  0.034639  2.296468  0.061
O  O71  1  0.58658193  0.87637948  0.61039015  1  -0.631389  0.03411  2.041567  0.065  -0.588935  0.027639  2.288113  0.05  -0.622795  0.02087  2.276311  0.039  -0.298399  -0.563326  0.034752  2.295927  0.061
O  O72  1  0.84329533  0.00757433  0.41986416  1  -0.661075  0.056635  2.146279  0.101  -0.633888  0.045437  2.43788  0.072  -0.67502  0.035073  2.42183  0.056  -0.310576  -0.60048  0.056294  2.447853  0.089
O  O73  1  0.27087267  0.99257537  0.58003681  1  -0.658721  0.056668  2.146057  0.101  -0.631716  0.045471  2.437401  0.072  -0.672946  0.035084  2.421536  0.056  -0.308999  -0.598389  0.05621  2.447715  0.089
O  O74  1  0.99336311  0.76556036  0.60372750  1  -0.808791  0.022963  1.910249  0.041  -0.772893  0.021865  2.112606  0.034  -0.797392  0.017514  2.078491  0.028  -0.553185  -0.754349  0.026119  2.136992  0.04
O  O75  1  0.36231066  0.23452829  0.39635094  1  -0.809171  0.022962  1.909196  0.041  -0.774339  0.021899  2.111495  0.034  -0.798761  0.017542  2.07751  0.028  -0.554509  -0.755577  0.02613  2.135601  0.04
