# generated using pymatgen
data_CdH17C17N5O4
_symmetry_space_group_name_H-M   'P 1'
_cell_length_a   12.05123964
_cell_length_b   12.04105521
_cell_length_c   15.92531480
_cell_angle_alpha   105.07729887
_cell_angle_beta   105.66361945
_cell_angle_gamma   107.37535544
_symmetry_Int_Tables_number   1
_chemical_formula_structural   CdH17C17N5O4
_chemical_formula_sum   'Cd4 H68 C68 N20 O16'
_cell_volume   1972.17037513
_cell_formula_units_Z   4
loop_
 _symmetry_equiv_pos_site_id
 _symmetry_equiv_pos_as_xyz
  1  'x, y, z'
loop_
 _atom_site_type_symbol
 _atom_site_label
 _atom_site_symmetry_multiplicity
 _atom_site_fract_x
 _atom_site_fract_y
 _atom_site_fract_z
 _atom_site_occupancy
 _atom_site_pbe_bader_charge
 _atom_site_pbe_bader_spin_density
 _atom_site_pbe_cm5_charge
 _atom_site_pbe_ddec_charge
 _atom_site_pbe_ddec_spin_density
 _atom_site_pbe_ddec_sum_bond_order
 _atom_site_pbe_magmom
Cd  Cd0  1  0.17115214  0.80026235  0.62382781  1  1.211343  0  0.774112  0.792148  0  2.306118  0
Cd  Cd1  1  0.67669608  0.54703481  0.87630593  1  1.213169  0  0.77388  0.791808  0  2.307843  0
Cd  Cd2  1  0.82884645  0.19973749  0.37616976  1  1.211328  0  0.774132  0.79221  0  2.306108  0
Cd  Cd3  1  0.32329935  0.45295875  0.12369605  1  1.213165  0  0.773905  0.791768  0  2.307743  0
H  H4  1  0.88668607  0.41328380  0.57105832  1  0.086287  0  0.108418  0.108199  0  1.008199  0
H  H5  1  0.70751729  0.24468873  0.57481513  1  0.08947  0  0.113021  0.121284  0  0.9934  0
H  H6  1  0.61599700  0.30285467  0.69615112  1  0.167195  0  0.119098  0.109805  0  1.031673  0
H  H7  1  0.24370020  0.96785835  0.49271094  1  0.195893  0  0.136434  0.112546  0  1.004342  0
H  H8  1  0.88022005  0.73562436  0.45395310  1  0.123702  0  0.119096  0.120049  0  1.014296  0
H  H9  1  0.86085455  0.85266722  0.32359445  1  0.106088  0  0.118315  0.119823  0  1.038651  0
H  H10  1  0.19956749  0.07565909  0.38237481  1  0.08284  0  0.114768  0.093845  0  0.956365  0
H  H11  1  0.04491861  0.06103762  0.32763395  1  0.087442  0  0.114307  0.104082  0  0.993037  0
H  H12  1  0.99850600  0.85988949  0.20315902  1  0.015539  0  0.086452  0.075971  0  1.03219  0
H  H13  1  0.12175895  0.98741265  0.20694548  1  0.060446  0  0.096184  0.105598  0  0.984042  0
H  H14  1  0.63306113  0.51224151  0.55358901  1  0.037118  0  0.096247  0.097924  0  1.003065  0
H  H15  1  0.49382523  0.41498122  0.55760799  1  0.028261  0  0.094966  0.09297  0  0.980352  0
H  H16  1  0.60241893  0.61217815  0.69674308  1  0.121289  0  0.108514  0.085182  0  1.026336  0
H  H17  1  0.60025168  0.70245802  0.62479110  1  0.054339  0  0.116438  0.097321  0  0.95253  0
H  H18  1  0.43339132  0.78254957  0.60792713  1  0.175436  0  0.133526  0.109938  0  1.017126  0
H  H19  1  0.14763986  0.50483385  0.63288073  1  0.114251  0  0.118777  0.113804  0  1.005238  0
H  H20  1  0.35382596  0.43944239  0.65259133  1  0.173256  0  0.126201  0.143247  0  1.014107  0
H  H21  1  0.34191929  0.31551964  0.92908150  1  0.081358  0  0.108292  0.107979  0  1.007988  0
H  H22  1  0.16963641  0.13223453  0.92505665  1  0.097391  0  0.11308  0.121259  0  0.992073  0
H  H23  1  0.10682042  0.91949669  0.80368366  1  0.179696  0  0.11868  0.109132  0  1.032672  0
H  H24  1  0.97532720  0.75123114  0.00734156  1  0.184256  0  0.136432  0.112702  0  1.004262  0
H  H25  1  0.78211987  0.42620324  0.04617578  1  0.127563  0  0.119234  0.119464  0  1.015242  0
H  H26  1  0.02919957  0.53726351  0.17659045  1  0.133621  0  0.118318  0.119944  0  1.039177  0
H  H27  1  0.19327292  0.81745044  0.11777802  1  0.035802  0  0.114735  0.093615  0  0.957192  0
H  H28  1  0.23330647  0.71736226  0.17250282  1  0.075406  0  0.114293  0.10406  0  0.992408  0
H  H29  1  0.15660616  0.79533588  0.29696400  1  0.036311  0  0.086431  0.075516  0  1.032387  0
H  H30  1  0.28028799  0.91489199  0.29319712  1  0.054148  0  0.096377  0.105606  0  0.983085  0
H  H31  1  0.45805066  0.07906334  0.94612394  1  0.052989  0  0.096013  0.097963  0  1.003366  0
H  H32  1  0.35748533  0.93566313  0.94254480  1  0.038768  0  0.095045  0.092975  0  0.979931  0
H  H33  1  0.41534211  0.90524470  0.80322741  1  0.079026  0  0.108201  0.084398  0  1.026146  0
H  H34  1  0.57743943  0.97539034  0.87514241  1  0.07322  0  0.116285  0.097036  0  0.953397  0
H  H35  1  0.67470780  0.82528920  0.89198633  1  0.191244  0  0.133742  0.110423  0  1.015599  0
H  H36  1  0.37275136  0.51450186  0.86770837  1  0.109439  0  0.118379  0.113293  0  1.005778  0
H  H37  1  0.28748118  0.70099535  0.84796607  1  0.160319  0  0.126093  0.143052  0  1.013767  0
H  H38  1  0.11331525  0.58672909  0.42894295  1  0.086168  0  0.10845  0.108229  0  1.00816  0
H  H39  1  0.29247787  0.75531955  0.42517601  1  0.089361  0  0.112975  0.121228  0  0.993391  0
H  H40  1  0.38399961  0.69714655  0.30384440  1  0.167131  0  0.119114  0.109887  0  1.031623  0
H  H41  1  0.75629669  0.03214299  0.50728867  1  0.195922  0  0.136414  0.112546  0  1.004187  0
H  H42  1  0.11977850  0.26437283  0.54604443  1  0.123643  0  0.119072  0.120011  0  1.014347  0
H  H43  1  0.13914724  0.14733121  0.67640163  1  0.106063  0  0.118271  0.119795  0  1.038736  0
H  H44  1  0.80044098  0.92433799  0.61762718  1  0.082894  0  0.114786  0.093823  0  0.956351  0
H  H45  1  0.95509179  0.93896895  0.67236806  1  0.087371  0  0.114273  0.103991  0  0.993168  0
H  H46  1  0.00149790  0.14011327  0.79684111  1  0.015463  0  0.086444  0.075936  0  1.032216  0
H  H47  1  0.87824658  0.01258689  0.79305539  1  0.060516  0  0.096187  0.105635  0  0.98395  0
H  H48  1  0.36694191  0.48777439  0.44640636  1  0.037041  0  0.096262  0.097886  0  1.003241  0
H  H49  1  0.50617885  0.58502405  0.44238374  1  0.028099  0  0.094946  0.092926  0  0.980317  0
H  H50  1  0.39757905  0.38782329  0.30325194  1  0.121183  0  0.108548  0.085195  0  1.02633  0
H  H51  1  0.39973644  0.29754526  0.37520619  1  0.054342  0  0.11644  0.09733  0  0.952592  0
H  H52  1  0.56659836  0.21744652  0.39207561  1  0.175341  0  0.133551  0.110035  0  1.017109  0
H  H53  1  0.85235054  0.49515109  0.36711232  1  0.114373  0  0.118742  0.113765  0  1.005254  0
H  H54  1  0.64616867  0.56054535  0.34739936  1  0.173301  0  0.126204  0.143183  0  1.014186  0
H  H55  1  0.65806279  0.68447120  0.07091918  1  0.081406  0  0.108276  0.107996  0  1.008005  0
H  H56  1  0.83034657  0.86774900  0.07494022  1  0.097372  0  0.112977  0.121137  0  0.992176  0
H  H57  1  0.89316468  0.08049116  0.19630774  1  0.179794  0  0.118769  0.109212  0  1.032648  0
H  H58  1  0.02466592  0.24876910  0.99266279  1  0.183959  0  0.136461  0.112706  0  1.004252  0
H  H59  1  0.21788204  0.57379281  0.95382330  1  0.127702  0  0.119269  0.119517  0  1.01515  0
H  H60  1  0.97080237  0.46272936  0.82340772  1  0.133827  0  0.118341  0.11998  0  1.039065  0
H  H61  1  0.80672208  0.18254631  0.88221969  1  0.035815  0  0.114747  0.093623  0  0.957172  0
H  H62  1  0.76668842  0.28263237  0.82749574  1  0.075628  0  0.114342  0.104109  0  0.992346  0
H  H63  1  0.84339859  0.20466726  0.70303891  1  0.036379  0  0.086413  0.075519  0  1.03239  0
H  H64  1  0.71971479  0.08510576  0.70679999  1  0.054182  0  0.096368  0.105592  0  0.983075  0
H  H65  1  0.54195361  0.92093675  0.05387182  1  0.052949  0  0.096014  0.097934  0  1.003313  0
H  H66  1  0.64252343  0.06433632  0.05744985  1  0.038566  0  0.095024  0.092971  0  0.979947  0
H  H67  1  0.58466563  0.09475862  0.19676713  1  0.079094  0  0.108226  0.084429  0  1.026267  0
H  H68  1  0.42257118  0.02461915  0.12485313  1  0.072954  0  0.116262  0.096978  0  0.953483  0
H  H69  1  0.32530770  0.17471738  0.10801520  1  0.191451  0  0.133797  0.110471  0  1.015549  0
H  H70  1  0.62725889  0.48550803  0.13229348  1  0.109544  0  0.11843  0.113376  0  1.00576  0
H  H71  1  0.71253114  0.29901263  0.15202742  1  0.160152  0  0.12612  0.143029  0  1.013819  0
C  C72  1  0.99428906  0.65660960  0.67937433  1  1.629164  0  0.188438  0.577809  0  4.276453  0
C  C73  1  0.88531546  0.55909011  0.68270366  1  -0.051266  0  0.002194  -0.04908  0  3.918115  0
C  C74  1  0.84303088  0.43495088  0.62135650  1  -0.022972  0  -0.066859  -0.065501  0  3.943964  0
C  C75  1  0.74413872  0.34121747  0.62353760  1  -0.017367  0  -0.081795  -0.126378  0  3.994243  0
C  C76  1  0.69202298  0.37296122  0.68981807  1  0.439335  0  0.044222  0.078141  0  3.935227  0
C  C77  1  0.82571825  0.58511850  0.74529956  1  0.520908  0  0.108422  0.064105  0  3.930524  0
C  C78  1  0.85598682  0.71990091  0.80696429  1  1.628701  0  0.185793  0.523271  0  4.309305  0
C  C79  1  0.14229269  0.91947550  0.46432708  1  0.934305  0  0.134777  0.075034  0  3.95004  0
C  C80  1  0.95252359  0.80046973  0.44147741  1  0.411556  0  -0.006028  -0.036542  0  3.999798  0
C  C81  1  0.94207026  0.85826423  0.37736304  1  0.310086  0  -0.001268  -0.101101  0  3.901961  0
C  C82  1  0.10307708  0.00737793  0.33857043  1  0.275607  0  -0.047262  -0.058662  0  3.870555  0
C  C83  1  0.09686962  0.92528354  0.24486725  1  0.010303  0  -0.167481  -0.17664  0  3.947626  0
C  C84  1  0.53749368  0.50287030  0.54811986  1  -0.021252  0  -0.164411  -0.173853  0  3.945876  0
C  C85  1  0.54978595  0.61281212  0.62906181  1  0.265305  0  -0.048522  -0.056505  0  3.877195  0
C  C86  1  0.38213631  0.69707845  0.61537116  1  0.946893  0  0.133692  0.07336  0  3.940255  0
C  C87  1  0.23636398  0.55109051  0.62797331  1  0.466671  0  7e-06  -0.020284  0  4.010388  0
C  C88  1  0.33643208  0.51647434  0.63656447  1  0.229522  0  0.002965  -0.106776  0  3.883556  0
C  C89  1  0.47731211  0.31501580  0.82093611  1  1.648764  0  0.189353  0.578673  0  4.274835  0
C  C90  1  0.37637616  0.20269127  0.81748604  1  -0.025445  0  0.002824  -0.048309  0  3.916679  0
C  C91  1  0.31345318  0.22157912  0.87873431  1  -0.047762  0  -0.066659  -0.064895  0  3.942972  0
C  C92  1  0.21758871  0.12033852  0.87643174  1  -0.018572  0  -0.081846  -0.126129  0  3.992459  0
C  C93  1  0.18322159  0.00198303  0.81011621  1  0.42509  0  0.044827  0.078479  0  3.937658  0
C  C94  1  0.33998572  0.08053083  0.75484913  1  0.487897  0  0.108046  0.064698  0  3.928084  0
C  C95  1  0.41318988  0.04924335  0.69329281  1  1.63616  0  0.185883  0.522313  0  4.309335  0
C  C96  1  0.95536693  0.67810197  0.03572737  1  0.92786  0  0.134219  0.073617  0  3.951403  0
C  C97  1  0.85933437  0.51103109  0.05862845  1  0.412532  0  -0.005762  -0.034904  0  4.001925  0
C  C98  1  0.98108365  0.56475878  0.12279326  1  0.280702  0  -0.001948  -0.102999  0  3.904147  0
C  C99  1  0.16877181  0.76464281  0.16155458  1  0.335193  0  -0.047353  -0.058817  0  3.87115  0
C  C100  1  0.18032907  0.85210707  0.25526565  1  -0.04125  0  -0.167626  -0.176481  0  3.946566  0
C  C101  1  0.45462208  0.98910490  0.95183641  1  -0.023824  0  -0.164559  -0.174275  0  3.945095  0
C  C102  1  0.48369160  0.92046748  0.87096575  1  0.292488  0  -0.047724  -0.055333  0  3.876973  0
C  C103  1  0.58194188  0.76661685  0.88471284  1  0.92172  0  0.133147  0.071823  0  3.938702  0
C  C104  1  0.42372609  0.60814862  0.87244271  1  0.441764  0  0.001125  -0.018309  0  4.010789  0
C  C105  1  0.38044870  0.69963273  0.86385400  1  0.282968  0  0.002807  -0.107988  0  3.883584  0
C  C106  1  0.00571355  0.34339147  0.32063213  1  1.629628  0  0.188534  0.577899  0  4.276493  0
C  C107  1  0.11469194  0.44091628  0.31730672  1  -0.052497  0  0.002202  -0.049062  0  3.918055  0
C  C108  1  0.15697144  0.56505907  0.37864770  1  -0.022453  0  -0.066893  -0.065589  0  3.94389  0
C  C109  1  0.25585957  0.65878900  0.37645963  1  -0.017549  0  -0.081735  -0.12617  0  3.99427  0
C  C110  1  0.30797452  0.62704302  0.31018026  1  0.439923  0  0.04416  0.077951  0  3.935355  0
C  C111  1  0.17428998  0.41488243  0.25471266  1  0.521024  0  0.108424  0.0641  0  3.930537  0
C  C112  1  0.14402474  0.28009981  0.19305230  1  1.628938  0  0.185742  0.523182  0  4.309224  0
C  C113  1  0.85771100  0.08052886  0.53567568  1  0.934148  0  0.134748  0.075019  0  3.949941  0
C  C114  1  0.04747728  0.19952661  0.55851870  1  0.411551  0  -0.006042  -0.036547  0  3.999751  0
C  C115  1  0.05793027  0.14173384  0.62263462  1  0.310083  0  -0.00122  -0.101051  0  3.902045  0
C  C116  1  0.89693013  0.99262329  0.66142930  1  0.275391  0  -0.047199  -0.058477  0  3.870541  0
C  C117  1  0.90313490  0.07471986  0.75513351  1  0.010566  0  -0.167478  -0.176666  0  3.947517  0
C  C118  1  0.46250135  0.49714037  0.45187781  1  0.001275  0  -0.164554  -0.173987  0  3.945895  0
C  C119  1  0.45021134  0.38718696  0.37093538  1  0.265713  0  -0.048449  -0.05645  0  3.877207  0
C  C120  1  0.61785321  0.30291737  0.38462855  1  0.946664  0  0.133624  0.073266  0  3.940425  0
C  C121  1  0.76362797  0.44890075  0.37202319  1  0.466351  0  8e-05  -0.020221  0  4.010046  0
C  C122  1  0.66356070  0.48351822  0.36342812  1  0.229397  0  0.002984  -0.106585  0  3.883327  0
C  C123  1  0.52268080  0.68498511  0.17907755  1  1.648455  0  0.189261  0.578549  0  4.274795  0
C  C124  1  0.62361203  0.79730698  0.18251421  1  -0.024129  0  0.002812  -0.048482  0  3.916871  0
C  C125  1  0.68652862  0.77841160  0.12126228  1  -0.048366  0  -0.066491  -0.06466  0  3.942804  0
C  C126  1  0.78239701  0.87964997  0.12356029  1  -0.018082  0  -0.08185  -0.12611  0  3.992158  0
C  C127  1  0.81676898  0.99801025  0.18987888  1  0.424936  0  0.044738  0.078458  0  3.937394  0
C  C128  1  0.66000353  0.91946844  0.24514935  1  0.487082  0  0.108024  0.064755  0  3.928054  0
C  C129  1  0.58680399  0.95075873  0.30670849  1  1.636465  0  0.185935  0.522508  0  4.309127  0
C  C130  1  0.04463007  0.32189473  0.96427716  1  0.927952  0  0.134218  0.073714  0  3.951273  0
C  C131  1  0.14066777  0.48896244  0.94137470  1  0.412708  0  -0.005796  -0.034995  0  4.002016  0
C  C132  1  0.01891784  0.43523370  0.87720730  1  0.280627  0  -0.002016  -0.103078  0  3.904008  0
C  C133  1  0.83122773  0.23535370  0.83844398  1  0.334888  0  -0.047419  -0.058843  0  3.871311  0
C  C134  1  0.81967323  0.14789347  0.74473476  1  -0.041298  0  -0.167607  -0.176488  0  3.946697  0
C  C135  1  0.54538521  0.01089804  0.04816052  1  -0.044622  0  -0.164569  -0.174326  0  3.945245  0
C  C136  1  0.51631732  0.07953674  0.12902809  1  0.292945  0  -0.047707  -0.055391  0  3.877329  0
C  C137  1  0.41807190  0.23338991  0.11528597  1  0.921935  0  0.133063  0.071638  0  3.938606  0
C  C138  1  0.57628515  0.39186283  0.12755824  1  0.441455  0  0.001063  -0.01839  0  4.010598  0
C  C139  1  0.61956199  0.30037622  0.13614067  1  0.282884  0  0.002719  -0.108219  0  3.883475  0
N  N140  1  0.07806803  0.83934647  0.49507404  1  -1.225469  0  -0.365722  -0.297384  0  3.550611  0
N  N141  1  0.06337365  0.93387472  0.39323371  1  -1.23914  0  -0.243048  0.041865  0  3.780239  0
N  N142  1  0.42782535  0.61036483  0.62850008  1  -1.233998  0  -0.24506  0.044423  0  3.78613  0
N  N143  1  0.26602013  0.66378565  0.61508550  1  -1.219854  0  -0.36602  -0.296334  0  3.565538  0
N  N144  1  0.73368545  0.49191060  0.74914839  1  -1.258071  0  -0.334375  -0.263282  0  3.57223  0
N  N145  1  0.84463722  0.58301060  0.00497713  1  -1.21727  0  -0.365304  -0.297464  0  3.551977  0
N  N146  1  0.04074185  0.67027731  0.10689555  1  -1.235075  0  -0.242335  0.044866  0  3.777449  0
N  N147  1  0.48214708  0.79913458  0.87170247  1  -1.245508  0  -0.244988  0.04642  0  3.783014  0
N  N148  1  0.54910936  0.65075339  0.88511986  1  -1.216304  0  -0.366475  -0.297041  0  3.568274  0
N  N149  1  0.24293915  0.98450167  0.75086244  1  -1.239622  0  -0.334647  -0.264028  0  3.574036  0
N  N150  1  0.92193312  0.16065224  0.50492425  1  -1.225465  0  -0.365677  -0.297357  0  3.550667  0
N  N151  1  0.93663239  0.06612917  0.60676957  1  -1.238998  0  -0.243048  0.041823  0  3.780448  0
N  N152  1  0.57216805  0.38963196  0.37149598  1  -1.234099  0  -0.245141  0.044262  0  3.786374  0
N  N153  1  0.73397487  0.33620884  0.38491413  1  -1.219675  0  -0.366023  -0.296367  0  3.565368  0
N  N154  1  0.26631637  0.50809049  0.25085724  1  -1.258258  0  -0.334333  -0.26326  0  3.572282  0
N  N155  1  0.15535966  0.41698623  0.99502633  1  -1.217359  0  -0.365282  -0.297329  0  3.551924  0
N  N156  1  0.95925499  0.32971688  0.89310788  1  -1.235117  0  -0.242303  0.044747  0  3.777347  0
N  N157  1  0.51786493  0.20087195  0.12829167  1  -1.245514  0  -0.244871  0.046864  0  3.78253  0
N  N158  1  0.45090405  0.34925602  0.11488333  1  -1.216288  0  -0.366469  -0.296989  0  3.568264  0
N  N159  1  0.75705224  0.01549742  0.24913441  1  -1.240022  0  -0.33457  -0.264069  0  3.573831  0
O  O160  1  0.97135455  0.68486011  0.60607297  1  -1.157117  0  -0.345892  -0.558951  0  2.195607  0
O  O161  1  0.10114508  0.69402987  0.74236427  1  -1.179218  0  -0.336787  -0.572341  0  2.123894  0
O  O162  1  0.81460918  0.73361216  0.87353071  1  -1.190973  0  -0.351445  -0.587344  0  2.275176  0
O  O163  1  0.91529040  0.80548131  0.78544356  1  -1.17324  0  -0.323344  -0.534568  0  2.159203  0
O  O164  1  0.57860953  0.36527534  0.89435730  1  -1.175082  0  -0.346242  -0.559697  0  2.196424  0
O  O165  1  0.45219538  0.35894654  0.75785729  1  -1.174288  0  -0.337093  -0.572942  0  2.124119  0
O  O166  1  0.36030536  0.94141120  0.62656242  1  -1.193874  0  -0.351734  -0.58736  0  2.27407  0
O  O167  1  0.52033504  0.12998327  0.71501214  1  -1.172236  0  -0.323486  -0.534296  0  2.159598  0
O  O168  1  0.02864267  0.31514534  0.39393555  1  -1.157147  0  -0.345999  -0.559036  0  2.195711  0
O  O169  1  0.89886038  0.30596795  0.25763940  1  -1.179067  0  -0.33677  -0.572315  0  2.123885  0
O  O170  1  0.18539913  0.26638599  0.12648255  1  -1.191075  0  -0.351401  -0.587207  0  2.275105  0
O  O171  1  0.08472609  0.19452141  0.21457712  1  -1.173293  0  -0.323403  -0.53465  0  2.159234  0
O  O172  1  0.42137726  0.63473076  0.10566151  1  -1.174965  0  -0.346216  -0.559583  0  2.196313  0
O  O173  1  0.54781143  0.64105377  0.24215349  1  -1.174097  0  -0.337039  -0.572888  0  2.123958  0
O  O174  1  0.63969275  0.05859144  0.37343845  1  -1.194051  0  -0.351811  -0.58753  0  2.274136  0
O  O175  1  0.47966403  0.87001510  0.28499641  1  -1.172341  0  -0.323527  -0.534387  0  2.159469  0
