# generated using pymatgen
data_SnH14C9SO2
_symmetry_space_group_name_H-M   'P 1'
_cell_length_a   9.51441929
_cell_length_b   9.97504476
_cell_length_c   13.79215744
_cell_angle_alpha   69.59739215
_cell_angle_beta   70.82788516
_cell_angle_gamma   74.97334392
_symmetry_Int_Tables_number   1
_chemical_formula_structural   SnH14C9SO2
_chemical_formula_sum   'Sn4 H56 C36 S4 O8'
_cell_volume   1143.20474081
_cell_formula_units_Z   4
loop_
 _symmetry_equiv_pos_site_id
 _symmetry_equiv_pos_as_xyz
  1  'x, y, z'
loop_
 _atom_site_type_symbol
 _atom_site_label
 _atom_site_symmetry_multiplicity
 _atom_site_fract_x
 _atom_site_fract_y
 _atom_site_fract_z
 _atom_site_occupancy
 _atom_site_hle17_bader_spin_density
 _atom_site_hle17_ddec_charge
 _atom_site_hle17_ddec_spin_density
 _atom_site_hle17_ddec_sum_bond_order
 _atom_site_hle17_magmom
 _atom_site_hse06_10hf_bader_spin_density
 _atom_site_hse06_10hf_ddec_charge
 _atom_site_hse06_10hf_ddec_spin_density
 _atom_site_hse06_10hf_ddec_sum_bond_order
 _atom_site_hse06_10hf_magmom
 _atom_site_hse06_bader_spin_density
 _atom_site_hse06_ddec_charge
 _atom_site_hse06_ddec_spin_density
 _atom_site_hse06_ddec_sum_bond_order
 _atom_site_hse06_magmom
 _atom_site_pbe_bader_spin_density
 _atom_site_pbe_cm5_charge
 _atom_site_pbe_ddec_charge
 _atom_site_pbe_ddec_spin_density
 _atom_site_pbe_ddec_sum_bond_order
 _atom_site_pbe_magmom
Sn  Sn0  1  0.94684946  0.57023433  0.22004412  1  0  1.366668  0  2.884048  0  0  1.237082  0  3.373236  0  0  1.275159  0  3.357249  0  0  0.516504  1.21116  0  3.383256  0
Sn  Sn1  1  0.05314984  0.42977003  0.77995518  1  0  1.366668  0  2.884056  0  0  1.237069  0  3.37328  0  0  1.275143  0  3.357289  0  0  0.5165  1.211138  0  3.383306  0
Sn  Sn2  1  0.04577875  0.01236508  0.28196282  1  0  1.37932  0  2.873414  0  0  1.252308  0  3.358486  0  0  1.290383  0  3.341882  0  0  0.518747  1.226558  0  3.368255  0
Sn  Sn3  1  0.95420945  0.98763174  0.71805391  1  0  1.379204  0  2.873534  0  0  1.252262  0  3.358544  0  0  1.290372  0  3.341868  0  0  0.518771  1.22651  0  3.36832  0
H  H4  1  0.32689346  0.25068928  0.02026864  1  0  0.122793  0  0.961969  0  0  0.144052  0  1.023518  0  0  0.145594  0  1.02346  0  0  0.095606  0.14293  0  1.023491  0
H  H5  1  0.67310456  0.74932266  0.97972830  1  0  0.122787  0  0.961954  0  0  0.144018  0  1.023542  0  0  0.145559  0  1.023486  0  0  0.0956  0.142898  0  1.023509  0
H  H6  1  0.48944268  0.30250624  0.91836721  1  0  0.113406  0  0.935033  0  0  0.135388  0  0.994726  0  0  0.13699  0  0.99417  0  0  0.09314  0.134026  0  0.995457  0
H  H7  1  0.51055518  0.69750679  0.08162805  1  0  0.11342  0  0.935056  0  0  0.135392  0  0.994775  0  0  0.136998  0  0.994214  0  0  0.093133  0.134029  0  0.995506  0
H  H8  1  0.39293653  0.40728447  0.00938596  1  0  0.11491  0  0.950275  0  0  0.138604  0  1.008682  0  0  0.139903  0  1.008654  0  0  0.095856  0.137499  0  1.009173  0
H  H9  1  0.60707071  0.59271880  0.99061475  1  0  0.114918  0  0.950268  0  0  0.138648  0  1.00862  0  0  0.139946  0  1.008593  0  0  0.095891  0.137547  0  1.0091  0
H  H10  1  0.73350322  0.16946286  0.24286638  1  0  0.099442  0  0.984883  0  0  0.115107  0  1.044271  0  0  0.116685  0  1.043606  0  0  0.107358  0.11401  0  1.044796  0
H  H11  1  0.26649772  0.83052523  0.75713594  1  0  0.099507  0  0.984922  0  0  0.115152  0  1.044328  0  0  0.11674  0  1.043636  0  0  0.107376  0.114059  0  1.044842  0
H  H12  1  0.86418353  0.36148077  0.17565098  1  0  0.14948  0  1.016585  0  0  0.169082  0  1.073574  0  0  0.171159  0  1.075055  0  0  0.084782  0.167731  0  1.072292  0
H  H13  1  0.13582129  0.63853113  0.82433431  1  0  0.149452  0  1.016565  0  0  0.169023  0  1.073601  0  0  0.171097  0  1.075088  0  0  0.084743  0.167673  0  1.072318  0
H  H14  1  0.85419671  0.52572507  0.06915170  1  0  0.153475  0  0.985738  0  0  0.175107  0  1.037084  0  0  0.177407  0  1.038314  0  0  0.087102  0.173436  0  1.036117  0
H  H15  1  0.14581525  0.47429011  0.93083915  1  0  0.15355  0  0.985708  0  0  0.175187  0  1.037026  0  0  0.177487  0  1.038255  0  0  0.08717  0.173517  0  1.036062  0
H  H16  1  0.70686626  0.50481368  0.19102812  1  0  0.148976  0  0.995597  0  0  0.167258  0  1.054304  0  0  0.16957  0  1.055349  0  0  0.082522  0.165447  0  1.053754  0
H  H17  1  0.29313984  0.49519715  0.80895788  1  0  0.149045  0  0.995375  0  0  0.167284  0  1.054129  0  0  0.169596  0  1.055173  0  0  0.082526  0.165473  0  1.053578  0
H  H18  1  0.80169398  0.58203739  0.42299196  1  0  0.154148  0  1.013903  0  0  0.170236  0  1.074191  0  0  0.172404  0  1.076115  0  0  0.082156  0.168747  0  1.072818  0
H  H19  1  0.19830165  0.41795611  0.57700509  1  0  0.154116  0  1.013983  0  0  0.170206  0  1.074274  0  0  0.172375  0  1.076196  0  0  0.082135  0.16872  0  1.072887  0
H  H20  1  0.00007234  0.54487276  0.40757214  1  0  0.160214  0  0.996241  0  0  0.180067  0  1.050916  0  0  0.182224  0  1.052609  0  0  0.0873  0.178397  0  1.050075  0
H  H21  1  0.99992493  0.45511750  0.59242755  1  0  0.160237  0  0.996294  0  0  0.180121  0  1.050927  0  0  0.182279  0  1.052621  0  0  0.087331  0.178451  0  1.050087  0
H  H22  1  0.90397440  0.40239939  0.42667198  1  0  0.1445  0  1.011371  0  0  0.162792  0  1.069497  0  0  0.165294  0  1.070247  0  0  0.080804  0.160896  0  1.069296  0
H  H23  1  0.09602164  0.59759194  0.57332192  1  0  0.144508  0  1.011323  0  0  0.162805  0  1.069454  0  0  0.165307  0  1.070206  0  0  0.080842  0.160911  0  1.069252  0
H  H24  1  0.18587907  0.71833135  0.14434869  1  0  0.145745  0  1.009138  0  0  0.1644  0  1.067788  0  0  0.166751  0  1.068799  0  0  0.082744  0.162703  0  1.067212  0
H  H25  1  0.81411742  0.28168278  0.85565239  1  0  0.145706  0  1.009183  0  0  0.164361  0  1.067822  0  0  0.166711  0  1.06883  0  0  0.082732  0.162665  0  1.067245  0
H  H26  1  0.08180770  0.76956829  0.04745765  1  0  0.158071  0  0.999738  0  0  0.178422  0  1.052208  0  0  0.180965  0  1.053505  0  0  0.085706  0.176545  0  1.051559  0
H  H27  1  0.91818748  0.23044693  0.95254489  1  0  0.15812  0  0.999691  0  0  0.178465  0  1.052178  0  0  0.181007  0  1.053476  0  0  0.085694  0.176588  0  1.051529  0
H  H28  1  0.20861165  0.60147698  0.06491850  1  0  0.150443  0  1.003382  0  0  0.168879  0  1.061756  0  0  0.171403  0  1.062718  0  0  0.083139  0.167202  0  1.061061  0
H  H29  1  0.79138952  0.39854256  0.93507800  1  0  0.150427  0  1.003409  0  0  0.16887  0  1.061772  0  0  0.171396  0  1.06273  0  0  0.083145  0.167193  0  1.061078  0
H  H30  1  0.85415410  0.21730487  0.37042261  1  0  0.149133  0  1.00165  0  0  0.169904  0  1.056295  0  0  0.172037  0  1.057848  0  0  0.085563  0.167995  0  1.056047  0
H  H31  1  0.14584958  0.78268648  0.62958262  1  0  0.149096  0  1.001707  0  0  0.169868  0  1.056338  0  0  0.172  0  1.057893  0  0  0.085533  0.167958  0  1.05609  0
H  H32  1  0.88516880  0.05356604  0.47444601  1  0  0.154875  0  1.00407  0  0  0.172494  0  1.063344  0  0  0.175342  0  1.063902  0  0  0.085641  0.170384  0  1.063176  0
H  H33  1  0.11483472  0.94642639  0.52555754  1  0  0.154893  0  1.00399  0  0  0.172489  0  1.063296  0  0  0.175338  0  1.063856  0  0  0.085612  0.170378  0  1.063127  0
H  H34  1  0.75709296  0.06962563  0.40028766  1  0  0.141575  0  1.035232  0  0  0.154046  0  1.104442  0  0  0.156527  0  1.10537  0  0  0.077412  0.152177  0  1.104017  0
H  H35  1  0.24290664  0.93037007  0.59971884  1  0  0.141604  0  1.03531  0  0  0.154046  0  1.104538  0  0  0.156525  0  1.105471  0  0  0.077422  0.152179  0  1.104107  0
H  H36  1  0.98454126  0.10706887  0.08961918  1  0  0.151045  0  1.016046  0  0  0.170189  0  1.070784  0  0  0.172228  0  1.072635  0  0  0.082659  0.168245  0  1.070251  0
H  H37  1  0.01546818  0.89290838  0.91038472  1  0  0.15105  0  1.015918  0  0  0.170169  0  1.070705  0  0  0.172202  0  1.072567  0  0  0.082687  0.168229  0  1.070166  0
H  H38  1  0.18384460  0.05439301  0.06967269  1  0  0.14155  0  1.03334  0  0  0.15251  0  1.103623  0  0  0.155167  0  1.104735  0  0  0.07363  0.150476  0  1.102842  0
H  H39  1  0.81616836  0.94559617  0.93033104  1  0  0.141419  0  1.033416  0  0  0.152385  0  1.103698  0  0  0.15504  0  1.104814  0  0  0.073574  0.150352  0  1.102918  0
H  H40  1  0.09327680  0.22577813  0.09455637  1  0  0.158844  0  1.00375  0  0  0.17625  0  1.060992  0  0  0.179457  0  1.060615  0  0  0.086752  0.173803  0  1.061458  0
H  H41  1  0.90672043  0.77421213  0.90544695  1  0  0.158753  0  1.003834  0  0  0.176204  0  1.061016  0  0  0.179412  0  1.06064  0  0  0.086761  0.173761  0  1.061477  0
H  H42  1  0.15702039  0.72779596  0.30459031  1  0  0.141824  0  1.0322  0  0  0.160286  0  1.092302  0  0  0.162402  0  1.093629  0  0  0.082708  0.158788  0  1.091289  0
H  H43  1  0.84298163  0.27219865  0.69541448  1  0  0.141811  0  1.03229  0  0  0.160272  0  1.0924  0  0  0.162386  0  1.09373  0  0  0.082713  0.158778  0  1.09138  0
H  H44  1  0.14917863  0.76797210  0.42244784  1  0  0.150188  0  1.003935  0  0  0.169961  0  1.059698  0  0  0.172186  0  1.061097  0  0  0.084348  0.168331  0  1.058834  0
H  H45  1  0.85081486  0.23202686  0.57755847  1  0  0.150185  0  1.003879  0  0  0.169942  0  1.059688  0  0  0.172167  0  1.061088  0  0  0.084329  0.168313  0  1.05882  0
H  H46  1  0.29794627  0.81854741  0.30432484  1  0  0.153517  0  0.987624  0  0  0.172056  0  1.044  0  0  0.174683  0  1.044501  0  0  0.085449  0.170145  0  1.043503  0
H  H47  1  0.70205718  0.18144504  0.69568453  1  0  0.153592  0  0.987638  0  0  0.172153  0  1.043966  0  0  0.17477  0  1.04448  0  0  0.085506  0.170239  0  1.043473  0
H  H48  1  0.45947228  0.53140326  0.36367537  1  0  0.107704  0  0.963924  0  0  0.12101  0  1.020931  0  0  0.123743  0  1.020511  0  0  0.103458  0.119095  0  1.021401  0
H  H49  1  0.54055472  0.46858912  0.63631283  1  0  0.107664  0  0.964002  0  0  0.120988  0  1.020971  0  0  0.123721  0  1.020553  0  0  0.103439  0.119079  0  1.021428  0
H  H50  1  0.28972772  0.52236921  0.24890682  1  0  0.097908  0  0.976467  0  0  0.111425  0  1.037487  0  0  0.113578  0  1.036157  0  0  0.106197  0.109913  0  1.03847  0
H  H51  1  0.71028925  0.47762969  0.75108413  1  0  0.097876  0  0.976473  0  0  0.111451  0  1.03742  0  0  0.113567  0  1.036136  0  0  0.106181  0.109943  0  1.038401  0
H  H52  1  0.55861170  0.37254726  0.13482076  1  0  0.104634  0  0.965842  0  0  0.116838  0  1.026187  0  0  0.119171  0  1.02663  0  0  0.101429  0.114988  0  1.026592  0
H  H53  1  0.44138756  0.62744409  0.86518329  1  0  0.10468  0  0.965731  0  0  0.116875  0  1.026092  0  0  0.119207  0  1.026537  0  0  0.101413  0.115024  0  1.026496  0
H  H54  1  0.59186555  0.15813427  0.54654938  1  0  0.122519  0  0.95561  0  0  0.140547  0  1.021245  0  0  0.14248  0  1.020751  0  0  0.09272  0.139291  0  1.02117  0
H  H55  1  0.40812909  0.84186468  0.45345377  1  0  0.122601  0  0.955684  0  0  0.140611  0  1.02132  0  0  0.142544  0  1.020828  0  0  0.09272  0.139354  0  1.021246  0
H  H56  1  0.44938047  0.27913982  0.60790757  1  0  0.118809  0  0.945511  0  0  0.137933  0  1.009497  0  0  0.139895  0  1.008568  0  0  0.093728  0.135898  0  1.010728  0
H  H57  1  0.55062214  0.72087106  0.39209370  1  0  0.118859  0  0.945496  0  0  0.137988  0  1.009464  0  0  0.139949  0  1.008535  0  0  0.09377  0.135956  0  1.010691  0
H  H58  1  0.60892626  0.34393238  0.50619328  1  0  0.11688  0  0.945978  0  0  0.142546  0  0.999436  0  0  0.143398  0  1.000534  0  0  0.097208  0.141869  0  0.998859  0
H  H59  1  0.39107608  0.65606762  0.49379920  1  0  0.116908  0  0.946028  0  0  0.142572  0  0.999454  0  0  0.143424  0  1.000551  0  0  0.097195  0.141898  0  0.998876  0
C  C60  1  0.42861190  0.29655029  0.00242781  1  0  -0.331564  0  3.752318  0  0  -0.415667  0  3.994197  0  0  -0.41803  0  4.003128  0  0  -0.238408  -0.413742  0  3.988169  0
C  C61  1  0.57139147  0.70345623  0.99757076  1  0  -0.331602  0  3.752223  0  0  -0.415697  0  3.994103  0  0  -0.418066  0  4.003039  0  0  -0.238456  -0.413772  0  3.988072  0
C  C62  1  0.52517868  0.20984140  0.07647194  1  0  0.092424  0  3.700383  0  0  0.112447  0  3.969483  0  0  0.116382  0  3.991852  0  0  -0.007074  0.109715  0  3.953897  0
C  C63  1  0.47481970  0.79016187  0.92352711  1  0  0.092427  0  3.700402  0  0  0.112462  0  3.969495  0  0  0.116396  0  3.991867  0  0  -0.007083  0.109729  0  3.953911  0
C  C64  1  0.67769843  0.15078527  0.19269567  1  0  -0.063844  0  3.787292  0  0  -0.099439  0  4.051027  0  0  -0.094015  0  4.06931  0  0  -0.093631  -0.102998  0  4.038494  0
C  C65  1  0.32229286  0.84920718  0.80730987  1  0  -0.063891  0  3.787527  0  0  -0.099513  0  4.051237  0  0  -0.094089  0  4.069531  0  0  -0.093666  -0.103072  0  4.038698  0
C  C66  1  0.44737255  0.30302165  0.44725561  1  0  0.078353  0  3.720097  0  0  0.099214  0  3.987507  0  0  0.103026  0  4.010042  0  0  -0.009561  0.097228  0  3.972122  0
C  C67  1  0.55262186  0.69697839  0.55275094  1  0  0.078384  0  3.720073  0  0  0.099256  0  3.987441  0  0  0.103069  0  4.009976  0  0  -0.009477  0.097269  0  3.972064  0
C  C68  1  0.19707343  0.24886348  0.29121237  1  0  0.667408  0  3.929454  0  0  0.614615  0  4.222891  0  0  0.650256  0  4.213564  0  0  0.219391  0.590809  0  4.227856  0
C  C69  1  0.80292106  0.75114305  0.70878672  1  0  0.667032  0  3.929484  0  0  0.614332  0  4.22288  0  0  0.649971  0  4.21356  0  0  0.219168  0.590536  0  4.227818  0
C  C70  1  0.82841740  0.47887143  0.15647212  1  0  -0.706473  0  3.50208  0  0  -0.744012  0  3.722954  0  0  -0.757522  0  3.730134  0  0  -0.336561  -0.734102  0  3.717264  0
C  C71  1  0.17158664  0.52113832  0.84351679  1  0  -0.706595  0  3.501938  0  0  -0.744063  0  3.722852  0  0  -0.757573  0  3.730037  0  0  -0.336609  -0.734154  0  3.717162  0
C  C72  1  0.69235332  0.01628924  0.17916967  1  0  -0.181026  0  3.763818  0  0  -0.16431  0  4.038165  0  0  -0.174182  0  4.058256  0  0  -0.035695  -0.157405  0  4.024356  0
C  C73  1  0.30764303  0.98370644  0.82082958  1  0  -0.181173  0  3.764012  0  0  -0.164321  0  4.038157  0  0  -0.1742  0  4.058261  0  0  -0.035683  -0.157418  0  4.024349  0
C  C74  1  0.78820299  0.87975759  0.21926188  1  0  0.656259  0  3.939761  0  0  0.604089  0  4.232665  0  0  0.639984  0  4.222931  0  0  0.216439  0.580173  0  4.238066  0
C  C75  1  0.21178671  0.12023809  0.78073595  1  0  0.656287  0  3.940013  0  0  0.604113  0  4.232876  0  0  0.640007  0  4.22314  0  0  0.216348  0.5802  0  4.238268  0
C  C76  1  0.90799833  0.51845944  0.39009732  1  0  -0.711636  0  3.517648  0  0  -0.753436  0  3.747946  0  0  -0.766754  0  3.754776  0  0  -0.33553  -0.74423  0  3.743642  0
C  C77  1  0.09199936  0.48153514  0.60989756  1  0  -0.711601  0  3.517564  0  0  -0.753448  0  3.747859  0  0  -0.766763  0  3.75469  0  0  -0.33559  -0.744238  0  3.743543  0
C  C78  1  0.28607733  0.29594922  0.33899127  1  0  -0.175867  0  3.767913  0  0  -0.157253  0  4.036687  0  0  -0.166457  0  4.057532  0  0  -0.032824  -0.151514  0  4.022704  0
C  C79  1  0.71390672  0.70405300  0.66101558  1  0  -0.175598  0  3.767712  0  0  -0.157076  0  4.036576  0  0  -0.166277  0  4.05741  0  0  -0.032781  -0.151329  0  4.022575  0
C  C80  1  0.12832729  0.67765583  0.10606971  1  0  -0.712695  0  3.526566  0  0  -0.754097  0  3.755231  0  0  -0.767968  0  3.762233  0  0  -0.336319  -0.744527  0  3.750257  0
C  C81  1  0.87167350  0.32235937  0.89392870  1  0  -0.712722  0  3.526641  0  0  -0.754128  0  3.755311  0  0  -0.767996  0  3.762307  0  0  -0.336313  -0.744552  0  3.750338  0
C  C82  1  0.86267850  0.09912401  0.39530613  1  0  -0.724812  0  3.532079  0  0  -0.767192  0  3.764625  0  0  -0.780661  0  3.770357  0  0  -0.339299  -0.758336  0  3.761632  0
C  C83  1  0.13732781  0.90086516  0.60469545  1  0  -0.724886  0  3.532038  0  0  -0.767224  0  3.764624  0  0  -0.780702  0  3.770365  0  0  -0.33932  -0.75836  0  3.761621  0
C  C84  1  0.08195189  0.11264448  0.11270539  1  0  -0.718113  0  3.520679  0  0  -0.756386  0  3.751966  0  0  -0.769844  0  3.757325  0  0  -0.338109  -0.74677  0  3.748301  0
C  C85  1  0.91805429  0.88734577  0.88729160  1  0  -0.71783  0  3.520756  0  0  -0.756119  0  3.75201  0  0  -0.76958  0  3.757381  0  0  -0.338026  -0.746506  0  3.748338  0
C  C86  1  0.17878749  0.80609112  0.33474651  1  0  -0.705635  0  3.51159  0  0  -0.744657  0  3.735381  0  0  -0.758157  0  3.742266  0  0  -0.335516  -0.734841  0  3.729922  0
C  C87  1  0.82121099  0.19390459  0.66526096  1  0  -0.705669  0  3.511624  0  0  -0.744708  0  3.735407  0  0  -0.758207  0  3.742312  0  0  -0.335545  -0.734889  0  3.729947  0
C  C88  1  0.41748120  0.43492072  0.37273187  1  0  -0.171262  0  3.775883  0  0  -0.191301  0  4.030556  0  0  -0.197676  0  4.051732  0  0  -0.113069  -0.187267  0  4.015788  0
C  C89  1  0.58252866  0.56507387  0.62726611  1  0  -0.171171  0  3.776025  0  0  -0.191219  0  4.030678  0  0  -0.197593  0  4.051845  0  0  -0.11305  -0.18719  0  4.015912  0
C  C90  1  0.32509749  0.43107959  0.31205486  1  0  -0.070838  0  3.792691  0  0  -0.101884  0  4.053763  0  0  -0.097687  0  4.071504  0  0  -0.096201  -0.103818  0  4.041124  0
C  C91  1  0.67490704  0.56892042  0.68794076  1  0  -0.070974  0  3.792884  0  0  -0.102048  0  4.053986  0  0  -0.097822  0  4.071745  0  0  -0.096213  -0.103987  0  4.041349  0
C  C92  1  0.58329114  0.25992475  0.13461024  1  0  -0.160051  0  3.776183  0  0  -0.181469  0  4.033378  0  0  -0.188805  0  4.056113  0  0  -0.110578  -0.177241  0  4.018767  0
C  C93  1  0.41670686  0.74007419  0.86538927  1  0  -0.160125  0  3.776153  0  0  -0.181538  0  4.033363  0  0  -0.188875  0  4.056103  0  0  -0.110577  -0.177308  0  4.018747  0
C  C94  1  0.52883662  0.26892353  0.53105025  1  0  -0.335618  0  3.743904  0  0  -0.41579  0  3.981767  0  0  -0.418633  0  3.990863  0  0  -0.239128  -0.413527  0  3.975632  0
C  C95  1  0.47115729  0.73107975  0.46895125  1  0  -0.33585  0  3.743887  0  0  -0.415988  0  3.981726  0  0  -0.418829  0  3.990819  0  0  -0.23922  -0.413725  0  3.975589  0
S  S96  1  0.36468332  0.17450286  0.43922448  1  0  0.136822  0  2.597935  0  0  0.13982  0  2.913878  0  0  0.138132  0  2.922674  0  0  0.106996  0.140527  0  2.908073  0
S  S97  1  0.63528952  0.82549939  0.56079210  1  0  0.13682  0  2.598024  0  0  0.139851  0  2.913994  0  0  0.138163  0  2.92279  0  0  0.107004  0.14056  0  2.908184  0
S  S98  1  0.58539563  0.02626577  0.09574745  1  0  0.105373  0  2.580227  0  0  0.108552  0  2.892223  0  0  0.106813  0  2.900127  0  0  0.09056  0.109738  0  2.886256  0
S  S99  1  0.41460985  0.97373531  0.90424478  1  0  0.105425  0  2.580428  0  0  0.108555  0  2.892366  0  0  0.106817  0  2.900276  0  0  0.090574  0.109741  0  2.886401  0
O  O100  1  0.20386058  0.11022644  0.31570682  1  0  -0.624676  0  2.020683  0  0  -0.5553  0  2.262966  0  0  -0.580877  0  2.254572  0  0  -0.289405  -0.537517  0  2.267184  0
O  O101  1  0.79612980  0.88978444  0.68429571  1  0  -0.624369  0  2.020541  0  0  -0.555145  0  2.26294  0  0  -0.580713  0  2.254511  0  0  -0.289264  -0.537365  0  2.267153  0
O  O102  1  0.77147783  0.76747485  0.19978559  1  0  -0.628954  0  2.014269  0  0  -0.560488  0  2.254233  0  0  -0.58572  0  2.244913  0  0  -0.294988  -0.542357  0  2.259489  0
O  O103  1  0.22852017  0.23252409  0.80021464  1  0  -0.628982  0  2.014066  0  0  -0.560523  0  2.254004  0  0  -0.585761  0  2.244694  0  0  -0.294976  -0.542384  0  2.259255  0
O  O104  1  0.12024999  0.34067476  0.22983252  1  0  -0.649444  0  2.022277  0  0  -0.578319  0  2.257416  0  0  -0.604836  0  2.251434  0  0  -0.290012  -0.56014  0  2.260882  0
O  O105  1  0.87975394  0.65932851  0.77016602  1  0  -0.649434  0  2.022344  0  0  -0.578297  0  2.257464  0  0  -0.604817  0  2.25148  0  0  -0.289962  -0.560124  0  2.260927  0
O  O106  1  0.88271394  0.87345213  0.26820252  1  0  -0.636709  0  2.027  0  0  -0.564503  0  2.260689  0  0  -0.590942  0  2.254294  0  0  -0.283844  -0.546543  0  2.264384  0
O  O107  1  0.11728958  0.12654030  0.73180031  1  0  -0.636577  0  2.027507  0  0  -0.5644  0  2.261185  0  0  -0.590836  0  2.254781  0  0  -0.283729  -0.54647  0  2.264938  0
