# generated using pymatgen
data_Al2H12C27(SO2)6
_symmetry_space_group_name_H-M   'P 1'
_cell_length_a   3.96345486
_cell_length_b   20.12037042
_cell_length_c   20.12042137
_cell_angle_alpha   119.99992256
_cell_angle_beta   89.99943077
_cell_angle_gamma   90.00060425
_symmetry_Int_Tables_number   1
_chemical_formula_structural   Al2H12C27(SO2)6
_chemical_formula_sum   'Al2 H12 C27 S6 O12'
_cell_volume   1389.56200561
_cell_formula_units_Z   1
loop_
 _symmetry_equiv_pos_site_id
 _symmetry_equiv_pos_as_xyz
  1  'x, y, z'
loop_
 _atom_site_type_symbol
 _atom_site_label
 _atom_site_symmetry_multiplicity
 _atom_site_fract_x
 _atom_site_fract_y
 _atom_site_fract_z
 _atom_site_occupancy
 _atom_site_pbe_bader_charge
 _atom_site_pbe_bader_spin_density
 _atom_site_pbe_cm5_charge
 _atom_site_pbe_ddec_charge
 _atom_site_pbe_ddec_spin_density
 _atom_site_pbe_ddec_sum_bond_order
 _atom_site_pbe_magmom
Al  Al0  1  0.00206972  0.50000130  0.49999873  1  2.502776  0  0.424211  1.594942  0  2.567214  0
Al  Al1  1  0.00374058  0.16666808  0.83333324  1  2.503718  0  0.424834  1.596741  0  2.563221  0
H  H2  1  0.46319895  0.17596256  0.61375650  1  0.08641  0  0.1175  0.142373  0  0.970661  0
H  H3  1  0.46321135  0.93779463  0.82403777  1  0.080463  0  0.117483  0.142365  0  0.970636  0
H  H4  1  0.46319547  0.38624321  0.06220458  1  0.083828  0  0.117487  0.142348  0  0.970766  0
H  H5  1  0.71600034  0.54325256  0.73149979  1  0.038912  0  0.097244  0.137125  0  0.99951  0
H  H6  1  0.48747539  0.52410080  0.79614340  1  0.038644  0  0.091351  0.128257  0  0.996318  0
H  H7  1  0.27148919  0.54190662  0.72892231  1  0.057991  0  0.096444  0.13694  0  1.009703  0
H  H8  1  0.71599332  0.68825078  0.45674789  1  0.048203  0  0.097235  0.137129  0  0.999618  0
H  H9  1  0.48747726  0.77204719  0.47589976  1  0.03769  0  0.091353  0.128244  0  0.996257  0
H  H10  1  0.27148208  0.68701949  0.45809343  1  0.044707  0  0.096475  0.136967  0  1.009685  0
H  H11  1  0.71599844  0.26850006  0.31175024  1  0.035036  0  0.097216  0.137133  0  0.999566  0
H  H12  1  0.48748100  0.20385575  0.22795433  1  0.036318  0  0.091369  0.128284  0  0.996305  0
H  H13  1  0.27148730  0.27107645  0.31298088  1  0.047881  0  0.09648  0.137001  0  1.009682  0
C  C14  1  0.50244011  0.44140522  0.38206589  1  1.562971  0  0.273344  0.68149  0  4.072043  0
C  C15  1  0.50243824  0.44066176  0.55859351  1  1.560457  0  0.273263  0.68135  0  4.072224  0
C  C16  1  0.50244291  0.61793460  0.55933530  1  1.56121  0  0.273249  0.681301  0  4.072273  0
C  C17  1  0.50332794  0.22528655  0.77412965  1  1.558117  0  0.273219  0.670278  0  4.085145  0
C  C18  1  0.50331822  0.04884607  0.77471550  1  1.560255  0  0.27324  0.670363  0  4.085194  0
C  C19  1  0.50332609  0.22586973  0.95115464  1  1.570539  0  0.273226  0.670348  0  4.085017  0
C  C20  1  0.49793635  0.42993211  0.68000442  1  0.051864  0  -0.014903  0.121882  0  3.989166  0
C  C21  1  0.48135294  0.23729826  0.65368118  1  0.035501  0  -0.096169  -0.150972  0  3.983621  0
C  C22  1  0.50162365  0.39826570  0.60092972  1  -0.135631  0  -0.02077  -0.182042  0  3.910304  0
C  C23  1  0.50043365  0.26809525  0.73218199  1  -0.112752  0  -0.014761  -0.101336  0  3.945616  0
C  C24  1  0.50263690  0.29563570  0.63409958  1  -0.153994  0  -0.026192  -0.005259  0  4.099411  0
C  C25  1  0.51281780  0.37022690  0.69812580  1  -0.170513  0  -0.025394  -0.078375  0  4.05  0
C  C26  1  0.49793239  0.75007502  0.57006795  1  0.060917  0  -0.014911  0.121807  0  3.989064  0
C  C27  1  0.48135809  0.91638366  0.76270206  1  0.05603  0  -0.096187  -0.151047  0  3.983753  0
C  C28  1  0.50163672  0.70266698  0.60173357  1  -0.140399  0  -0.020775  -0.182067  0  3.910436  0
C  C29  1  0.50042933  0.96408990  0.73190620  1  -0.121154  0  -0.014699  -0.101279  0  3.945741  0
C  C30  1  0.50263941  0.83846570  0.70436436  1  -0.156144  0  -0.026182  -0.005202  0  4.099367  0
C  C31  1  0.51281140  0.82790245  0.62977448  1  -0.182949  0  -0.025427  -0.078378  0  4.049815  0
C  C32  1  0.49794158  0.31999607  0.24992568  1  0.122483  0  -0.014866  0.121883  0  3.989159  0
C  C33  1  0.48134976  0.34631989  0.08361521  1  0.111555  0  -0.096143  -0.150888  0  3.983597  0
C  C34  1  0.50163624  0.39907011  0.29733318  1  -0.196546  0  -0.020825  -0.182154  0  3.910398  0
C  C35  1  0.50042566  0.26781719  0.03591072  1  -0.177559  0  -0.014785  -0.101425  0  3.945725  0
C  C36  1  0.50263533  0.36590123  0.16153467  1  -0.152563  0  -0.026179  -0.005263  0  4.099412  0
C  C37  1  0.51281894  0.30187467  0.17209795  1  -0.184617  0  -0.025411  -0.078356  0  4.049932  0
C  C38  1  0.49282797  0.51414346  0.73731602  1  -0.024893  0  -0.2319  -0.38843  0  3.953843  0
C  C39  1  0.49282711  0.72317637  0.48585673  1  -0.014578  0  -0.231928  -0.388427  0  3.953929  0
C  C40  1  0.49283022  0.26268371  0.27682395  1  -0.007927  0  -0.231925  -0.388522  0  3.954003  0
S  S41  1  0.51453777  0.29855278  0.55008700  1  0.259595  0  0.07259  0.099192  0  2.796966  0
S  S42  1  0.53619676  0.36753529  0.78231847  1  0.229004  0  0.07718  0.104063  0  2.798617  0
S  S43  1  0.51456365  0.75153476  0.70144607  1  0.262868  0  0.072584  0.099203  0  2.797039  0
S  S44  1  0.53617204  0.91478684  0.63246597  1  0.232037  0  0.077207  0.10409  0  2.798591  0
S  S45  1  0.51454925  0.44991413  0.24846452  1  0.25827  0  0.072589  0.099224  0  2.796997  0
S  S46  1  0.53617980  0.21768107  0.08521461  1  0.234403  0  0.077189  0.104066  0  2.798718  0
O  O47  1  0.73611655  0.58395039  0.57472934  1  -1.246585  0  -0.240178  -0.601516  0  2.348945  0
O  O48  1  0.73611802  0.49078230  0.41604897  1  -1.250053  0  -0.240212  -0.601583  0  2.348966  0
O  O49  1  0.73610893  0.42526983  0.50921751  1  -1.243367  0  -0.240153  -0.601517  0  2.349001  0
O  O50  1  0.26863964  0.58421212  0.50995216  1  -1.255628  0  -0.234158  -0.590265  0  2.34584  0
O  O51  1  0.26863051  0.49004618  0.57425551  1  -1.253289  0  -0.234153  -0.590295  0  2.345771  0
O  O52  1  0.26863274  0.42574334  0.41578689  1  -1.254589  0  -0.234175  -0.590329  0  2.345764  0
O  O53  1  0.73843616  0.17679397  0.91769434  1  -1.253089  0  -0.239939  -0.598077  0  2.352766  0
O  O54  1  0.73844272  0.24090295  0.82320667  1  -1.242798  0  -0.239941  -0.598065  0  2.352765  0
O  O55  1  0.73843507  0.08230644  0.75909884  1  -1.243676  0  -0.239956  -0.598138  0  2.352817  0
O  O56  1  0.27066669  0.24149333  0.91725022  1  -1.2547  0  -0.237469  -0.58909  0  2.336541  0
O  O57  1  0.27065975  0.08275052  0.82424165  1  -1.253106  0  -0.237466  -0.589076  0  2.336612  0
O  O58  1  0.27066889  0.17575892  0.75850644  1  -1.247554  0  -0.237428  -0.589016  0  2.336597  0
