# generated using pymatgen
data_ZnH20C24(N2O)4
_symmetry_space_group_name_H-M   'P 1'
_cell_length_a   10.17726244
_cell_length_b   10.13805463
_cell_length_c   13.94772454
_cell_angle_alpha   81.68306602
_cell_angle_beta   79.00946699
_cell_angle_gamma   68.98717725
_symmetry_Int_Tables_number   1
_chemical_formula_structural   ZnH20C24(N2O)4
_chemical_formula_sum   'Zn2 H40 C48 N16 O8'
_cell_volume   1314.17669277
_cell_formula_units_Z   2
loop_
 _symmetry_equiv_pos_site_id
 _symmetry_equiv_pos_as_xyz
  1  'x, y, z'
loop_
 _atom_site_type_symbol
 _atom_site_label
 _atom_site_symmetry_multiplicity
 _atom_site_fract_x
 _atom_site_fract_y
 _atom_site_fract_z
 _atom_site_occupancy
 _atom_site_hle17_bader_spin_density
 _atom_site_hle17_ddec_charge
 _atom_site_hle17_ddec_spin_density
 _atom_site_hle17_ddec_sum_bond_order
 _atom_site_hle17_magmom
 _atom_site_hse06_10hf_bader_spin_density
 _atom_site_hse06_10hf_ddec_charge
 _atom_site_hse06_10hf_ddec_spin_density
 _atom_site_hse06_10hf_ddec_sum_bond_order
 _atom_site_hse06_10hf_magmom
 _atom_site_hse06_bader_spin_density
 _atom_site_hse06_ddec_charge
 _atom_site_hse06_ddec_spin_density
 _atom_site_hse06_ddec_sum_bond_order
 _atom_site_hse06_magmom
 _atom_site_pbe_bader_spin_density
 _atom_site_pbe_cm5_charge
 _atom_site_pbe_ddec_charge
 _atom_site_pbe_ddec_spin_density
 _atom_site_pbe_ddec_sum_bond_order
 _atom_site_pbe_magmom
Zn  Zn0  1  0.86420412  0.39890746  0.48079598  1  0  1.034661  0  1.835726  0  0  0.853462  0  2.290469  0  0  0.90416  0  2.234567  0  0  0.687351  0.816326  0  2.330493  0
Zn  Zn1  1  0.13579353  0.60109438  0.51920375  1  0  1.034635  0  1.835711  0  0  0.85345  0  2.290449  0  0  0.904149  0  2.234551  0  0  0.687342  0.816308  0  2.33047  0
H  H2  1  0.52146730  0.25188112  0.36804997  1  0  0.118436  0  0.950563  0  0  0.125047  0  1.017911  0  0  0.128955  0  1.015018  0  0  0.110396  0.122466  0  1.019497  0
H  H3  1  0.47853572  0.74811962  0.63194697  1  0  0.118437  0  0.950554  0  0  0.125046  0  1.017905  0  0  0.128953  0  1.015013  0  0  0.110386  0.122466  0  1.019482  0
H  H4  1  0.56974500  0.80771431  0.38430332  1  0  0.118032  0  0.944501  0  0  0.124729  0  1.010156  0  0  0.128366  0  1.00797  0  0  0.109236  0.122046  0  1.011696  0
H  H5  1  0.43024926  0.19228863  0.61570393  1  0  0.118048  0  0.944505  0  0  0.124775  0  1.010137  0  0  0.128401  0  1.007962  0  0  0.109227  0.122091  0  1.01168  0
H  H6  1  0.89111169  0.93291141  0.46903527  1  0  0.136458  0  0.945003  0  0  0.141672  0  1.013728  0  0  0.146498  0  1.00932  0  0  0.111489  0.138308  0  1.016506  0
H  H7  1  0.10888904  0.06708722  0.53096079  1  0  0.136536  0  0.944937  0  0  0.141728  0  1.013684  0  0  0.146555  0  1.009274  0  0  0.1115  0.138368  0  1.016463  0
H  H8  1  0.16146350  0.26656482  0.36725451  1  0  0.079647  0  0.963897  0  0  0.084456  0  1.033927  0  0  0.086581  0  1.032715  0  0  0.116286  0.082912  0  1.03488  0
H  H9  1  0.83853951  0.73343594  0.63274674  1  0  0.079603  0  0.964007  0  0  0.084415  0  1.034017  0  0  0.086549  0  1.032796  0  0  0.116282  0.082868  0  1.034968  0
H  H10  1  0.29663294  0.28973942  0.20031707  1  0  0.110934  0  0.961669  0  0  0.111064  0  1.035643  0  0  0.115765  0  1.032754  0  0  0.106741  0.10781  0  1.037628  0
H  H11  1  0.70337207  0.71026133  0.79968390  1  0  0.110951  0  0.961683  0  0  0.111069  0  1.03568  0  0  0.11577  0  1.03279  0  0  0.106742  0.107812  0  1.037665  0
H  H12  1  0.90904411  0.60391133  0.11753326  1  0  0.114374  0  0.957774  0  0  0.121293  0  1.022283  0  0  0.124504  0  1.021267  0  0  0.107705  0.118855  0  1.023423  0
H  H13  1  0.09095497  0.39608626  0.88246529  1  0  0.114398  0  0.957796  0  0  0.121285  0  1.022343  0  0  0.124497  0  1.021327  0  0  0.107702  0.118847  0  1.023485  0
H  H14  1  0.78950165  0.56430167  0.28820137  1  0  0.088362  0  0.933798  0  0  0.098054  0  0.993842  0  0  0.100378  0  0.99204  0  0  0.12147  0.09628  0  0.995318  0
H  H15  1  0.21049349  0.43569276  0.71179664  1  0  0.088379  0  0.933793  0  0  0.09807  0  0.993828  0  0  0.100412  0  0.992004  0  0  0.121484  0.096272  0  0.99533  0
H  H16  1  0.12657311  0.55133853  0.99428587  1  0  0.080353  0  0.925904  0  0  0.088237  0  0.995523  0  0  0.091531  0  0.991974  0  0  0.118237  0.085685  0  0.998618  0
H  H17  1  0.87342955  0.44866329  0.00571389  1  0  0.080394  0  0.92588  0  0  0.088253  0  0.995507  0  0  0.091545  0  0.991961  0  0  0.118236  0.085702  0  0.998603  0
H  H18  1  0.57079934  0.32745221  0.97028573  1  0  0.07438  0  0.927005  0  0  0.084104  0  0.993678  0  0  0.087492  0  0.989936  0  0  0.116706  0.081717  0  0.996334  0
H  H19  1  0.42920231  0.67254962  0.02971559  1  0  0.074334  0  0.927001  0  0  0.084093  0  0.993656  0  0  0.087479  0  0.989915  0  0  0.116712  0.081704  0  0.996309  0
H  H20  1  0.79589929  0.27790093  0.85983312  1  0  0.105456  0  0.959205  0  0  0.114452  0  1.022633  0  0  0.11698  0  1.023247  0  0  0.105859  0.112532  0  1.022576  0
H  H21  1  0.20410308  0.72209878  0.14016762  1  0  0.105442  0  0.959247  0  0  0.114442  0  1.022669  0  0  0.11697  0  1.023282  0  0  0.105842  0.112519  0  1.022609  0
H  H22  1  0.93012237  0.28837129  0.68994172  1  0  0.086841  0  0.943158  0  0  0.096853  0  1.002426  0  0  0.098969  0  1.00151  0  0  0.117819  0.095401  0  1.002832  0
H  H23  1  0.06987842  0.71162418  0.31005754  1  0  0.086765  0  0.943217  0  0  0.096821  0  1.002453  0  0  0.098937  0  1.001533  0  0  0.117793  0.095367  0  1.002856  0
H  H24  1  0.55846956  0.50460898  0.57317733  1  0  0.106084  0  0.938591  0  0  0.112418  0  1.002791  0  0  0.115861  0  0.999211  0  0  0.122848  0.109753  0  1.005691  0
H  H25  1  0.44152808  0.49539287  0.42682312  1  0  0.106068  0  0.938567  0  0  0.112401  0  1.002769  0  0  0.115844  0  0.999188  0  0  0.12284  0.109737  0  1.00567  0
H  H26  1  0.40840063  0.50392045  0.73518940  1  0  0.11702  0  0.960478  0  0  0.121225  0  1.031225  0  0  0.125349  0  1.028705  0  0  0.109729  0.118263  0  1.033166  0
H  H27  1  0.59159973  0.49607927  0.26481304  1  0  0.117035  0  0.960482  0  0  0.121223  0  1.031242  0  0  0.125374  0  1.028693  0  0  0.10972  0.118265  0  1.033186  0
H  H28  1  0.06114046  0.99098999  0.23546735  1  0  0.106144  0  0.972202  0  0  0.122259  0  1.041701  0  0  0.123459  0  1.041695  0  0  0.086805  0.121742  0  1.040889  0
H  H29  1  0.93885976  0.00901606  0.76453014  1  0  0.106125  0  0.972171  0  0  0.122245  0  1.041662  0  0  0.123431  0  1.041671  0  0  0.086801  0.121737  0  1.040846  0
H  H30  1  0.03927699  0.12569274  0.13592682  1  0  0.110222  0  0.953436  0  0  0.128986  0  1.016134  0  0  0.130575  0  1.016219  0  0  0.086279  0.127809  0  1.016264  0
H  H31  1  0.96071829  0.87431018  0.86407528  1  0  0.11026  0  0.953348  0  0  0.129024  0  1.016056  0  0  0.130615  0  1.016138  0  0  0.086278  0.127847  0  1.016186  0
H  H32  1  0.94058870  0.16452503  0.25504132  1  0  0.117605  0  0.951733  0  0  0.138293  0  1.010619  0  0  0.139189  0  1.012378  0  0  0.091837  0.137588  0  1.009466  0
H  H33  1  0.05941360  0.83547785  0.74495693  1  0  0.117616  0  0.951677  0  0  0.138305  0  1.010562  0  0  0.139203  0  1.012322  0  0  0.091833  0.137601  0  1.009407  0
H  H34  1  0.80851191  0.00519841  0.24446524  1  0  0.064133  0  0.944914  0  0  0.078021  0  1.002268  0  0  0.077036  0  1.005925  0  0  0.106471  0.078716  0  0.999804  0
H  H35  1  0.19148974  0.99480341  0.75553393  1  0  0.064178  0  0.944923  0  0  0.078033  0  1.002242  0  0  0.07705  0  1.005896  0  0  0.106472  0.078731  0  0.999779  0
H  H36  1  0.66073021  0.15142010  0.11695706  1  0  0.10335  0  0.942764  0  0  0.121868  0  1.004614  0  0  0.123967  0  1.003461  0  0  0.087594  0.120359  0  1.005483  0
H  H37  1  0.33927259  0.84857536  0.88304048  1  0  0.103334  0  0.942665  0  0  0.121848  0  1.004535  0  0  0.123955  0  1.003376  0  0  0.087575  0.120336  0  1.005405  0
H  H38  1  0.70772669  0.25880871  0.18526722  1  0  0.113377  0  0.949699  0  0  0.133559  0  1.012933  0  0  0.134918  0  1.013499  0  0  0.09231  0.132585  0  1.012513  0
H  H39  1  0.29227267  0.74119099  0.81473106  1  0  0.113406  0  0.949677  0  0  0.133588  0  1.012904  0  0  0.134947  0  1.01347  0  0  0.092324  0.132613  0  1.012482  0
H  H40  1  0.79962872  0.22146656  0.06478753  1  0  0.105103  0  0.969352  0  0  0.121247  0  1.040358  0  0  0.12278  0  1.040015  0  0  0.085284  0.12016  0  1.040585  0
H  H41  1  0.20037293  0.77853526  0.93521093  1  0  0.105107  0  0.969351  0  0  0.121249  0  1.040356  0  0  0.12278  0  1.040014  0  0  0.08527  0.120158  0  1.040582  0
C  C42  1  0.71094564  0.10386370  0.42072138  1  0  -0.045041  0  3.758633  0  0  -0.019294  0  3.99583  0  0  -0.027293  0  4.018517  0  0  -0.016506  -0.01467  0  3.981456  0
C  C43  1  0.28905609  0.89613492  0.57927382  1  0  -0.045014  0  3.758643  0  0  -0.019251  0  3.995825  0  0  -0.02725  0  4.018511  0  0  -0.016528  -0.014625  0  3.981449  0
C  C44  1  0.58277121  0.14072031  0.38390918  1  0  -0.127095  0  3.67328  0  0  -0.161829  0  3.925486  0  0  -0.160769  0  3.941028  0  0  -0.077584  -0.162184  0  3.915031  0
C  C45  1  0.41722421  0.85927624  0.61609142  1  0  -0.12708  0  3.67328  0  0  -0.161818  0  3.925488  0  0  -0.160757  0  3.941031  0  0  -0.077538  -0.162171  0  3.915023  0
C  C46  1  0.53362081  0.03448223  0.36825818  1  0  0.182351  0  3.866309  0  0  0.187584  0  4.132433  0  0  0.191897  0  4.15412  0  0  0.091172  0.184296  0  4.117921  0
C  C47  1  0.46637526  0.96551538  0.63174150  1  0  0.182476  0  3.866011  0  0  0.18769  0  4.132163  0  0  0.192002  0  4.153845  0  0  0.09117  0.1844  0  4.117654  0
C  C48  1  0.60919376  0.89185489  0.39216382  1  0  -0.164516  0  3.722777  0  0  -0.200839  0  3.977108  0  0  -0.201762  0  3.995816  0  0  -0.091673  -0.199345  0  3.964075  0
C  C49  1  0.39080395  0.10814379  0.60784197  1  0  -0.164604  0  3.722839  0  0  -0.201002  0  3.977179  0  0  -0.201913  0  3.995893  0  0  -0.091686  -0.199509  0  3.964155  0
C  C50  1  0.73757912  0.85549057  0.42864795  1  0  -0.057352  0  3.784425  0  0  -0.03243  0  4.027798  0  0  -0.040159  0  4.05017  0  0  -0.022868  -0.027872  0  4.013406  0
C  C51  1  0.26242017  0.14451232  0.57135287  1  0  -0.057284  0  3.78442  0  0  -0.032247  0  4.027651  0  0  -0.039985  0  4.050035  0  0  -0.022779  -0.02769  0  4.013268  0
C  C52  1  0.79004722  0.96087271  0.44184816  1  0  -0.088306  0  3.661777  0  0  -0.132173  0  3.919872  0  0  -0.130112  0  3.937104  0  0  -0.083256  -0.133436  0  3.908619  0
C  C53  1  0.20995307  0.03913017  0.55814965  1  0  -0.088476  0  3.66173  0  0  -0.13237  0  3.919831  0  0  -0.130306  0  3.937065  0  0  -0.083321  -0.133638  0  3.908582  0
C  C54  1  0.76298226  0.21896597  0.43692568  1  0  0.605254  0  3.962347  0  0  0.557997  0  4.254846  0  0  0.591126  0  4.250544  0  0  0.185332  0.535695  0  4.256951  0
C  C55  1  0.23702018  0.78103056  0.56307467  1  0  0.605184  0  3.962369  0  0  0.557939  0  4.254851  0  0  0.591068  0  4.250549  0  0  0.185271  0.535634  0  4.256954  0
C  C56  1  0.81819709  0.70159804  0.45340363  1  0  0.650672  0  3.912304  0  0  0.596679  0  4.210706  0  0  0.631942  0  4.201311  0  0  0.209847  0.57271  0  4.216653  0
C  C57  1  0.18180299  0.29839953  0.54659264  1  0  0.65068  0  3.912314  0  0  0.596649  0  4.21073  0  0  0.631913  0  4.201338  0  0  0.209854  0.57268  0  4.216678  0
C  C58  1  0.10939746  0.33893638  0.30941235  1  0  0.134886  0  3.689524  0  0  0.103407  0  3.941902  0  0  0.109691  0  3.960614  0  0  0.049149  0.099188  0  3.929389  0
C  C59  1  0.89060283  0.66106651  0.69058762  1  0  0.134876  0  3.689652  0  0  0.103411  0  3.942009  0  0  0.109689  0  3.960718  0  0  0.049141  0.099194  0  3.92949  0
C  C60  1  0.18409285  0.35171502  0.21654309  1  0  -0.137696  0  3.687354  0  0  -0.156967  0  3.933642  0  0  -0.163734  0  3.954432  0  0  -0.075845  -0.152655  0  3.919857  0
C  C61  1  0.81591144  0.64828786  0.78345704  1  0  -0.13764  0  3.687434  0  0  -0.156921  0  3.933723  0  0  -0.163689  0  3.954516  0  0  -0.075839  -0.152609  0  3.919935  0
C  C62  1  0.11317257  0.44821006  0.14450813  1  0  0.086967  0  3.799513  0  0  0.105125  0  4.026016  0  0  0.106956  0  4.049792  0  0  0.008382  0.10406  0  4.010268  0
C  C63  1  0.88682715  0.55178858  0.85548878  1  0  0.086979  0  3.799529  0  0  0.105144  0  4.025999  0  0  0.106973  0  4.049772  0  0  0.008416  0.104076  0  4.010254  0
C  C64  1  0.96830828  0.52604182  0.17012397  1  0  -0.152911  0  3.69422  0  0  -0.173058  0  3.943166  0  0  -0.1808  0  3.965383  0  0  -0.076518  -0.167964  0  3.928456  0
C  C65  1  0.03169008  0.47395789  0.82987589  1  0  -0.152991  0  3.694166  0  0  -0.173126  0  3.943135  0  0  -0.180866  0  3.965351  0  0  -0.076557  -0.168036  0  3.928433  0
C  C66  1  0.90155239  0.50569766  0.26499623  1  0  0.135274  0  3.69008  0  0  0.103645  0  3.941304  0  0  0.110287  0  3.9598  0  0  0.052261  0.099402  0  3.928492  0
C  C67  1  0.09844862  0.49430309  0.73500172  1  0  0.13527  0  3.690122  0  0  0.103648  0  3.941326  0  0  0.11028  0  3.959818  0  0  0.052269  0.099423  0  3.928518  0
C  C68  1  0.18617493  0.46963191  0.04599137  1  0  0.089866  0  3.647597  0  0  0.055391  0  3.910759  0  0  0.06229  0  3.922002  0  0  0.078736  0.050448  0  3.903597  0
C  C69  1  0.81383073  0.53036990  0.95400940  1  0  0.089815  0  3.647449  0  0  0.055389  0  3.910571  0  0  0.062288  0  3.921817  0  0  0.078691  0.050446  0  3.903413  0
C  C70  1  0.51023729  0.37771616  0.90939751  1  0  0.099691  0  3.651899  0  0  0.064401  0  3.912644  0  0  0.072041  0  3.923572  0  0  0.079657  0.058984  0  3.905308  0
C  C71  1  0.48976400  0.62228673  0.09060447  1  0  0.099785  0  3.651742  0  0  0.064453  0  3.912544  0  0  0.072097  0  3.923469  0  0  0.079649  0.059041  0  3.905208  0
C  C72  1  0.58978196  0.38901820  0.81193044  1  0  0.084583  0  3.811655  0  0  0.098312  0  4.046811  0  0  0.100443  0  4.07005  0  0  0.004417  0.097204  0  4.030844  0
C  C73  1  0.41021375  0.61098048  0.18807133  1  0  0.084625  0  3.811617  0  0  0.098321  0  4.046842  0  0  0.100453  0  4.070085  0  0  0.004489  0.09721  0  4.030878  0
C  C74  1  0.73883455  0.32934662  0.79829108  1  0  -0.158686  0  3.712707  0  0  -0.179625  0  3.965946  0  0  -0.188351  0  3.989784  0  0  -0.079948  -0.173753  0  3.949934  0
C  C75  1  0.26116646  0.67065414  0.20170758  1  0  -0.158676  0  3.712764  0  0  -0.179612  0  3.966044  0  0  -0.188338  0  3.989877  0  0  -0.079941  -0.173737  0  3.950026  0
C  C76  1  0.81447715  0.33435477  0.70448780  1  0  0.141823  0  3.692284  0  0  0.108702  0  3.949055  0  0  0.11549  0  3.967829  0  0  0.051271  0.104467  0  3.935884  0
C  C77  1  0.18552285  0.66564601  0.29551315  1  0  0.141944  0  3.69228  0  0  0.108778  0  3.949079  0  0  0.115572  0  3.967849  0  0  0.051317  0.104543  0  3.935903  0
C  C78  1  0.60703134  0.45469582  0.63831426  1  0  0.13445  0  3.667416  0  0  0.103026  0  3.919238  0  0  0.109482  0  3.936857  0  0  0.051652  0.098822  0  3.907124  0
C  C79  1  0.39297203  0.54530387  0.36168347  1  0  0.134487  0  3.667399  0  0  0.103068  0  3.919214  0  0  0.109524  0  3.936845  0  0  0.051634  0.098865  0  3.907104  0
C  C80  1  0.52343334  0.45391124  0.72930933  1  0  -0.140903  0  3.674732  0  0  -0.160528  0  3.922289  0  0  -0.167704  0  3.942939  0  0  -0.075033  -0.155949  0  3.908285  0
C  C81  1  0.47656874  0.54608635  0.27069310  1  0  -0.141  0  3.674735  0  0  -0.160585  0  3.92229  0  0  -0.167788  0  3.942925  0  0  -0.075069  -0.156008  0  3.908297  0
C  C82  1  0.98406796  0.08381530  0.20198290  1  0  -0.322037  0  3.646655  0  0  -0.398703  0  3.878985  0  0  -0.401874  0  3.889524  0  0  -0.241168  -0.396181  0  3.871411  0
C  C83  1  0.01592997  0.91618864  0.79801369  1  0  -0.322037  0  3.646542  0  0  -0.398762  0  3.878856  0  0  -0.401927  0  3.889409  0  0  -0.241168  -0.396248  0  3.871276  0
C  C84  1  0.86116410  0.04712543  0.17661245  1  0  0.071101  0  3.729297  0  0  0.084605  0  3.952207  0  0  0.083587  0  3.968659  0  0  -0.061448  0.0853  0  3.940939  0
C  C85  1  0.13883089  0.95287537  0.82338848  1  0  0.070935  0  3.72963  0  0  0.084637  0  3.952215  0  0  0.083619  0  3.968665  0  0  -0.061408  0.085325  0  3.940963  0
C  C86  1  0.74992300  0.17757404  0.13254338  1  0  -0.317286  0  3.665688  0  0  -0.396752  0  3.904181  0  0  -0.39932  0  3.913454  0  0  -0.238986  -0.394597  0  3.897619  0
C  C87  1  0.25007264  0.82242780  0.86745304  1  0  -0.31724  0  3.665687  0  0  -0.396755  0  3.904148  0  0  -0.399333  0  3.913424  0  0  -0.238969  -0.394597  0  3.897578  0
C  C88  1  0.91613784  0.93207456  0.11181417  1  0  0.299111  0  3.641628  0  0  0.2918  0  3.908899  0  0  0.302596  0  3.926408  0  0  0.195197  0.284282  0  3.897236  0
C  C89  1  0.08385788  0.06792410  0.88818402  1  0  0.299097  0  3.641494  0  0  0.291724  0  3.908711  0  0  0.302524  0  3.92622  0  0  0.195133  0.284212  0  3.89705  0
N  N90  1  0.40465013  0.07973253  0.32883494  1  0  -0.255745  0  3.014294  0  0  -0.241256  0  3.284826  0  0  -0.259993  0  3.302123  0  0  -0.152322  -0.229083  0  3.273537  0
N  N91  1  0.59534722  0.92026722  0.67117007  1  0  -0.255772  0  3.014114  0  0  -0.24124  0  3.284605  0  0  -0.259977  0  3.301905  0  0  -0.152284  -0.229065  0  3.273314  0
N  N92  1  0.35377473  0.99015481  0.31816666  1  0  0.332995  0  4.000933  0  0  0.368447  0  4.295972  0  0  0.380236  0  4.317638  0  0  0.142109  0.360209  0  4.282097  0
N  N93  1  0.64622427  0.00984598  0.68183730  1  0  0.332956  0  4.001091  0  0  0.368394  0  4.296129  0  0  0.380181  0  4.317798  0  0  0.14208  0.360155  0  4.282254  0
N  N94  1  0.29447925  0.91875051  0.30480363  1  0  -0.17574  0  2.389623  0  0  -0.177561  0  2.601728  0  0  -0.17498  0  2.611301  0  0  -0.057716  -0.179452  0  2.59538  0
N  N95  1  0.70551939  0.08125134  0.69519811  1  0  -0.175732  0  2.389731  0  0  -0.177554  0  2.601844  0  0  -0.174971  0  2.611418  0  0  -0.05773  -0.179445  0  2.5955  0
N  N96  1  0.97088365  0.41511395  0.33399443  1  0  -0.308805  0  3.275586  0  0  -0.227765  0  3.534245  0  0  -0.246239  0  3.551778  0  0  -0.312742  -0.215182  0  3.522284  0
N  N97  1  0.02911714  0.58488153  0.66600626  1  0  -0.308769  0  3.275711  0  0  -0.227738  0  3.534368  0  0  -0.246216  0  3.551914  0  0  -0.312742  -0.21515  0  3.522389  0
N  N98  1  0.31860171  0.39473049  0.02137852  1  0  -0.201274  0  3.056096  0  0  -0.17232  0  3.343452  0  0  -0.180587  0  3.359127  0  0  -0.209111  -0.165937  0  3.33206  0
N  N99  1  0.68139794  0.60527135  0.97862308  1  0  -0.201273  0  3.056048  0  0  -0.172323  0  3.343385  0  0  -0.18059  0  3.359061  0  0  -0.209069  -0.165938  0  3.331994  0
N  N100  1  0.37230096  0.42266739  0.92501923  1  0  -0.201512  0  3.039877  0  0  -0.169194  0  3.325702  0  0  -0.179195  0  3.342921  0  0  -0.206632  -0.161864  0  3.313409  0
N  N101  1  0.62769897  0.57733657  0.07498139  1  0  -0.201577  0  3.039992  0  0  -0.169256  0  3.325848  0  0  -0.179258  0  3.343068  0  0  -0.20667  -0.161928  0  3.31356  0
N  N102  1  0.75024998  0.39565062  0.62584230  1  0  -0.306065  0  3.257638  0  0  -0.227337  0  3.520308  0  0  -0.246177  0  3.537931  0  0  -0.312758  -0.214505  0  3.508092  0
N  N103  1  0.24974809  0.60434698  0.37415711  1  0  -0.30609  0  3.257665  0  0  -0.227367  0  3.520363  0  0  -0.246214  0  3.537997  0  0  -0.312739  -0.214533  0  3.508147  0
N  N104  1  0.96156140  0.83846339  0.06145301  1  0  -0.454996  0  2.621246  0  0  -0.43268  0  2.845539  0  0  -0.444771  0  2.857804  0  0  -0.326172  -0.424519  0  2.837513  0
N  N105  1  0.03844160  0.16153739  0.93855254  1  0  -0.454963  0  2.620949  0  0  -0.432636  0  2.845244  0  0  -0.444729  0  2.85751  0  0  -0.326133  -0.424474  0  2.837217  0
O  O106  1  0.68718462  0.34795485  0.41936451  1  0  -0.635159  0  1.938889  0  0  -0.580749  0  2.177682  0  0  -0.607025  0  2.169499  0  0  -0.3252  -0.561682  0  2.183229  0
O  O107  1  0.31281811  0.65204378  0.58063270  1  0  -0.635088  0  1.938857  0  0  -0.580712  0  2.177694  0  0  -0.606987  0  2.169506  0  0  -0.325162  -0.561648  0  2.183239  0
O  O108  1  0.88186133  0.18310781  0.46852038  1  0  -0.618448  0  1.985648  0  0  -0.563923  0  2.23514  0  0  -0.591727  0  2.225806  0  0  -0.322891  -0.543923  0  2.240139  0
O  O109  1  0.11814097  0.81689507  0.53147788  1  0  -0.618426  0  1.985549  0  0  -0.563914  0  2.235049  0  0  -0.591718  0  2.225717  0  0  -0.32288  -0.543917  0  2.240049  0
O  O110  1  0.94926196  0.66679233  0.45869293  1  0  -0.650787  0  2.146906  0  0  -0.588767  0  2.43396  0  0  -0.614861  0  2.417817  0  0  -0.320579  -0.570177  0  2.44414  0
O  O111  1  0.05073510  0.33320529  0.54131020  1  0  -0.65083  0  2.14691  0  0  -0.588784  0  2.43396  0  0  -0.614877  0  2.417815  0  0  -0.3206  -0.570196  0  2.444143  0
O  O112  1  0.74922881  0.61591695  0.46510484  1  0  -0.619636  0  2.049358  0  0  -0.55667  0  2.31163  0  0  -0.583943  0  2.298891  0  0  -0.310674  -0.537441  0  2.320621  0
O  O113  1  0.25077198  0.38407853  0.53489585  1  0  -0.619595  0  2.049331  0  0  -0.556636  0  2.311611  0  0  -0.583909  0  2.298873  0  0  -0.310666  -0.537402  0  2.320598  0
