# generated using pymatgen
data_CuH38C50S2(N3O2)4
_symmetry_space_group_name_H-M   'P 1'
_cell_length_a   7.94302168
_cell_length_b   9.75875007
_cell_length_c   15.17361611
_cell_angle_alpha   73.72020348
_cell_angle_beta   85.46088995
_cell_angle_gamma   87.12231822
_symmetry_Int_Tables_number   1
_chemical_formula_structural   CuH38C50S2(N3O2)4
_chemical_formula_sum   'Cu1 H38 C50 S2 N12 O8'
_cell_volume   1124.98410073
_cell_formula_units_Z   1
loop_
 _symmetry_equiv_pos_site_id
 _symmetry_equiv_pos_as_xyz
  1  'x, y, z'
loop_
 _atom_site_type_symbol
 _atom_site_label
 _atom_site_symmetry_multiplicity
 _atom_site_fract_x
 _atom_site_fract_y
 _atom_site_fract_z
 _atom_site_occupancy
 _atom_site_pbe_bader_charge
 _atom_site_pbe_bader_spin_density
 _atom_site_pbe_cm5_charge
 _atom_site_pbe_ddec_charge
 _atom_site_pbe_ddec_spin_density
 _atom_site_pbe_ddec_sum_bond_order
 _atom_site_pbe_magmom
Cu  Cu0  1  0.00000533  0.99999366  0.99999872  1  1.073797  -0.563883  0.778052  0.726161  -0.726841  2.41585  -0.563
H  H1  1  0.38997722  0.94123520  0.28649414  1  0.531969  -3e-06  0.308088  0.284743  -8e-06  1.000027  0.0
H  H2  1  0.61002910  0.05876615  0.71350184  1  0.531976  -3e-06  0.308074  0.284712  -8e-06  1.000098  0.0
H  H3  1  0.15989862  0.97254593  0.18068774  1  0.133852  -0.00232  0.117301  0.095467  -0.000992  1.05598  -0.002
H  H4  1  0.84010515  0.02745438  0.81931049  1  0.133823  -0.00232  0.117288  0.095455  -0.000992  1.05587  -0.002
H  H5  1  0.27930784  0.19142111  0.90764931  1  0.147459  -0.00224  0.117082  0.094156  -0.001052  1.032597  -0.001
H  H6  1  0.72067804  0.80858446  0.09234853  1  0.147248  -0.002241  0.117062  0.094124  -0.001052  1.032608  -0.001
H  H7  1  0.53242410  0.29360978  0.94995241  1  0.108887  -0.001418  0.105053  0.110289  -0.000721  1.035593  -0.001
H  H8  1  0.46756572  0.70639468  0.05004221  1  0.109018  -0.001417  0.105051  0.110289  -0.000721  1.035661  -0.001
H  H9  1  0.60343491  0.22765175  0.11533306  1  0.155182  -8.9e-05  0.116961  0.132284  -2.2e-05  0.992723  0.0
H  H10  1  0.39656910  0.77234530  0.88466247  1  0.155187  -8.9e-05  0.11696  0.132272  -2.2e-05  0.99267  0.0
H  H11  1  0.67382783  0.20263432  0.41010127  1  0.104517  -1.1e-05  0.097652  0.095985  -4e-06  1.062852  0.0
H  H12  1  0.32617578  0.79737130  0.58989401  1  0.104625  -1.1e-05  0.097688  0.096015  -4e-06  1.062978  0.0
H  H13  1  0.28640765  0.90197837  0.42441994  1  0.083238  -1.7e-05  0.103603  0.101975  -6e-06  1.030936  0.0
H  H14  1  0.71359603  0.09802616  0.57557487  1  0.083111  -1.7e-05  0.103587  0.101972  -6e-06  1.030898  0.0
H  H15  1  0.37345619  0.43603227  0.29311322  1  0.507197  -3e-06  0.309542  0.280239  -2e-06  0.977914  0.0
H  H16  1  0.62653872  0.56397010  0.70688294  1  0.507188  -3e-06  0.309492  0.280162  -2e-06  0.977973  0.0
H  H17  1  0.10129689  0.76270607  0.20971212  1  0.116051  -0.000175  0.10269  0.078375  -0.000167  1.081722  0.0
H  H18  1  0.89870420  0.23729953  0.79028324  1  0.116029  -0.000175  0.102676  0.078352  -0.000167  1.081766  0.0
H  H19  1  0.06098262  0.69498656  0.95483365  1  0.090348  9.2e-05  0.107951  0.077795  9.4e-05  1.01544  0.0
H  H20  1  0.93901366  0.30501158  0.04516523  1  0.090411  9.2e-05  0.107942  0.077755  9.4e-05  1.015457  0.0
H  H21  1  0.22965956  0.46503439  0.99907349  1  0.115671  1.5e-05  0.101738  0.107478  1.9e-05  1.053136  0.0
H  H22  1  0.77033176  0.53496053  0.00092747  1  0.115651  1.5e-05  0.101716  0.107439  1.9e-05  1.053116  0.0
H  H23  1  0.35582288  0.39364340  0.15328678  1  0.135115  3.1e-05  0.103396  0.115295  5.3e-05  1.057797  0.0
H  H24  1  0.64416820  0.60635583  0.84671536  1  0.135082  3.1e-05  0.103413  0.115274  5.3e-05  1.057801  0.0
H  H25  1  0.57139702  0.74478326  0.40558285  1  0.126964  -6e-06  0.095674  0.097944  2.5e-05  1.05638  0.0
H  H26  1  0.42859417  0.25521592  0.59441600  1  0.126953  -6e-06  0.095617  0.097841  2.5e-05  1.056436  0.0
H  H27  1  0.30818364  0.35537867  0.44284164  1  0.072574  -1e-06  0.099161  0.095348  9e-06  1.047242  0.0
H  H28  1  0.69181378  0.64462372  0.55715510  1  0.072679  -0.0  0.099145  0.095289  9e-06  1.047314  0.0
H  H29  1  0.18204630  0.46926089  0.60731066  1  0.135918  -0.000113  0.10533  0.107829  -0.000109  1.059821  0.0
H  H30  1  0.81795333  0.53073848  0.39269974  1  0.135821  -0.000112  0.1053  0.107731  -0.000109  1.059923  0.0
H  H31  1  0.04439374  0.63954448  0.47377579  1  0.108051  -0.000205  0.103057  0.105242  -0.000168  1.006572  0.0
H  H32  1  0.95559498  0.36044626  0.52623327  1  0.107932  -0.000205  0.10306  0.105273  -0.000168  1.006708  0.0
H  H33  1  0.90643042  0.86507714  0.49282628  1  0.072574  -3e-05  0.09839  0.104942  1.3e-05  1.016191  0.0
H  H34  1  0.09355561  0.13491681  0.50718360  1  0.072439  -3e-05  0.098361  0.104917  1.3e-05  1.01614  0.0
H  H35  1  0.90926408  0.92289766  0.64273596  1  0.079876  1.8e-05  0.095463  0.088596  5.4e-05  1.054351  0.0
H  H36  1  0.09074182  0.07710806  0.35726647  1  0.079927  1.8e-05  0.09546  0.088607  5.4e-05  1.054307  0.0
H  H37  1  0.04979892  0.75549039  0.77327171  1  0.128318  3.3e-05  0.113277  0.122408  4.8e-05  1.00759  0.0
H  H38  1  0.95020790  0.24452179  0.22673214  1  0.128406  3.3e-05  0.113309  0.122511  4.8e-05  1.007529  0.0
C  C39  1  0.85795184  0.96362723  0.19516285  1  0.432706  -0.006718  0.142595  0.267651  -0.005873  4.315546  -0.01
C  C40  1  0.14206074  0.03636892  0.80484180  1  0.433029  -0.006709  0.142553  0.267639  -0.00587  4.315695  -0.01
C  C41  1  0.38570744  0.09402511  0.16041252  1  0.36374  -0.005658  0.102256  0.204743  -0.00379  3.986399  -0.005
C  C42  1  0.61429765  0.90597517  0.83958370  1  0.363715  -0.005658  0.10222  0.204801  -0.00379  3.986558  -0.005
C  C43  1  0.24594277  0.04217846  0.13065868  1  0.503463  0.00089  0.046777  0.001449  0.000866  3.88437  0.001
C  C44  1  0.75405858  0.95781969  0.86933938  1  0.503643  0.000889  0.046816  0.001517  0.000865  3.884312  0.001
C  C45  1  0.31301590  0.16502930  0.97867851  1  0.427105  0.001053  0.046488  0.081353  0.001388  3.917487  0.001
C  C46  1  0.68697764  0.83497416  0.02131947  1  0.427356  0.001054  0.046522  0.081479  0.001389  3.917298  0.001
C  C47  1  0.45375880  0.22165587  0.00325014  1  0.014214  -0.005741  -0.078087  -0.097566  -0.003952  3.947305  -0.005
C  C48  1  0.54622977  0.77834543  0.99674840  1  0.014184  -0.005741  -0.078129  -0.097704  -0.003952  3.947152  -0.005
C  C49  1  0.49275798  0.18608826  0.09498113  1  -0.037824  0.003919  -0.060975  -0.101385  0.004247  3.889196  0.002
C  C50  1  0.50724209  0.81391304  0.90501309  1  -0.037955  0.003919  -0.060938  -0.101355  0.004247  3.889066  0.002
C  C51  1  0.46186523  0.13137396  0.30604460  1  1.401144  -0.000695  0.243064  0.478674  -0.000593  4.125669  0.0
C  C52  1  0.53815132  0.86862528  0.69395012  1  1.401232  -0.000694  0.243044  0.478844  -0.000592  4.125131  0.0
C  C53  1  0.47925719  0.06003081  0.40586984  1  -0.042028  -0.000444  -0.013722  -0.034518  -0.000317  3.99171  0.0
C  C54  1  0.52075828  0.93996414  0.59412505  1  -0.041903  -0.000444  -0.013675  -0.034468  -0.000317  3.991253  0.0
C  C55  1  0.59842053  0.11352449  0.44997264  1  -0.007307  -0.000282  -0.0831  -0.08646  -0.000215  3.967564  0.0
C  C56  1  0.40159101  0.88647472  0.55002094  1  -0.007232  -0.000282  -0.083209  -0.086594  -0.000215  3.967498  0.0
C  C57  1  0.38008672  0.94596323  0.45687834  1  -0.074641  -0.00041  -0.084729  -0.10629  -0.000256  3.970657  0.0
C  C58  1  0.61992347  0.05403705  0.54311640  1  -0.074622  -0.00041  -0.084845  -0.106456  -0.000256  3.970647  0.0
C  C59  1  0.24321831  0.57593691  0.19160678  1  0.287401  -3.2e-05  0.094736  0.198757  -8e-06  4.016784  0.0
C  C60  1  0.75677157  0.42406333  0.80839191  1  0.287367  -3.2e-05  0.094634  0.198599  -8e-06  4.016832  0.0
C  C61  1  0.13789812  0.69796667  0.16325736  1  0.553448  0.000383  0.030939  -0.011305  0.000373  3.945225  0.0
C  C62  1  0.86209795  0.30203680  0.83674053  1  0.554069  0.000383  0.030973  -0.011193  0.000373  3.945201  0.0
C  C63  1  0.11111446  0.65667832  0.02256466  1  0.475785  0.000261  0.035176  0.079981  0.000281  3.978184  0.0
C  C64  1  0.88888300  0.34332196  0.97743378  1  0.475706  0.000261  0.035152  0.080008  0.000281  3.978225  0.0
C  C65  1  0.20657553  0.52933053  0.04708466  1  -0.037209  -5.1e-05  -0.088854  -0.113813  -3.3e-05  3.98944  0.0
C  C66  1  0.79341952  0.47066653  0.95291445  1  -0.036982  -5.1e-05  -0.088817  -0.113686  -3.3e-05  3.989378  0.0
C  C67  1  0.27548346  0.48930651  0.13216924  1  -0.026883  0.000176  -0.084518  -0.148285  0.000182  3.940876  0.0
C  C68  1  0.72450899  0.51069162  0.86783108  1  -0.027053  0.000176  -0.084533  -0.14831  0.000182  3.940871  0.0
C  C69  1  0.35340863  0.62622193  0.32638036  1  1.365702  -7e-06  0.248758  0.493262  -1.4e-05  4.092696  0.0
C  C70  1  0.64657988  0.37377941  0.67362016  1  1.365574  -7e-06  0.248607  0.492971  -1.4e-05  4.093165  0.0
C  C71  1  0.43152306  0.55753939  0.41471022  1  -0.003538  5e-06  -0.010756  -0.028725  2e-05  3.982531  0.0
C  C72  1  0.56847827  0.44245876  0.58528849  1  -0.003621  5e-06  -0.010619  -0.028479  1.9e-05  3.982501  0.0
C  C73  1  0.53836039  0.63854343  0.44802378  1  -0.052281  6e-06  -0.081491  -0.084135  3.8e-05  3.962543  0.0
C  C74  1  0.46163963  0.36145684  0.55197326  1  -0.052189  6e-06  -0.081438  -0.084077  3.8e-05  3.962622  0.0
C  C75  1  0.39388887  0.41831430  0.46720121  1  -0.063928  -1.1e-05  -0.084914  -0.10355  6e-06  3.960085  0.0
C  C76  1  0.60611246  0.58168386  0.53279750  1  -0.064116  -1.1e-05  -0.084947  -0.103592  6e-06  3.960044  0.0
C  C77  1  0.12042609  0.60445520  0.69596926  1  0.148542  -6.4e-05  0.074945  0.058797  -4e-05  3.950786  0.0
C  C78  1  0.87957210  0.39555054  0.30403738  1  0.14882  -6.4e-05  0.074966  0.058808  -4e-05  3.950644  0.0
C  C79  1  0.12026078  0.56866642  0.61311357  1  -0.008343  -3e-05  -0.079166  -0.122719  -2.2e-05  3.95741  0.0
C  C80  1  0.87974018  0.43133398  0.38689331  1  -0.008681  -3e-05  -0.079174  -0.122614  -2.2e-05  3.957216  0.0
C  C81  1  0.04316492  0.66356026  0.53980862  1  -0.073815  -0.000189  -0.085171  -0.070015  -0.000154  3.968521  0.0
C  C82  1  0.95683101  0.33643802  0.46020079  1  -0.073465  -0.000189  -0.085163  -0.070099  -0.000154  3.968552  0.0
C  C83  1  0.96576295  0.79049895  0.55049695  1  -0.069881  3.1e-05  -0.080305  -0.065535  1.9e-05  3.945935  0.0
C  C84  1  0.03422952  0.20949393  0.44951028  1  -0.070096  3.1e-05  -0.080227  -0.065435  1.9e-05  3.945879  0.0
C  C85  1  0.96565057  0.82292483  0.63458275  1  0.023629  -1.3e-05  -0.087662  -0.074656  3.9e-05  3.996781  0.0
C  C86  1  0.03434153  0.17707555  0.36542508  1  0.023642  -1.3e-05  -0.087692  -0.074698  3.9e-05  3.997076  0.0
C  C87  1  0.04388744  0.73014277  0.70822427  1  -0.013055  2.6e-05  -0.074131  -0.110826  4.9e-05  3.949504  0.0
C  C88  1  0.95610840  0.26985869  0.29178324  1  -0.013035  2.6e-05  -0.074191  -0.110949  4.9e-05  3.949623  0.0
S  S89  1  0.84186547  0.89611258  0.30533189  1  0.127937  -0.043723  -0.150731  -0.29766  -0.025206  2.288612  -0.026
S  S90  1  0.15814703  0.10388885  0.69466782  1  0.127852  -0.043715  -0.150769  -0.29774  -0.025202  2.288411  -0.026
N  N91  1  0.87121836  0.01574259  0.11387263  1  -1.243563  -0.059514  -0.42646  -0.512616  -0.038273  3.320612  -0.047
N  N92  1  0.12879357  0.98424700  0.88612271  1  -1.243861  -0.059504  -0.426412  -0.512534  -0.038264  3.32088  -0.047
N  N93  1  0.21097243  0.07608970  0.04193653  1  -1.201041  -0.093139  -0.327343  -0.195379  -0.06216  3.598745  -0.081
N  N94  1  0.78902653  0.92390628  0.95806068  1  -1.20123  -0.093128  -0.327401  -0.195496  -0.062153  3.598766  -0.081
N  N95  1  0.41217942  0.04755499  0.25523917  1  -1.303801  -0.00168  -0.39366  -0.383646  -0.000966  3.581799  -0.001
N  N96  1  0.58782827  0.95244422  0.74475650  1  -1.303742  -0.00168  -0.393566  -0.383594  -0.000965  3.581769  -0.001
N  N97  1  0.07676449  0.73879856  0.07968029  1  -1.218839  0.001328  -0.323004  -0.265998  0.001458  3.482233  0.0
N  N98  1  0.92323677  0.26120278  0.92031585  1  -1.219288  0.001328  -0.322998  -0.266079  0.001459  3.482227  0.0
N  N99  1  0.31561144  0.53572420  0.27688466  1  -1.252635  -6e-06  -0.391958  -0.36959  6e-06  3.571471  0.0
N  N100  1  0.68438229  0.46427498  0.72311345  1  -1.252634  -6e-06  -0.391798  -0.369319  6e-06  3.571533  0.0
N  N101  1  0.20968076  0.50884197  0.77175851  1  0.370353  5.1e-05  0.058896  0.518216  5.7e-05  4.188011  0.0
N  N102  1  0.79032634  0.49116378  0.22824586  1  0.370564  5.1e-05  0.058902  0.518328  5.6e-05  4.188133  0.0
O  O103  1  0.49075817  0.26109218  0.27304020  1  -1.157635  -0.001054  -0.295377  -0.498945  -0.000633  2.176037  -0.001
O  O104  1  0.50926734  0.73890285  0.72695632  1  -1.157608  -0.001054  -0.295355  -0.499018  -0.000633  2.175832  -0.001
O  O105  1  0.32210969  0.75735571  0.30168630  1  -1.156397  -0.000136  -0.287925  -0.497534  -0.000103  2.210659  0.0
O  O106  1  0.67786880  0.24264135  0.69831797  1  -1.156378  -0.000136  -0.287918  -0.497518  -0.000103  2.210849  0.0
O  O107  1  0.20196401  0.53940867  0.84608804  1  -0.477856  3.7e-05  -0.119472  -0.331212  3e-05  2.002885  0.0
O  O108  1  0.79804809  0.46059712  0.15391748  1  -0.477784  3.7e-05  -0.119407  -0.331205  3e-05  2.002974  0.0
O  O109  1  0.28901101  0.40337635  0.75748706  1  -0.463434  -0.000207  -0.121443  -0.329873  -0.000106  1.98616  0.0
O  O110  1  0.71099731  0.59663153  0.24251556  1  -0.463583  -0.000206  -0.121512  -0.329971  -0.000105  1.9862  0.0
