# generated using pymatgen
data_LaCrH26C42N12O
_symmetry_space_group_name_H-M   'P 1'
_cell_length_a   10.96736009
_cell_length_b   13.14262241
_cell_length_c   16.42494806
_cell_angle_alpha   73.36452353
_cell_angle_beta   82.66377295
_cell_angle_gamma   70.76830651
_symmetry_Int_Tables_number   1
_chemical_formula_structural   LaCrH26C42N12O
_chemical_formula_sum   'La2 Cr2 H52 C84 N24 O2'
_cell_volume   2140.35056492
_cell_formula_units_Z   2
loop_
 _symmetry_equiv_pos_site_id
 _symmetry_equiv_pos_as_xyz
  1  'x, y, z'
loop_
 _atom_site_type_symbol
 _atom_site_label
 _atom_site_symmetry_multiplicity
 _atom_site_fract_x
 _atom_site_fract_y
 _atom_site_fract_z
 _atom_site_occupancy
 _atom_site_pbe_bader_charge
 _atom_site_pbe_bader_spin_density
 _atom_site_pbe_cm5_charge
 _atom_site_pbe_ddec_charge
 _atom_site_pbe_ddec_spin_density
 _atom_site_pbe_ddec_sum_bond_order
 _atom_site_pbe_magmom
La  La0  1  0.99251120  0.30633116  0.25940194  1  2.174561  -0.003924  1.450711  1.545193  -0.007202  2.553764  -0.003
La  La1  1  0.00748913  0.69365864  0.74059818  1  2.174696  -0.003925  1.450628  1.545168  -0.007204  2.553804  -0.003
Cr  Cr2  1  0.52433926  0.23492721  0.22803297  1  1.484459  -2.484808  0.711351  0.728217  -2.708489  4.028419  -2.504
Cr  Cr3  1  0.47567474  0.76509004  0.77194266  1  1.48402  -2.484877  0.711254  0.728447  -2.708532  4.027946  -2.504
H  H4  1  0.20716647  0.47657943  0.22374278  1  0.122745  -2e-05  0.121197  0.089982  0.000246  1.009394  0.0
H  H5  1  0.79285703  0.52338894  0.77627270  1  0.123276  -2.1e-05  0.121159  0.089984  0.000246  1.009486  0.0
H  H6  1  0.20632996  0.67290688  0.17203443  1  0.125008  -5.2e-05  0.11655  0.128429  -5.1e-05  0.982055  0.0
H  H7  1  0.79373910  0.32704628  0.82796737  1  0.126353  -5.2e-05  0.11651  0.128369  -5.1e-05  0.982131  0.0
H  H8  1  0.02269213  0.81379494  0.08268931  1  0.082502  -3.5e-05  0.112731  0.111291  -2e-05  0.972341  0.0
H  H9  1  0.97739065  0.18617652  0.91731154  1  0.082384  -3.5e-05  0.112835  0.111368  -2e-05  0.972397  0.0
H  H10  1  0.81750217  0.85173218  0.01033792  1  0.049025  -4.9e-05  0.10987  0.114742  -3e-05  0.98579  0.0
H  H11  1  0.18257821  0.14826420  0.98967780  1  0.048874  -4.8e-05  0.109969  0.114897  -3e-05  0.985827  0.0
H  H12  1  0.66851648  0.77694832  0.95886125  1  0.105346  9.5e-05  0.116033  0.130781  0.000254  0.981123  0.0
H  H13  1  0.33151918  0.22309130  0.04115586  1  0.105718  9.5e-05  0.115973  0.130758  0.000254  0.981268  0.0
H  H14  1  0.61059244  0.61505217  0.94659008  1  0.11772  9e-05  0.1104  0.117389  0.000466  1.027823  0.0
H  H15  1  0.38942852  0.38498341  0.05340572  1  0.118642  9e-05  0.110419  0.117481  0.000465  1.027881  0.0
H  H16  1  0.65377859  0.40712026  0.98698329  1  0.160389  -0.000452  0.11447  0.137077  -0.000463  0.996472  0.0
H  H17  1  0.34626286  0.59291489  0.01296263  1  0.160553  -0.000452  0.11456  0.137155  -0.000462  0.996454  0.0
H  H18  1  0.82219657  0.28856938  0.08943330  1  0.087889  -0.000229  0.11391  0.072044  -3.8e-05  1.024734  0.0
H  H19  1  0.17784852  0.71144736  0.91051501  1  0.087709  -0.000229  0.113951  0.072095  -3.8e-05  1.024616  0.0
H  H20  1  0.22034692  0.29632874  0.39394074  1  0.133122  -0.00014  0.121098  0.088683  -3.3e-05  1.023631  0.0
H  H21  1  0.77965440  0.70367686  0.60605613  1  0.1331  -0.00014  0.121078  0.088666  -3.3e-05  1.023598  0.0
H  H22  1  0.29669316  0.41074877  0.45724282  1  0.133998  -0.00027  0.111362  0.125275  -0.000304  1.00479  0.0
H  H23  1  0.70329514  0.58926782  0.54275339  1  0.133732  -0.00027  0.111321  0.125242  -0.000304  1.004893  0.0
H  H24  1  0.15105483  0.60600360  0.45824145  1  0.074189  -1.3e-05  0.104052  0.103196  0.0  1.019727  0.0
H  H25  1  0.84891183  0.39399947  0.54176845  1  0.073594  -1.3e-05  0.104102  0.103148  0.0  1.019878  0.0
H  H26  1  0.94056469  0.75252408  0.42200167  1  0.061202  -1e-05  0.094725  0.08887  1e-06  1.082849  0.0
H  H27  1  0.05937376  0.24746169  0.57803175  1  0.061017  -1e-05  0.094631  0.088778  1e-06  1.083199  0.0
H  H28  1  0.72954247  0.82235850  0.35119478  1  0.15393  -0.000381  0.10751  0.125676  -0.000564  1.033245  0.0
H  H29  1  0.27038228  0.17759546  0.64885869  1  0.15452  -0.000381  0.107651  0.125884  -0.000564  1.033306  0.0
H  H30  1  0.58046672  0.79423641  0.26751654  1  0.171752  -0.000166  0.112926  0.123523  -0.000225  1.010354  0.0
H  H31  1  0.41946167  0.20569731  0.73253488  1  0.170969  -0.000167  0.112881  0.123406  -0.000225  1.010518  0.0
H  H32  1  0.52211852  0.66210739  0.20131495  1  0.136346  -5.7e-05  0.115211  0.130307  -5.7e-05  0.991482  0.0
H  H33  1  0.47786830  0.33783279  0.79870036  1  0.136509  -5.7e-05  0.115211  0.130275  -5.7e-05  0.991424  0.0
H  H34  1  0.67304459  0.47388502  0.21324197  1  0.129265  -8.9e-05  0.120082  0.089543  0.00013  1.021844  0.0
H  H35  1  0.32699133  0.52607947  0.78674140  1  0.127697  -8.9e-05  0.120169  0.089583  0.000129  1.021773  0.0
H  H36  1  0.29291798  0.08843775  0.31412178  1  0.134161  -0.00011  0.11986  0.089654  0.000253  1.026515  0.0
H  H37  1  0.70709225  0.91158172  0.68588889  1  0.133915  -0.00011  0.119819  0.089644  0.000252  1.026387  0.0
H  H38  1  0.43211952  0.96199795  0.43217470  1  0.137474  -0.000423  0.113846  0.13045  -0.000475  1.00244  0.0
H  H39  1  0.56788722  0.03803274  0.56784323  1  0.137123  -0.000423  0.113855  0.130424  -0.000475  1.002563  0.0
H  H40  1  0.33796555  0.93687142  0.58182661  1  0.133716  6.1e-05  0.112311  0.122307  0.000459  1.015489  0.0
H  H41  1  0.66201774  0.06312892  0.41818174  1  0.131962  6.1e-05  0.11226  0.122193  0.000459  1.015628  0.0
H  H42  1  0.14568116  0.97455256  0.67726683  1  0.128024  -7.1e-05  0.11089  0.121854  0.000152  1.011257  0.0
H  H43  1  0.85427489  0.02541245  0.32273275  1  0.128061  -7.1e-05  0.110878  0.121883  0.000152  1.011291  0.0
H  H44  1  0.91017794  0.06513792  0.69875765  1  0.092671  -1.4e-05  0.108068  0.113055  6e-06  0.99311  0.0
H  H45  1  0.08978541  0.93483347  0.30123509  1  0.092796  -1.4e-05  0.108063  0.112973  6e-06  0.993115  0.0
H  H46  1  0.70098945  0.19368867  0.63908186  1  0.093674  -2.9e-05  0.117299  0.119104  -1.2e-05  0.967531  0.0
H  H47  1  0.29898566  0.80634223  0.36091230  1  0.09459  -2.9e-05  0.11736  0.119209  -1.2e-05  0.967351  0.0
H  H48  1  0.57518291  0.32005757  0.51035908  1  0.123748  -0.000166  0.114186  0.12626  -0.000188  0.992432  0.0
H  H49  1  0.42480962  0.67999410  0.48963392  1  0.124039  -0.000166  0.114255  0.126322  -0.000188  0.992412  0.0
H  H50  1  0.69114424  0.35146289  0.37057864  1  0.104772  6.7e-05  0.123037  0.088304  0.000232  1.005411  0.0
H  H51  1  0.30885041  0.64854932  0.62941398  1  0.104992  6.7e-05  0.123034  0.088206  0.000232  1.00539  0.0
H  H52  1  0.99627342  0.13783909  0.15562086  1  0.617102  -0.000349  0.335791  0.412832  -0.000394  0.867004  0.0
H  H53  1  0.00378324  0.86216909  0.84436904  1  0.615818  -0.000349  0.335749  0.412772  -0.000394  0.867074  0.0
H  H54  1  0.12530954  0.16808341  0.12868870  1  0.624796  -0.000146  0.315997  0.387024  -0.000262  0.931584  0.0
H  H55  1  0.87471175  0.83197766  0.87127229  1  0.625917  -0.000146  0.315905  0.386795  -0.000263  0.931901  0.0
C  C56  1  0.33769388  0.25586767  0.21235235  1  0.751272  0.000686  0.024243  -0.038096  0.022211  3.667414  0.042
C  C57  1  0.66230114  0.74415426  0.78765316  1  0.75099  0.000668  0.024163  -0.038072  0.022212  3.667095  0.042
C  C58  1  0.70646059  0.22655466  0.24417756  1  0.745344  -0.00152  0.020713  -0.038725  0.020417  3.667625  0.041
C  C59  1  0.29356291  0.77342120  0.75579284  1  0.745644  -0.001496  0.021137  -0.037986  0.020423  3.667339  0.041
C  C60  1  0.58391837  0.21714562  0.10901343  1  0.632914  0.030174  -0.058756  -0.187779  0.041702  3.830013  0.054
C  C61  1  0.41603078  0.78289177  0.89094719  1  0.632151  0.030243  -0.058812  -0.187824  0.041723  3.830098  0.054
C  C62  1  0.55335898  0.06776344  0.26846477  1  0.64407  0.026568  -0.04106  -0.158807  0.039605  3.779278  0.052
C  C63  1  0.44663348  0.93225676  0.73151692  1  0.644171  0.026536  -0.041152  -0.159081  0.039578  3.780065  0.052
C  C64  1  0.48102296  0.24276612  0.35081115  1  0.654079  0.02609  -0.040457  -0.165718  0.03903  3.77755  0.05
C  C65  1  0.51900676  0.75726999  0.64915718  1  0.653123  0.026131  -0.040481  -0.165777  0.039016  3.777871  0.05
C  C66  1  0.47755431  0.40458812  0.19191287  1  0.59783  0.02764  -0.043191  -0.17342  0.039553  3.782326  0.051
C  C67  1  0.52248547  0.59543022  0.80805365  1  0.615782  0.027514  -0.04343  -0.173829  0.039556  3.782619  0.051
C  C68  1  0.13091500  0.53737846  0.18277022  1  0.556296  -0.000354  0.064049  0.123323  -0.00042  3.940279  0.0
C  C69  1  0.86911417  0.46259483  0.81724374  1  0.555964  -0.000354  0.063843  0.123291  -0.00042  3.941172  0.0
C  C70  1  0.12884984  0.64946653  0.15454261  1  -0.060027  -0.000146  -0.075765  -0.116622  -0.000195  3.961907  0.0
C  C71  1  0.87120335  0.35050277  0.84546052  1  -0.060941  -0.000146  -0.075754  -0.116933  -0.000195  3.962122  0.0
C  C72  1  0.02957604  0.72550332  0.10427044  1  -0.068137  -2.9e-05  -0.060528  -0.072598  -5e-06  3.932818  0.0
C  C73  1  0.97048414  0.27447437  0.89573452  1  -0.067782  -2.9e-05  -0.06058  -0.072375  -4e-06  3.932273  0.0
C  C74  1  0.93771539  0.68812106  0.07815419  1  -0.032622  -0.000107  -0.003553  0.044547  -6.7e-05  4.015021  0.0
C  C75  1  0.06232274  0.31186744  0.92186472  1  -0.036995  -0.000107  -0.003765  0.044292  -6.7e-05  4.014834  0.0
C  C76  1  0.83255927  0.76195711  0.02547997  1  -0.017027  -0.000317  -0.090873  -0.157612  -0.000248  4.028526  0.0
C  C77  1  0.16748791  0.23804470  0.97453825  1  -0.017027  -0.000316  -0.090779  -0.157703  -0.000247  4.028313  0.0
C  C78  1  0.75021857  0.72143750  0.99763128  1  -0.016022  -0.000227  -0.072058  -0.102063  -0.000251  3.963555  0.0
C  C79  1  0.24980953  0.27858393  0.00239066  1  -0.017066  -0.000227  -0.071928  -0.10188  -0.000251  3.963115  0.0
C  C80  1  0.76773953  0.60393128  0.01982933  1  0.012784  -0.000153  0.004075  0.048214  -0.000151  3.97252  0.0
C  C81  1  0.23227497  0.39609154  0.98018212  1  0.012987  -0.000152  0.004105  0.048182  -0.00015  3.972449  0.0
C  C82  1  0.68810941  0.55936841  0.98858016  1  -0.014271  1.9e-05  -0.045752  -0.029068  0.000113  3.840033  0.0
C  C83  1  0.31190204  0.44066305  0.01141536  1  -0.015302  2e-05  -0.045811  -0.029272  0.000113  3.840218  0.0
C  C84  1  0.71052270  0.44549201  0.01126645  1  0.021966  -0.000541  -0.071056  -0.103613  -0.000356  3.909475  0.0
C  C85  1  0.28950873  0.55454231  0.98869916  1  -0.105995  -0.000553  -0.071039  -0.103621  -0.000356  3.909463  0.0
C  C86  1  0.80792347  0.37802866  0.06858120  1  0.426566  -0.000637  0.060024  0.118579  -0.000438  3.96682  0.0
C  C87  1  0.19210756  0.62198885  0.93138360  1  0.553925  -0.000626  0.059938  0.118616  -0.000438  3.96664  0.0
C  C88  1  0.86626524  0.52881316  0.07592272  1  0.446887  1.8e-05  0.11678  0.122369  5e-05  3.982172  0.0
C  C89  1  0.13375152  0.47119677  0.92408133  1  0.446917  1.8e-05  0.116785  0.122484  5e-05  3.982286  0.0
C  C90  1  0.95172728  0.57196472  0.10640658  1  0.506149  -6.2e-05  0.118452  0.128558  -2.1e-05  3.962861  0.0
C  C91  1  0.04830037  0.42802611  0.89360507  1  0.510133  -6.1e-05  0.118824  0.128961  -2.1e-05  3.962488  0.0
C  C92  1  0.15764385  0.37992121  0.39460580  1  0.470625  -0.000395  0.062772  0.119549  -0.000329  3.924471  0.0
C  C93  1  0.84234792  0.62007894  0.60539966  1  0.470524  -0.000395  0.06272  0.119561  -0.000328  3.924489  0.0
C  C94  1  0.20115979  0.44611800  0.43063451  1  0.004917  -0.000401  -0.077129  -0.113139  -0.000383  3.952017  0.0
C  C95  1  0.79882235  0.55388888  0.56936928  1  0.005215  -0.000401  -0.077057  -0.113173  -0.000383  3.952283  0.0
C  C96  1  0.12144322  0.55210045  0.43048716  1  -0.094753  -0.00011  -0.062682  -0.065403  -7.1e-05  3.911769  0.0
C  C97  1  0.87852562  0.44790173  0.56952222  1  -0.094544  -0.00011  -0.062548  -0.064986  -7.1e-05  3.911906  0.0
C  C98  1  0.99915660  0.59193052  0.39381705  1  0.017307  -6.3e-05  -0.00312  0.042635  -4.3e-05  4.016595  0.0
C  C99  1  0.00080845  0.40806028  0.60620077  1  0.016717  -6.3e-05  -0.003192  0.042388  -4.3e-05  4.016767  0.0
C  C100  1  0.91205806  0.70062706  0.39191460  1  -0.108329  -5.3e-05  -0.092655  -0.129877  -2.2e-05  4.009678  0.0
C  C101  1  0.08788572  0.29935118  0.60812032  1  -0.109518  -5.3e-05  -0.092367  -0.129482  -2.2e-05  4.010063  0.0
C  C102  1  0.79627553  0.73898726  0.35371353  1  0.040441  -0.000581  -0.078265  -0.105355  -0.000452  3.936875  0.0
C  C103  1  0.20366204  0.26097302  0.64633278  1  0.041586  -0.000583  -0.078567  -0.105893  -0.000453  3.93749  0.0
C  C104  1  0.75908992  0.66997421  0.31452641  1  -0.056268  -6.3e-05  0.002538  0.053483  -2e-05  3.978804  0.0
C  C105  1  0.24085952  0.32998231  0.68551218  1  -0.055673  -6.2e-05  0.002488  0.053341  -2e-05  3.978865  0.0
C  C106  1  0.64192950  0.70863961  0.27143559  1  -0.08046  -9.3e-05  -0.054346  -0.059779  -3.6e-05  3.87659  0.0
C  C107  1  0.35801442  0.29129790  0.72860913  1  -0.080548  -9.3e-05  -0.054244  -0.059725  -3.6e-05  3.876327  0.0
C  C108  1  0.61057240  0.63798538  0.23530913  1  0.010155  -0.000156  -0.076216  -0.116407  -0.000204  3.947634  0.0
C  C109  1  0.38940130  0.36195622  0.76471819  1  0.011729  -0.000155  -0.076298  -0.116322  -0.000203  3.947052  0.0
C  C110  1  0.69717692  0.53017873  0.24152211  1  0.451963  -0.000468  0.059301  0.111565  -0.000521  3.94702  0.0
C  C111  1  0.30282649  0.46978354  0.75848262  1  0.452124  -0.000469  0.05927  0.111638  -0.000522  3.946803  0.0
C  C112  1  0.84149855  0.55991175  0.31711470  1  0.435316  -5.7e-05  0.116509  0.123239  -2.2e-05  3.968367  0.0
C  C113  1  0.15847051  0.44005336  0.68291212  1  0.436227  -5.6e-05  0.116652  0.123731  -2.2e-05  3.967691  0.0
C  C114  1  0.96359671  0.51988919  0.35783505  1  0.529344  -3.2e-05  0.116258  0.122141  -1.1e-05  3.982814  0.0
C  C115  1  0.03638472  0.48009784  0.64217600  1  0.529924  -3.2e-05  0.116116  0.122041  -1.1e-05  3.982866  0.0
C  C116  1  0.25268494  0.07730788  0.37892079  1  0.444171  -0.000175  0.062846  0.11473  -0.000124  3.931106  0.0
C  C117  1  0.74732079  0.92270400  0.62108771  1  0.444424  -0.000175  0.062922  0.11476  -0.000123  3.930579  0.0
C  C118  1  0.33178744  0.00536829  0.44621533  1  0.041851  -0.000634  -0.071709  -0.103498  -0.000577  3.92825  0.0
C  C119  1  0.66821350  0.99465386  0.55379708  1  0.041322  -0.000633  -0.071812  -0.103563  -0.000577  3.927993  0.0
C  C120  1  0.27953062  0.99161334  0.52799900  1  -0.026123  9.6e-05  -0.051521  -0.046545  3.7e-05  3.864177  0.0
C  C121  1  0.72045723  0.00839203  0.47201031  1  -0.023781  9.6e-05  -0.051333  -0.046309  3.6e-05  3.864158  0.0
C  C122  1  0.14746917  0.04738822  0.54133251  1  -0.067297  -5.9e-05  0.000985  0.041838  -1.8e-05  3.989891  0.0
C  C123  1  0.85250703  0.95260446  0.45867140  1  -0.066969  -5.9e-05  0.00094  0.041907  -1.8e-05  3.990143  0.0
C  C124  1  0.08640796  0.03033678  0.62426493  1  0.001227  -0.000125  -0.076387  -0.10263  -0.000173  3.960302  0.0
C  C125  1  0.91355530  0.96964157  0.37573405  1  0.000689  -0.000125  -0.076534  -0.103053  -0.000173  3.960706  0.0
C  C126  1  0.95751562  0.08066103  0.63588393  1  -0.122771  -0.000165  -0.085075  -0.128185  -0.000145  4.000733  0.0
C  C127  1  0.04244955  0.91932300  0.36411053  1  -0.1223  -0.000165  -0.084978  -0.127879  -0.000145  4.000598  0.0
C  C128  1  0.88133083  0.15537596  0.56588193  1  0.02858  -7.7e-05  -0.004408  0.033529  -4.8e-05  4.026095  0.0
C  C129  1  0.11864139  0.84461895  0.43411376  1  0.029339  -7.6e-05  -0.004413  0.033758  -4.8e-05  4.026264  0.0
C  C130  1  0.74806481  0.20987181  0.57614289  1  -0.109448  -3.9e-05  -0.05976  -0.074503  1.3e-05  3.941624  0.0
C  C131  1  0.25191556  0.79014400  0.42385277  1  -0.110263  -3.9e-05  -0.059821  -0.074674  1.3e-05  3.941366  0.0
C  C132  1  0.67904652  0.28062889  0.50628694  1  0.010981  -0.000354  -0.07667  -0.11508  -0.000425  3.972399  0.0
C  C133  1  0.32094352  0.71939855  0.49370779  1  0.010182  -0.000354  -0.076853  -0.115285  -0.000425  3.972332  0.0
C  C134  1  0.74457779  0.29768155  0.42670164  1  0.519264  -0.000435  0.064521  0.12231  -0.000351  3.93238  0.0
C  C135  1  0.25541132  0.70232566  0.57329069  1  0.519421  -0.000435  0.06448  0.12234  -0.000351  3.932147  0.0
C  C136  1  0.93973047  0.17756129  0.48260833  1  0.488512  -2.7e-05  0.117769  0.116609  -3e-06  3.980641  0.0
C  C137  1  0.06025387  0.82243021  0.51738868  1  0.487931  -2.7e-05  0.117893  0.116344  -3e-06  3.980992  0.0
C  C138  1  0.07489277  0.12025484  0.46963341  1  0.488153  -2.6e-05  0.115785  0.116254  6e-06  3.98478  0.0
C  C139  1  0.92509403  0.87974185  0.53036830  1  0.48805  -2.6e-05  0.115815  0.116289  6e-06  3.985091  0.0
N  N140  1  0.22733508  0.26784878  0.20850149  1  -1.430596  -0.08404  -0.463059  -0.404099  -0.066578  3.258598  -0.061
N  N141  1  0.77266304  0.73217576  0.79152880  1  -1.430477  -0.084104  -0.462908  -0.404259  -0.066627  3.258177  -0.061
N  N142  1  0.81115897  0.22907160  0.25000383  1  -1.4338  -0.083522  -0.461148  -0.418362  -0.066216  3.272364  -0.061
N  N143  1  0.18888125  0.77088446  0.74995755  1  -1.434064  -0.083468  -0.461585  -0.418978  -0.066176  3.272973  -0.061
N  N144  1  0.62474352  0.20520610  0.04136293  1  -1.301652  -0.119757  -0.392862  -0.339915  -0.093725  2.934328  -0.084
N  N145  1  0.37510327  0.79488593  0.95857661  1  -1.300627  -0.119835  -0.3928  -0.339977  -0.093785  2.934334  -0.084
N  N146  1  0.56144239  0.97252365  0.29294150  1  -1.307555  -0.108555  -0.362397  -0.336194  -0.085099  3.046343  -0.077
N  N147  1  0.43857290  0.02748308  0.70704451  1  -1.307727  -0.108504  -0.362286  -0.33596  -0.085058  3.047379  -0.077
N  N148  1  0.45792721  0.24609275  0.42213843  1  -1.315678  -0.102458  -0.361535  -0.331838  -0.080503  3.019558  -0.073
N  N149  1  0.54210701  0.75395923  0.57782886  1  -1.314557  -0.102435  -0.361433  -0.331836  -0.080474  3.019798  -0.073
N  N150  1  0.44619185  0.50274937  0.17396785  1  -1.256675  -0.107795  -0.35941  -0.325393  -0.084415  3.001847  -0.076
N  N151  1  0.55384928  0.49726941  0.82598874  1  -1.274527  -0.107664  -0.359203  -0.325089  -0.08443  3.001941  -0.076
N  N152  1  0.04392179  0.49953396  0.16147367  1  -1.252236  -0.001152  -0.352982  -0.329609  -0.000938  3.460586  -0.001
N  N153  1  0.95609862  0.50044862  0.83853980  1  -1.251951  -0.001151  -0.353004  -0.32974  -0.000938  3.461084  -0.001
N  N154  1  0.88263715  0.41684376  0.10220030  1  -1.23824  -0.000471  -0.366221  -0.3651  -0.000302  3.456762  0.0
N  N155  1  0.11737961  0.58316704  0.89778282  1  -1.237696  -0.000471  -0.366474  -0.365478  -0.000301  3.457088  0.0
N  N156  1  0.04316961  0.41478522  0.35908307  1  -1.260186  -0.000143  -0.383054  -0.346848  2.1e-05  3.487621  0.0
N  N157  1  0.95681936  0.58520418  0.64092575  1  -1.260307  -0.000143  -0.383058  -0.346887  2.1e-05  3.487871  0.0
N  N158  1  0.80975758  0.49196932  0.28000354  1  -1.249624  -0.000247  -0.383764  -0.350784  -7.5e-05  3.502506  0.0
N  N159  1  0.19024144  0.50800484  0.72000408  1  -1.250426  -0.000247  -0.383828  -0.351073  -7.5e-05  3.50219  0.0
N  N160  1  0.12882996  0.13585349  0.38910137  1  -1.27685  -0.000338  -0.359567  -0.34102  -0.000188  3.42894  0.0
N  N161  1  0.87116525  0.86414742  0.61090308  1  -1.276841  -0.000338  -0.3596  -0.341013  -0.000188  3.429052  0.0
N  N162  1  0.87083137  0.24988338  0.41462018  1  -1.252093  -0.000983  -0.357942  -0.324857  -0.000786  3.466391  -0.001
N  N163  1  0.12915751  0.75010879  0.58537334  1  -1.252275  -0.000984  -0.357843  -0.324503  -0.000786  3.466112  -0.001
O  O164  1  0.06894084  0.14757598  0.17757036  1  -1.2238  -0.001465  -0.586204  -0.745949  -0.001162  2.046272  -0.001
O  O165  1  0.93111473  0.85245340  0.82240354  1  -1.223596  -0.001464  -0.585961  -0.745602  -0.001161  2.046482  -0.001
