# generated using pymatgen
data_ErAgH12C14N2O11
_symmetry_space_group_name_H-M   'P 1'
_cell_length_a   7.32751648
_cell_length_b   13.28947480
_cell_length_c   19.87189540
_cell_angle_alpha   105.86724590
_cell_angle_beta   90.00016341
_cell_angle_gamma   89.99890231
_symmetry_Int_Tables_number   1
_chemical_formula_structural   ErAgH12C14N2O11
_chemical_formula_sum   'Er4 Ag4 H48 C56 N8 O44'
_cell_volume   1861.37051475
_cell_formula_units_Z   4
loop_
 _symmetry_equiv_pos_site_id
 _symmetry_equiv_pos_as_xyz
  1  'x, y, z'
loop_
 _atom_site_type_symbol
 _atom_site_label
 _atom_site_symmetry_multiplicity
 _atom_site_fract_x
 _atom_site_fract_y
 _atom_site_fract_z
 _atom_site_occupancy
 _atom_site_pbe_bader_charge
 _atom_site_pbe_bader_spin_density
 _atom_site_pbe_cm5_charge
 _atom_site_pbe_ddec_charge
 _atom_site_pbe_ddec_spin_density
 _atom_site_pbe_ddec_sum_bond_order
 _atom_site_pbe_magmom
Er  Er0  1  0.59012342  0.19187196  0.84917101  1  2.160375  0  1.486586  1.972454  0  2.139856  0
Er  Er1  1  0.09007677  0.30811024  0.65080878  1  2.160352  0  1.486708  1.972583  0  2.139898  0
Er  Er2  1  0.40991547  0.80814175  0.15082955  1  2.160776  0  1.486611  1.97259  0  2.139638  0
Er  Er3  1  0.90992255  0.69187524  0.34918447  1  2.160638  0  1.486605  1.972367  0  2.140095  0
Ag  Ag4  1  0.08299356  0.10691634  0.00641046  1  0.603396  0  0.422618  0.454955  0  1.705538  0
Ag  Ag5  1  0.58294158  0.39307556  0.49356421  1  0.603424  0  0.422688  0.455053  0  1.705407  0
Ag  Ag6  1  0.91704806  0.89309145  0.99357500  1  0.60348  0  0.422623  0.454885  0  1.70575  0
Ag  Ag7  1  0.41703044  0.60693904  0.50643952  1  0.603476  0  0.422698  0.455031  0  1.705511  0
H  H8  1  0.69072323  0.37920899  0.13251547  1  0.117009  0  0.119614  0.13209  0  0.975174  0
H  H9  1  0.19061777  0.12079245  0.36745387  1  0.117749  0  0.119653  0.132207  0  0.975209  0
H  H10  1  0.30926653  0.62078861  0.86749192  1  0.117089  0  0.119665  0.132177  0  0.975221  0
H  H11  1  0.80937882  0.87917977  0.63253814  1  0.117838  0  0.11965  0.132126  0  0.975279  0
H  H12  1  0.38690262  0.46793621  0.15615755  1  0.111455  0  0.113433  0.119053  0  1.032016  0
H  H13  1  0.88685237  0.03207018  0.34383999  1  0.111504  0  0.113413  0.118937  0  1.032045  0
H  H14  1  0.61307077  0.53205348  0.84384598  1  0.11144  0  0.113445  0.119107  0  1.032048  0
H  H15  1  0.11315240  0.96791859  0.65615886  1  0.111618  0  0.113408  0.118947  0  1.032056  0
H  H16  1  0.16833324  0.45138093  0.05262198  1  0.126524  0  0.120112  0.135797  0  0.997854  0
H  H17  1  0.66832005  0.04861766  0.44737253  1  0.167933  0  0.120175  0.136035  0  0.997977  0
H  H18  1  0.83166198  0.54862018  0.94737343  1  0.126592  0  0.120082  0.135732  0  0.998002  0
H  H19  1  0.33169429  0.95137399  0.55261925  1  0.167902  0  0.120206  0.135948  0  0.997911  0
H  H20  1  0.96973350  0.82213922  0.79378028  1  0.136396  0  0.115402  0.128952  0  0.987012  0
H  H21  1  0.46961805  0.67783328  0.70628839  1  0.136692  0  0.115392  0.128989  0  0.986802  0
H  H22  1  0.03026036  0.17784411  0.20619449  1  0.136556  0  0.115418  0.129005  0  0.986918  0
H  H23  1  0.53031303  0.32216614  0.29377619  1  0.136971  0  0.115377  0.128993  0  0.987027  0
H  H24  1  0.74631184  0.72224436  0.84801184  1  0.084549  0  0.112587  0.117541  0  0.990027  0
H  H25  1  0.24622939  0.77775401  0.65203433  1  0.079219  0  0.112573  0.117396  0  0.989881  0
H  H26  1  0.25362880  0.27774575  0.15193137  1  0.086345  0  0.112567  0.117475  0  0.989856  0
H  H27  1  0.75367167  0.22226552  0.34805077  1  0.085582  0  0.11264  0.117462  0  0.989991  0
H  H28  1  0.46621689  0.81785434  0.90826264  1  0.105797  0  0.110337  0.121299  0  1.026651  0
H  H29  1  0.96617870  0.68214962  0.59174240  1  0.106333  0  0.110262  0.121312  0  1.026444  0
H  H30  1  0.53373603  0.18212796  0.09167975  1  0.10554  0  0.110382  0.121551  0  1.026589  0
H  H31  1  0.03374693  0.31787621  0.40832112  1  0.105615  0  0.110386  0.121534  0  1.026475  0
H  H32  1  0.91030152  0.35562116  0.88258702  1  0.670857  0  0.298056  0.40402  0  0.934682  0
H  H33  1  0.41027526  0.14436445  0.61739063  1  0.670898  0  0.298132  0.40398  0  0.934727  0
H  H34  1  0.08973737  0.64439237  0.11740747  1  0.671054  0  0.29815  0.404102  0  0.934592  0
H  H35  1  0.58971450  0.85562149  0.38259263  1  0.670885  0  0.298122  0.404022  0  0.934702  0
H  H36  1  0.71394766  0.40547647  0.88764168  1  0.587467  0  0.303996  0.36793  0  0.967167  0
H  H37  1  0.21393536  0.09450619  0.61234637  1  0.587072  0  0.304042  0.367823  0  0.967083  0
H  H38  1  0.28608304  0.59453717  0.11235636  1  0.587337  0  0.304039  0.367931  0  0.967039  0
H  H39  1  0.78605440  0.90547919  0.38764385  1  0.587338  0  0.304035  0.36792  0  0.967132  0
H  H40  1  0.27852882  0.05205148  0.76928617  1  0.662544  0  0.293888  0.404323  0  0.928828  0
H  H41  1  0.77846616  0.44792421  0.73070075  1  0.662741  0  0.293785  0.404153  0  0.929055  0
H  H42  1  0.72149643  0.94795847  0.23071828  1  0.662384  0  0.293776  0.404068  0  0.929171  0
H  H43  1  0.22151815  0.55205011  0.26928407  1  0.663186  0  0.293746  0.404073  0  0.929157  0
H  H44  1  0.37983880  0.11748169  0.72545433  1  0.646725  0  0.299925  0.397788  0  0.932481  0
H  H45  1  0.87978827  0.38250218  0.77453156  1  0.646566  0  0.29991  0.397815  0  0.932443  0
H  H46  1  0.62019736  0.88252987  0.27455191  1  0.647088  0  0.29998  0.397826  0  0.932379  0
H  H47  1  0.12018648  0.61748097  0.22546180  1  0.64689  0  0.299976  0.397867  0  0.932361  0
H  H48  1  0.50358295  0.30025296  0.73645346  1  0.644775  0  0.302072  0.402281  0  0.930409  0
H  H49  1  0.00360638  0.19971942  0.76353013  1  0.644517  0  0.302042  0.402305  0  0.930389  0
H  H50  1  0.49642592  0.69973625  0.26353490  1  0.644765  0  0.302078  0.402199  0  0.930522  0
H  H51  1  0.99642843  0.80027713  0.23646903  1  0.644482  0  0.302087  0.402265  0  0.930375  0
H  H52  1  0.67712041  0.22623998  0.70865110  1  0.653228  0  0.301719  0.400992  0  0.935269  0
H  H53  1  0.17712648  0.27373988  0.79133392  1  0.653707  0  0.301717  0.400982  0  0.935281  0
H  H54  1  0.32289256  0.77375345  0.29134753  1  0.653334  0  0.301689  0.40092  0  0.935361  0
H  H55  1  0.82290559  0.72626270  0.20865871  1  0.654036  0  0.301671  0.400937  0  0.935376  0
C  C56  1  0.79726864  0.24593914  0.00322902  1  1.599337  0  0.209913  0.558359  0  4.199359  0
C  C57  1  0.29721279  0.25407380  0.49674741  1  1.599651  0  0.209989  0.558348  0  4.199031  0
C  C58  1  0.20275797  0.75408186  0.99678033  1  1.599815  0  0.209929  0.558575  0  4.19909  0
C  C59  1  0.70276333  0.74592469  0.50323900  1  1.599806  0  0.209821  0.558142  0  4.19947  0
C  C60  1  0.63825176  0.31989620  0.02209886  1  0.466878  0  0.123479  0.126983  0  3.964571  0
C  C61  1  0.13820104  0.18011251  0.47788525  1  0.467729  0  0.123347  0.126942  0  3.964939  0
C  C62  1  0.36176802  0.68011999  0.97790615  1  0.466962  0  0.12349  0.126821  0  3.964431  0
C  C63  1  0.86177098  0.81989862  0.52210732  1  0.467377  0  0.123373  0.126867  0  3.964426  0
C  C64  1  0.59550803  0.37772227  0.09017433  1  0.016434  0  -0.061987  -0.106791  0  3.885039  0
C  C65  1  0.09545879  0.12229473  0.40981115  1  0.015394  0  -0.061799  -0.106694  0  3.885305  0
C  C66  1  0.40449948  0.62228913  0.90982685  1  0.016409  0  -0.062073  -0.106836  0  3.884946  0
C  C67  1  0.90453507  0.87771956  0.59018296  1  0.015409  0  -0.061974  -0.106683  0  3.885341  0
C  C68  1  0.42557926  0.42724404  0.10251602  1  -0.057299  0  -0.065633  -0.041505  0  3.933232  0
C  C69  1  0.92555121  0.07274540  0.39747567  1  -0.057647  0  -0.065569  -0.041325  0  3.932952  0
C  C70  1  0.57441324  0.57275491  0.89748506  1  -0.057266  0  -0.065631  -0.041565  0  3.933112  0
C  C71  1  0.07444402  0.92725964  0.60252141  1  -0.057761  0  -0.065569  -0.041383  0  3.9332  0
C  C72  1  0.30647743  0.41955949  0.04643485  1  -0.075713  0  -0.070175  -0.134063  0  3.909533  0
C  C73  1  0.80644545  0.08042756  0.45356236  1  -0.116803  0  -0.070348  -0.134536  0  3.909566  0
C  C74  1  0.69353007  0.58044479  0.95356260  1  -0.075199  0  -0.070151  -0.133894  0  3.909078  0
C  C75  1  0.19355251  0.91956832  0.54643971  1  -0.116397  0  -0.070403  -0.134301  0  3.909569  0
C  C76  1  0.36583210  0.36606475  0.97942785  1  0.583264  0  0.121062  0.120873  0  3.996116  0
C  C77  1  0.86581687  0.13393052  0.52056952  1  0.584067  0  0.121059  0.120999  0  3.996354  0
C  C78  1  0.63418632  0.63395053  0.02057297  1  0.58277  0  0.121125  0.120818  0  3.995983  0
C  C79  1  0.13419200  0.86605449  0.47943372  1  0.583106  0  0.121222  0.120886  0  3.99628  0
C  C80  1  0.24948025  0.35272754  0.91512603  1  1.611517  0  0.226128  0.57324  0  4.202954  0
C  C81  1  0.74946505  0.14725884  0.58486922  1  1.611562  0  0.226315  0.573413  0  4.202882  0
C  C82  1  0.75055455  0.64728145  0.08487272  1  1.612078  0  0.226074  0.573305  0  4.203342  0
C  C83  1  0.25053973  0.85273217  0.41512699  1  1.611676  0  0.226125  0.573291  0  4.202793  0
C  C84  1  0.92683765  0.02798411  0.78946501  1  1.613102  0  0.229063  0.572749  0  4.196159  0
C  C85  1  0.42673258  0.47196863  0.71053678  1  1.610747  0  0.228819  0.57254  0  4.195782  0
C  C86  1  0.07320534  0.97202550  0.21052881  1  1.612582  0  0.228844  0.572827  0  4.19583  0
C  C87  1  0.57323125  0.52800010  0.28946773  1  1.61175  0  0.228886  0.572729  0  4.196224  0
C  C88  1  0.80326008  0.96078589  0.81959088  1  0.502017  0  0.121933  0.110475  0  3.995194  0
C  C89  1  0.30317649  0.53918810  0.68041798  1  0.502163  0  0.12228  0.111038  0  3.994883  0
C  C90  1  0.19676790  0.03921559  0.18039200  1  0.501  0  0.122059  0.110721  0  3.994962  0
C  C91  1  0.69680508  0.46079355  0.31960180  1  0.502221  0  0.122128  0.110802  0  3.994823  0
C  C92  1  0.84338459  0.85738596  0.81797459  1  0.009074  0  -0.065635  -0.11809  0  3.918192  0
C  C93  1  0.34329746  0.64258734  0.68205081  1  0.009223  0  -0.065521  -0.118104  0  3.917676  0
C  C94  1  0.15662156  0.14260912  0.18200268  1  0.010263  0  -0.06553  -0.118237  0  3.917993  0
C  C95  1  0.65666911  0.35739233  0.31797971  1  0.008604  0  -0.065489  -0.118123  0  3.91816  0
C  C96  1  0.72002187  0.80327078  0.84885490  1  -0.052925  0  -0.067177  -0.038956  0  3.973295  0
C  C97  1  0.21996267  0.69670777  0.65117076  1  -0.047178  0  -0.067176  -0.038683  0  3.973464  0
C  C98  1  0.27995698  0.19672144  0.15110577  1  -0.053955  0  -0.067221  -0.038559  0  3.972752  0
C  C99  1  0.77998615  0.30329049  0.34888204  1  -0.053165  0  -0.067295  -0.038739  0  3.973509  0
C  C100  1  0.56481436  0.85510896  0.88197581  1  -0.040063  0  -0.069721  -0.122303  0  3.912993  0
C  C101  1  0.06474441  0.64488986  0.61804610  1  -0.040366  0  -0.06964  -0.122363  0  3.912836  0
C  C102  1  0.43516995  0.14488311  0.11798031  1  -0.041027  0  -0.06977  -0.123067  0  3.913163  0
C  C103  1  0.93517712  0.35512420  0.38201391  1  -0.041022  0  -0.06965  -0.122786  0  3.912938  0
C  C104  1  0.53797810  0.95921117  0.88239299  1  0.543477  0  0.126698  0.141832  0  3.949529  0
C  C105  1  0.03786533  0.54078779  0.61762389  1  0.542074  0  0.126784  0.142182  0  3.949631  0
C  C106  1  0.46204988  0.04079336  0.11758790  1  0.542786  0  0.126687  0.142182  0  3.95021  0
C  C107  1  0.96206166  0.45922031  0.38242001  1  0.542407  0  0.126498  0.142063  0  3.949698  0
C  C108  1  0.38593592  0.02690817  0.92047731  1  1.58822  0  0.213599  0.566368  0  4.177972  0
C  C109  1  0.88585216  0.47309036  0.57950705  1  1.588592  0  0.21344  0.56614  0  4.178027  0
C  C110  1  0.61410297  0.97310672  0.07951137  1  1.589149  0  0.213611  0.566365  0  4.177959  0
C  C111  1  0.11410895  0.52691144  0.42051012  1  1.588831  0  0.213572  0.5664  0  4.177173  0
N  N112  1  0.52698300  0.31722282  0.96801131  1  -1.253431  0  -0.370387  -0.372951  0  3.573666  0
N  N113  1  0.02695341  0.18277278  0.53197674  1  -1.254331  0  -0.370419  -0.373097  0  3.57439  0
N  N114  1  0.47303816  0.68278789  0.03199277  1  -1.253443  0  -0.370404  -0.372842  0  3.573877  0
N  N115  1  0.97305410  0.81721345  0.46801563  1  -1.253789  0  -0.370373  -0.372904  0  3.574143  0
N  N116  1  0.65292001  0.00929685  0.85034506  1  -1.232049  0  -0.37597  -0.344308  0  3.547486  0
N  N117  1  0.15281658  0.49069032  0.64966584  1  -1.231735  0  -0.376402  -0.345165  0  3.548827  0
N  N118  1  0.34711888  0.99072197  0.14964479  1  -1.231927  0  -0.376139  -0.344568  0  3.548406  0
N  N119  1  0.84713634  0.50930168  0.35036124  1  -1.231632  0  -0.376164  -0.344654  0  3.548394  0
O  O120  1  0.80463850  0.19003333  0.94030332  1  -1.173487  0  -0.366202  -0.632096  0  2.351545  0
O  O121  1  0.30458837  0.30996956  0.55966760  1  -1.173914  0  -0.366314  -0.632151  0  2.351224  0
O  O122  1  0.19539494  0.80998906  0.05970072  1  -1.174085  0  -0.366329  -0.63236  0  2.351933  0
O  O123  1  0.69540958  0.69002496  0.44031662  1  -1.173775  0  -0.36617  -0.631968  0  2.351691  0
O  O124  1  0.90680399  0.24003616  0.05171040  1  -1.106758  0  -0.323882  -0.491029  0  2.269475  0
O  O125  1  0.40674348  0.25996994  0.44826044  1  -1.106974  0  -0.323927  -0.490983  0  2.269194  0
O  O126  1  0.09322399  0.75998072  0.94829171  1  -1.106926  0  -0.323877  -0.490989  0  2.269272  0
O  O127  1  0.59325447  0.74002404  0.55173124  1  -1.106928  0  -0.323845  -0.490903  0  2.269545  0
O  O128  1  0.32464554  0.30155686  0.85745158  1  -1.186432  0  -0.35858  -0.619595  0  2.302965  0
O  O129  1  0.82463446  0.19843892  0.64254735  1  -1.18649  0  -0.358736  -0.619723  0  2.302838  0
O  O130  1  0.67538653  0.69845762  0.14254861  1  -1.187159  0  -0.358503  -0.619552  0  2.303103  0
O  O131  1  0.17535394  0.80156471  0.35745402  1  -1.186531  0  -0.358535  -0.619517  0  2.303121  0
O  O132  1  0.09219441  0.39126290  0.92316394  1  -1.181372  0  -0.301713  -0.517016  0  2.179585  0
O  O133  1  0.59217637  0.10874662  0.57684364  1  -1.181388  0  -0.301726  -0.517009  0  2.179885  0
O  O134  1  0.90783903  0.60874903  0.07682927  1  -1.181633  0  -0.301704  -0.5171  0  2.17995  0
O  O135  1  0.40782295  0.89126953  0.42315985  1  -1.181501  0  -0.301779  -0.517088  0  2.179551  0
O  O136  1  0.86150019  0.11768120  0.78904086  1  -1.178114  0  -0.359463  -0.605955  0  2.275784  0
O  O137  1  0.36142005  0.38226306  0.71094081  1  -1.176963  0  -0.35938  -0.605879  0  2.276096  0
O  O138  1  0.13855645  0.88233422  0.21096452  1  -1.177665  0  -0.35951  -0.606149  0  2.275585  0
O  O139  1  0.63857927  0.61770671  0.28904777  1  -1.177096  0  -0.359422  -0.606025  0  2.275678  0
O  O140  1  0.08079220  0.99188530  0.76777282  1  -1.184628  0  -0.30241  -0.528877  0  2.179642  0
O  O141  1  0.58069826  0.50806534  0.73225603  1  -1.183668  0  -0.3024  -0.528904  0  2.179123  0
O  O142  1  0.91926171  0.00810974  0.23222759  1  -1.184452  0  -0.302209  -0.528801  0  2.179586  0
O  O143  1  0.41930242  0.49191784  0.26776250  1  -1.183996  0  -0.302315  -0.528832  0  2.180139  0
O  O144  1  0.37752901  0.11941289  0.91433131  1  -1.178068  0  -0.368511  -0.627743  0  2.331916  0
O  O145  1  0.87746894  0.38057526  0.58564171  1  -1.177718  0  -0.368363  -0.62765  0  2.331992  0
O  O146  1  0.62251125  0.88060239  0.08566951  1  -1.177991  0  -0.368611  -0.62794  0  2.331854  0
O  O147  1  0.12251673  0.61941800  0.41435186  1  -1.177825  0  -0.368521  -0.627941  0  2.33159  0
O  O148  1  0.27956564  0.98829648  0.95760933  1  -1.100989  0  -0.315944  -0.497512  0  2.352247  0
O  O149  1  0.77952475  0.51170568  0.54237208  1  -1.101885  0  -0.315919  -0.497516  0  2.352338  0
O  O150  1  0.72045552  0.01169798  0.04237287  1  -1.101882  0  -0.315869  -0.497371  0  2.352373  0
O  O151  1  0.22044182  0.48831974  0.45765413  1  -1.101717  0  -0.315897  -0.497445  0  2.35235  0
O  O152  1  0.78379627  0.34576519  0.86063334  1  -1.251502  0  -0.614665  -0.825893  0  2.158498  0
O  O153  1  0.28376574  0.15422639  0.63934168  1  -1.251215  0  -0.614875  -0.82586  0  2.158747  0
O  O154  1  0.21623990  0.65424830  0.13936014  1  -1.25164  0  -0.614866  -0.826098  0  2.158472  0
O  O155  1  0.71622812  0.84575657  0.36064561  1  -1.251508  0  -0.614827  -0.825981  0  2.158769  0
O  O156  1  0.39950923  0.08282890  0.76274382  1  -1.300155  0  -0.653665  -0.857905  0  2.074247  0
O  O157  1  0.89944904  0.41714511  0.73723236  1  -1.300133  0  -0.65353  -0.857732  0  2.074483  0
O  O158  1  0.60051465  0.91717632  0.23725883  1  -1.300223  0  -0.653609  -0.857683  0  2.0745  0
O  O159  1  0.10053117  0.58283479  0.26275642  1  -1.300926  0  -0.65355  -0.857669  0  2.074534  0
O  O160  1  0.58238145  0.24457827  0.74625066  1  -1.291503  0  -0.660486  -0.847792  0  2.126256  0
O  O161  1  0.08237150  0.25540427  0.75373724  1  -1.291505  0  -0.66044  -0.847813  0  2.125967  0
O  O162  1  0.41763561  0.75541584  0.25374507  1  -1.291572  0  -0.660443  -0.847635  0  2.126368  0
O  O163  1  0.91764693  0.74459843  0.24625944  1  -1.291545  0  -0.660387  -0.84762  0  2.126151  0
