# generated using pymatgen
data_CdH12C18(NO)6
_symmetry_space_group_name_H-M   'P 1'
_cell_length_a   8.37082927
_cell_length_b   9.83691807
_cell_length_c   11.02015701
_cell_angle_alpha   96.01368865
_cell_angle_beta   89.68961255
_cell_angle_gamma   95.93375508
_symmetry_Int_Tables_number   1
_chemical_formula_structural   CdH12C18(NO)6
_chemical_formula_sum   'Cd2 H24 C36 N12 O12'
_cell_volume   897.59221943
_cell_formula_units_Z   2
loop_
 _symmetry_equiv_pos_site_id
 _symmetry_equiv_pos_as_xyz
  1  'x, y, z'
loop_
 _atom_site_type_symbol
 _atom_site_label
 _atom_site_symmetry_multiplicity
 _atom_site_fract_x
 _atom_site_fract_y
 _atom_site_fract_z
 _atom_site_occupancy
 _atom_site_pbe_bader_spin_density
 _atom_site_pbe_cm5_charge
 _atom_site_pbe_ddec_charge
 _atom_site_pbe_ddec_spin_density
 _atom_site_pbe_ddec_sum_bond_order
 _atom_site_pbe_magmom
Cd  Cd0  1  0.62636011  0.92419683  0.86844381  1  0  0.773529  0.884746  0  2.145421  0
Cd  Cd1  1  0.37364031  0.07580268  0.13155774  1  0  0.773526  0.884738  0  2.145443  0
H  H2  1  0.24433597  0.94311888  0.47747989  1  0  0.31204  0.2572  0  1.034396  0
H  H3  1  0.75566446  0.05688063  0.52252076  1  0  0.312036  0.257189  0  1.034393  0
H  H4  1  0.03987190  0.60720784  0.46515100  1  0  0.305641  0.361526  0  0.9715  0
H  H5  1  0.96012866  0.39279269  0.53484883  1  0  0.305659  0.361547  0  0.971377  0
H  H6  1  0.71721051  0.68883860  0.65906828  1  0  0.102896  0.117516  0  1.013704  0
H  H7  1  0.28278763  0.31116194  0.34093427  1  0  0.1029  0.117528  0  1.013708  0
H  H8  1  0.72197540  0.53351489  0.46602864  1  0  0.094663  0.090658  0  1.045299  0
H  H9  1  0.27802406  0.46648667  0.53397401  1  0  0.094637  0.090605  0  1.045336  0
H  H10  1  0.53853878  0.54963247  0.29483039  1  0  0.100744  0.105167  0  1.002237  0
H  H11  1  0.46146153  0.45036601  0.70516925  1  0  0.100749  0.105166  0  1.002269  0
H  H12  1  0.33868902  0.72245176  0.30977640  1  0  0.105722  0.135506  0  1.032097  0
H  H13  1  0.66131022  0.27754775  0.69022424  1  0  0.105709  0.135504  0  1.032121  0
H  H14  1  0.33806180  0.07729218  0.81705334  1  0  0.132276  0.148035  0  0.989767  0
H  H15  1  0.66193898  0.92271042  0.18294941  1  0  0.13229  0.148098  0  0.989714  0
H  H16  1  0.32009838  0.16458061  0.68492713  1  0  0.12677  0.128082  0  1.008088  0
H  H17  1  0.67990075  0.83541787  0.31507160  1  0  0.126754  0.12806  0  1.00809  0
H  H18  1  0.05892843  0.94255810  0.88979635  1  0  0.156495  0.152815  0  0.982415  0
H  H19  1  0.94107094  0.05744243  0.11020258  1  0  0.156515  0.15282  0  0.982456  0
H  H20  1  0.65636480  0.44623653  0.89522476  1  0  0.112888  0.120385  0  0.999243  0
H  H21  1  0.34363432  0.55376195  0.10477488  1  0  0.112877  0.120358  0  0.999261  0
H  H22  1  0.81374288  0.25467317  0.20061101  1  0  0.103402  0.101009  0  1.04389  0
H  H23  1  0.18625566  0.74533045  0.79938911  1  0  0.103393  0.100998  0  1.043888  0
H  H24  1  0.92571389  0.68981074  0.18668092  1  0  0.107687  0.111944  0  1.020686  0
H  H25  1  0.07428908  0.31018980  0.81331620  1  0  0.107689  0.111946  0  1.020688  0
C  C26  1  0.52299186  0.79234161  0.59275539  1  0  0.081048  0.136361  0  4.05833  0
C  C27  1  0.47700845  0.20765688  0.40724516  1  0  0.08105  0.136413  0  4.058299  0
C  C28  1  0.63740597  0.69776112  0.58316975  1  0  -0.09427  -0.156649  0  3.981585  0
C  C29  1  0.36259315  0.30223736  0.41682989  1  0  -0.09428  -0.156718  0  3.981564  0
C  C30  1  0.64009888  0.61272614  0.47433312  1  0  -0.101407  -0.090092  0  4.040567  0
C  C31  1  0.35989786  0.38727233  0.52566652  1  0  -0.101406  -0.090009  0  4.040508  0
C  C32  1  0.53329336  0.62060929  0.37739206  1  0  -0.097429  -0.090107  0  4.023847  0
C  C33  1  0.46670468  0.37939022  0.62260858  1  0  -0.097424  -0.090131  0  4.023855  0
C  C34  1  0.41890826  0.71447276  0.38544180  1  0  -0.097478  -0.171686  0  3.966226  0
C  C35  1  0.58109110  0.28552777  0.61455894  1  0  -0.097431  -0.171628  0  3.9662  0
C  C36  1  0.41736023  0.80063172  0.49440853  1  0  0.091475  0.148957  0  4.009076  0
C  C37  1  0.58264034  0.19936881  0.50559130  1  0  0.091426  0.148861  0  4.009069  0
C  C38  1  0.37018860  0.95398547  0.64931060  1  0  0.234055  0.346219  0  3.96719  0
C  C39  1  0.62981422  0.04601404  0.35069005  1  0  0.234087  0.346225  0  3.967096  0
C  C40  1  0.29402332  0.06587798  0.72304731  1  0  -0.030246  -0.192455  0  3.859932  0
C  C41  1  0.70597723  0.93412256  0.27695343  1  0  -0.030271  -0.192514  0  3.859959  0
C  C42  1  0.02174157  0.97694566  0.80519889  1  0  0.192118  0.104125  0  3.844681  0
C  C43  1  0.97825780  0.02305487  0.19480003  1  0  0.192076  0.104051  0  3.844798  0
C  C44  1  0.76182043  0.71125363  0.97905459  1  0  0.190619  0.562841  0  4.235538  0
C  C45  1  0.23817631  0.28874484  0.02094414  1  0  0.190634  0.562826  0  4.235522  0
C  C46  1  0.78731811  0.58194863  0.03530190  1  0  -0.013323  -0.030755  0  3.954678  0
C  C47  1  0.21268222  0.41804985  0.96469684  1  0  -0.013323  -0.030665  0  3.954662  0
C  C48  1  0.72110041  0.45353592  0.98146400  1  0  -0.056431  -0.068406  0  3.872413  0
C  C49  1  0.27889872  0.54646256  0.01853474  1  0  -0.056404  -0.068373  0  3.872384  0
C  C50  1  0.73524158  0.33447933  0.03832906  1  0  -0.011882  -0.020681  0  3.962354  0
C  C51  1  0.26475768  0.66552017  0.96166977  1  0  -0.011866  -0.020649  0  3.962262  0
C  C52  1  0.67237501  0.19729629  0.97577399  1  0  0.19457  0.561718  0  4.207805  0
C  C53  1  0.32762422  0.80270322  0.02422665  1  0  0.194561  0.561754  0  4.207777  0
C  C54  1  0.80959827  0.34519998  0.15247484  1  0  -0.065498  -0.07792  0  3.899726  0
C  C55  1  0.19040708  0.65480056  0.84752319  1  0  -0.065505  -0.077972  0  3.899739  0
C  C56  1  0.87886936  0.47278739  0.20626396  1  0  -0.019378  -0.059953  0  4.000971  0
C  C57  1  0.12113264  0.52721521  0.79373516  1  0  -0.01933  -0.059851  0  4.00086  0
C  C58  1  0.94833868  0.48128709  0.33082220  1  0  0.238031  0.583465  0  4.107311  0
C  C59  1  0.05166942  0.51871654  0.66917793  1  0  0.238058  0.583409  0  4.107383  0
C  C60  1  0.87091277  0.59056583  0.14595749  1  0  -0.064427  -0.0824  0  3.899731  0
C  C61  1  0.12908621  0.40943162  0.85404478  1  0  -0.064446  -0.082481  0  3.899713  0
N  N62  1  0.48856996  0.88865577  0.68840213  1  0  -0.352335  -0.395578  0  3.420009  0
N  N63  1  0.51142940  0.11134476  0.31159771  1  0  -0.352327  -0.395562  0  3.419909  0
N  N64  1  0.32434849  0.90507723  0.53334868  1  0  -0.374206  -0.305506  0  3.601877  0
N  N65  1  0.67565350  0.09492537  0.46665226  1  0  -0.374191  -0.305494  0  3.60193  0
N  N66  1  0.11983193  0.03614357  0.72442369  1  0  -0.11213  0.171694  0  3.703874  0
N  N67  1  0.88016864  0.96385696  0.27557524  1  0  -0.11212  0.171698  0  3.703937  0
N  N68  1  0.03130490  0.06713690  0.63103605  1  0  -0.061959  -0.10392  0  3.130031  0
N  N69  1  0.96869447  0.93286363  0.36896288  1  0  -0.061988  -0.103928  0  3.130049  0
N  N70  1  0.88331267  0.02790046  0.65514838  1  0  -0.056223  -0.026156  0  3.291825  0
N  N71  1  0.11668682  0.97210110  0.34485064  1  0  -0.056207  -0.026154  0  3.291759  0
N  N72  1  0.87302845  0.97134509  0.76280326  1  0  -0.214753  -0.208858  0  3.394032  0
N  N73  1  0.12697080  0.02865442  0.23719557  1  0  -0.214711  -0.208763  0  3.394038  0
O  O74  1  0.84882376  0.82126980  0.01231734  1  0  -0.335428  -0.584825  0  2.17658  0
O  O75  1  0.15117527  0.17872765  0.98767949  1  0  -0.335422  -0.584825  0  2.176544  0
O  O76  1  0.64555631  0.70261062  0.90156740  1  0  -0.336977  -0.556411  0  2.214408  0
O  O77  1  0.35443681  0.29738786  0.09843496  1  0  -0.337005  -0.55644  0  2.214457  0
O  O78  1  0.63792342  0.18517006  0.86390315  1  0  -0.311736  -0.533799  0  2.19414  0
O  O79  1  0.36207475  0.81483047  0.13609759  1  0  -0.311737  -0.53379  0  2.194071  0
O  O80  1  0.65944855  0.09200336  0.03888764  1  0  -0.340361  -0.595502  0  2.293457  0
O  O81  1  0.34055055  0.90799512  0.96111382  1  0  -0.340365  -0.595558  0  2.293564  0
O  O82  1  0.93475220  0.38018959  0.39149059  1  0  -0.288962  -0.503831  0  2.18163  0
O  O83  1  0.06526285  0.61981200  0.60850663  1  0  -0.289005  -0.503828  0  2.181655  0
O  O84  1  0.01811739  0.60383892  0.37317159  1  0  -0.319841  -0.474484  0  2.34485  0
O  O85  1  0.98188245  0.39616572  0.62682953  1  0  -0.319853  -0.474453  0  2.344739  0
