# generated using pymatgen
data_AgH20C26N7O3
_symmetry_space_group_name_H-M   'P 1'
_cell_length_a   10.32477378
_cell_length_b   10.94116346
_cell_length_c   11.29750000
_cell_angle_alpha   105.94692213
_cell_angle_beta   91.48968541
_cell_angle_gamma   103.13050388
_symmetry_Int_Tables_number   1
_chemical_formula_structural   AgH20C26N7O3
_chemical_formula_sum   'Ag2 H40 C52 N14 O6'
_cell_volume   1189.68795887
_cell_formula_units_Z   2
loop_
 _symmetry_equiv_pos_site_id
 _symmetry_equiv_pos_as_xyz
  1  'x, y, z'
loop_
 _atom_site_type_symbol
 _atom_site_label
 _atom_site_symmetry_multiplicity
 _atom_site_fract_x
 _atom_site_fract_y
 _atom_site_fract_z
 _atom_site_occupancy
 _atom_site_hle17_bader_spin_density
 _atom_site_hle17_ddec_charge
 _atom_site_hle17_ddec_spin_density
 _atom_site_hle17_ddec_sum_bond_order
 _atom_site_hle17_magmom
 _atom_site_hse06_10hf_bader_spin_density
 _atom_site_hse06_10hf_ddec_charge
 _atom_site_hse06_10hf_ddec_spin_density
 _atom_site_hse06_10hf_ddec_sum_bond_order
 _atom_site_hse06_10hf_magmom
 _atom_site_hse06_bader_spin_density
 _atom_site_hse06_ddec_charge
 _atom_site_hse06_ddec_spin_density
 _atom_site_hse06_ddec_sum_bond_order
 _atom_site_hse06_magmom
 _atom_site_pbe_bader_charge
 _atom_site_pbe_bader_spin_density
 _atom_site_pbe_cm5_charge
 _atom_site_pbe_ddec_charge
 _atom_site_pbe_ddec_spin_density
 _atom_site_pbe_ddec_sum_bond_order
 _atom_site_pbe_magmom
Ag  Ag0  1  0.14925013  0.33605666  0.98400739  1  0  0.512447  0  1.409781  0  0  0.356655  0  1.848002  0  0  0.385713  0  1.805113  0  0.591371  0  0.468459  0.337461  0  1.876849  0
Ag  Ag1  1  0.85075247  0.66394101  0.01599223  1  0  0.512402  0  1.409746  0  0  0.356615  0  1.847919  0  0  0.385669  0  1.805037  0  0.59141  0  0.468422  0.337415  0  1.876773  0
H  H2  1  0.31995406  0.59137328  0.95147660  1  0  0.092895  0  0.955453  0  0  0.104003  0  1.014885  0  0  0.106667  0  1.011949  0  0.141477  0  0.118697  0.101999  0  1.017193  0
H  H3  1  0.68003739  0.40862244  0.04852577  1  0  0.09292  0  0.955564  0  0  0.104016  0  1.015008  0  0  0.106678  0  1.012075  0  0.141307  0  0.118739  0.102013  0  1.017316  0
H  H4  1  0.53081896  0.66938661  0.86055744  1  0  0.102395  0  0.979118  0  0  0.107494  0  1.047249  0  0  0.110756  0  1.046251  0  0.118914  0  0.103574  0.105358  0  1.047734  0
H  H5  1  0.46917275  0.33061793  0.13944906  1  0  0.102425  0  0.979106  0  0  0.107513  0  1.047274  0  0  0.110773  0  1.046282  0  0.118764  0  0.103571  0.105379  0  1.047756  0
H  H6  1  0.65832165  0.50194047  0.75610974  1  0  0.106824  0  0.951397  0  0  0.11721  0  1.013968  0  0  0.120825  0  1.010099  0  0.106834  0  0.109856  0.114573  0  1.016586  0
H  H7  1  0.34167176  0.49806700  0.24389050  1  0  0.106798  0  0.951328  0  0  0.117163  0  1.013908  0  0  0.120822  0  1.009992  0  0.106822  0  0.109857  0.114526  0  1.016529  0
H  H8  1  0.34334652  0.20512129  0.82542185  1  0  0.065987  0  0.982948  0  0  0.069325  0  1.063889  0  0  0.072489  0  1.059196  0  0.086384  0  0.110387  0.066997  0  1.067324  0
H  H9  1  0.65665366  0.79487834  0.17457204  1  0  0.066017  0  0.982882  0  0  0.069316  0  1.063897  0  0  0.072479  0  1.059205  0  0.086356  0  0.110394  0.06699  0  1.067328  0
H  H10  1  0.67299322  0.27541415  0.68729706  1  0  0.081398  0  0.947858  0  0  0.090764  0  1.014578  0  0  0.093223  0  1.01203  0  0.117135  0  0.11943  0.089047  0  1.016213  0
H  H11  1  0.32700479  0.72458842  0.31269933  1  0  0.081358  0  0.947887  0  0  0.09074  0  1.014636  0  0  0.0932  0  1.012094  0  0.117153  0  0.119378  0.089023  0  1.016271  0
H  H12  1  0.78238944  0.99314364  0.51106545  1  0  0.098197  0  0.96553  0  0  0.105759  0  1.032178  0  0  0.108725  0  1.030635  0  0.085541  0  0.103935  0.103841  0  1.032864  0
H  H13  1  0.21760252  0.00686188  0.48893866  1  0  0.098222  0  0.965469  0  0  0.105758  0  1.032154  0  0  0.108717  0  1.030606  0  0.085653  0  0.103962  0.103839  0  1.032844  0
H  H14  1  0.90630031  0.84614102  0.37377421  1  0  0.095056  0  0.943215  0  0  0.110245  0  0.99521  0  0  0.112688  0  0.994613  0  0.067006  0  0.103418  0.108385  0  0.995779  0
H  H15  1  0.09369505  0.15387037  0.62622977  1  0  0.095093  0  0.943222  0  0  0.110277  0  0.99522  0  0  0.112721  0  0.994621  0  0.066895  0  0.103434  0.108415  0  0.995793  0
H  H16  1  0.85772475  0.61155412  0.36083524  1  0  0.095283  0  0.961812  0  0  0.102352  0  1.030251  0  0  0.104964  0  1.02923  0  0.093047  0  0.10172  0.100299  0  1.031261  0
H  H17  1  0.14227520  0.38845629  0.63916328  1  0  0.095331  0  0.961726  0  0  0.102382  0  1.030192  0  0  0.104995  0  1.029172  0  0.09297  0  0.101733  0.100326  0  1.031203  0
H  H18  1  0.68788180  0.51956122  0.48717795  1  0  0.091336  0  0.953797  0  0  0.103729  0  1.010313  0  0  0.105784  0  1.011248  0  0.066533  0  0.099491  0.102308  0  1.009616  0
H  H19  1  0.31213001  0.48044625  0.51282715  1  0  0.091322  0  0.953896  0  0  0.103726  0  1.010391  0  0  0.105777  0  1.011332  0  0.066437  0  0.099512  0.102305  0  1.009696  0
H  H20  1  0.56396193  0.66418016  0.62267695  1  0  0.087184  0  0.970435  0  0  0.098466  0  1.032694  0  0  0.100478  0  1.033267  0  0.067339  0  0.097467  0.09711  0  1.032199  0
H  H21  1  0.43604625  0.33582045  0.37733244  1  0  0.087028  0  0.970537  0  0  0.098299  0  1.032823  0  0  0.100305  0  1.033406  0  0.067316  0  0.097412  0.096943  0  1.032326  0
H  H22  1  0.31741807  0.72514710  0.84274369  1  0  0.090146  0  0.981782  0  0  0.097977  0  1.049143  0  0  0.100862  0  1.047153  0  0.095325  0  0.101107  0.096092  0  1.050362  0
H  H23  1  0.68257364  0.27485352  0.15726088  1  0  0.090088  0  0.981822  0  0  0.097909  0  1.04921  0  0  0.1008  0  1.0472  0  0.095278  0  0.101055  0.096023  0  1.05043  0
H  H24  1  0.08736117  0.59300813  0.75274976  1  0  0.10483  0  0.960256  0  0  0.114469  0  1.019559  0  0  0.117508  0  1.01816  0  0.10293  0  0.101463  0.112216  0  1.020632  0
H  H25  1  0.91263296  0.40699444  0.24725008  1  0  0.104849  0  0.960283  0  0  0.114446  0  1.019631  0  0  0.117483  0  1.018236  0  0.102967  0  0.101441  0.1122  0  1.020688  0
H  H26  1  0.99968354  0.60084916  0.54988184  1  0  0.084859  0  0.968602  0  0  0.096758  0  1.029072  0  0  0.098792  0  1.02919  0  0.083054  0  0.100519  0.095049  0  1.029491  0
H  H27  1  0.00031761  0.39914655  0.45011457  1  0  0.084846  0  0.968649  0  0  0.096745  0  1.029108  0  0  0.098781  0  1.029223  0  0.083112  0  0.100499  0.095036  0  1.029527  0
H  H28  1  0.13958904  0.73444166  0.43281391  1  0  0.098131  0  0.964369  0  0  0.103313  0  1.034327  0  0  0.106864  0  1.031763  0  0.110747  0  0.098896  0.100708  0  1.036171  0
H  H29  1  0.86041066  0.26555602  0.56718476  1  0  0.098128  0  0.964371  0  0  0.103303  0  1.034326  0  0  0.106854  0  1.031769  0  0.110763  0  0.098885  0.100698  0  1.036171  0
H  H30  1  0.36876129  0.86328151  0.52070873  1  0  0.090163  0  1.007942  0  0  0.089629  0  1.089149  0  0  0.092912  0  1.087874  0  0.089859  0  0.09674  0.087334  0  1.089896  0
H  H31  1  0.63123526  0.13672303  0.47929612  1  0  0.090111  0  1.007954  0  0  0.089605  0  1.089134  0  0  0.092887  0  1.087863  0  0.089785  0  0.096726  0.087307  0  1.089886  0
H  H32  1  0.62125628  0.92365252  0.06043709  1  0  0.076128  0  0.934934  0  0  0.08073  0  1.010729  0  0  0.084615  0  1.005761  0  0.110237  0  0.113785  0.077695  0  1.014816  0
H  H33  1  0.37875286  0.07634025  0.93956315  1  0  0.076137  0  0.934994  0  0  0.080709  0  1.010818  0  0  0.084585  0  1.005853  0  0.110475  0  0.113802  0.077676  0  1.014903  0
H  H34  1  0.80986236  0.96283610  0.22356097  1  0  0.094354  0  0.950031  0  0  0.106986  0  1.012256  0  0  0.109342  0  1.010311  0  0.055781  0  0.108224  0.105106  0  1.013985  0
H  H35  1  0.19014557  0.03715961  0.77643294  1  0  0.094493  0  0.949896  0  0  0.107028  0  1.012215  0  0  0.10938  0  1.010275  0  0.055445  0  0.108242  0.105147  0  1.013943  0
H  H36  1  0.03923488  0.09286130  0.32125397  1  0  0.105103  0  0.957009  0  0  0.117447  0  1.011286  0  0  0.11929  0  1.013125  0  0.081967  0  0.10822  0.116187  0  1.010181  0
H  H37  1  0.96076845  0.90713932  0.67874556  1  0  0.10511  0  0.957078  0  0  0.117408  0  1.011393  0  0  0.119249  0  1.01323  0  0.081978  0  0.108217  0.116148  0  1.010288  0
H  H38  1  0.17294317  0.24695318  0.21916031  1  0  0.07459  0  0.939664  0  0  0.084909  0  1.00427  0  0  0.086757  0  1.002764  0  0.11195  0  0.114007  0.083633  0  1.005132  0
H  H39  1  0.82705992  0.75305038  0.78084089  1  0  0.074641  0  0.939499  0  0  0.084881  0  1.004216  0  0  0.08674  0  1.002697  0  0.112006  0  0.11398  0.083606  0  1.005078  0
H  H40  1  0.87593380  0.14797784  0.93056080  1  0  0.096767  0  0.941606  0  0  0.098326  0  1.014828  0  0  0.102277  0  1.010103  0  0.133667  0  0.118598  0.095449  0  1.018186  0
H  H41  1  0.12407243  0.85201885  0.06943510  1  0  0.096837  0  0.9416  0  0  0.098352  0  1.014857  0  0  0.102303  0  1.01013  0  0.133624  0  0.118608  0.095476  0  1.01821  0
C  C42  1  0.37552851  0.52356701  0.90054125  1  0  0.124095  0  3.664886  0  0  0.089945  0  3.908968  0  0  0.097424  0  3.928166  0  0.459886  0  0.046898  0.084904  0  3.896416  0
C  C43  1  0.62447239  0.47643165  0.09945770  1  0  0.124083  0  3.664836  0  0  0.089942  0  3.908956  0  0  0.097424  0  3.928149  0  0.460479  0  0.046894  0.084902  0  3.896402  0
C  C44  1  0.49371324  0.56519208  0.85073283  1  0  -0.114682  0  3.750527  0  0  -0.125157  0  4.006647  0  0  -0.132709  0  4.028536  0  -0.054234  0  -0.083536  -0.120348  0  3.991637  0
C  C45  1  0.50628040  0.43480853  0.14926647  1  0  -0.114789  0  3.750621  0  0  -0.125267  0  4.006719  0  0  -0.132825  0  4.028623  0  -0.05364  0  -0.083575  -0.120459  0  3.99171  0
C  C46  1  0.56247309  0.47336580  0.79208373  1  0  -0.04806  0  3.676774  0  0  -0.075578  0  3.923791  0  0  -0.07175  0  3.940301  0  -0.084128  0  -0.062313  -0.077526  0  3.912268  0
C  C47  1  0.43752564  0.52663579  0.20791330  1  0  -0.04808  0  3.676699  0  0  -0.075565  0  3.923688  0  0  -0.071776  0  3.940181  0  -0.084515  0  -0.062346  -0.077513  0  3.912164  0
C  C48  1  0.50892284  0.34069855  0.78290755  1  0  0.004824  0  3.803766  0  0  0.02893  0  4.031598  0  0  0.022025  0  4.056568  0  0.03566  0  -0.003231  0.033032  0  4.015221  0
C  C49  1  0.49107008  0.65930304  0.21708580  1  0  0.004806  0  3.803598  0  0  0.029005  0  4.031363  0  0  0.022101  0  4.056343  0  0.035593  0  -0.003248  0.033107  0  4.014986  0
C  C50  1  0.38753367  0.30728793  0.83258169  1  0  0.091931  0  3.686576  0  0  0.053353  0  3.929396  0  0  0.06034  0  3.948747  0  0.539132  0  0.052756  0.049098  0  3.916036  0
C  C51  1  0.61246167  0.69271170  0.16741297  1  0  0.091893  0  3.686446  0  0  0.0533  0  3.929312  0  0  0.060285  0  3.948661  0  0.53916  0  0.052757  0.049046  0  3.915949  0
C  C52  1  0.57794180  0.24196040  0.72338145  1  0  0.10331  0  3.657131  0  0  0.069828  0  3.912808  0  0  0.078871  0  3.926389  0  0.625962  0  0.076546  0.063585  0  3.903739  0
C  C53  1  0.42205451  0.75804315  0.27661427  1  0  0.103507  0  3.656914  0  0  0.069926  0  3.912657  0  0  0.078962  0  3.926243  0  0.625627  0  0.076639  0.063682  0  3.903589  0
C  C54  1  0.59042134  0.92501098  0.65355655  1  0  0.155914  0  3.703165  0  0  0.147078  0  3.959398  0  0  0.156484  0  3.970912  0  0.655386  0  0.156425  0.140454  0  3.952117  0
C  C55  1  0.40958151  0.07499159  0.34645058  1  0  0.155963  0  3.703205  0  0  0.147112  0  3.95948  0  0  0.156519  0  3.970989  0  0.655626  0  0.156454  0.140489  0  3.952198  0
C  C56  1  0.66484225  0.83874889  0.57565590  1  0  0.016177  0  3.766703  0  0  0.029247  0  4.003226  0  0  0.025674  0  4.028334  0  -0.041105  0  -0.010599  0.031375  0  3.986782  0
C  C57  1  0.33516084  0.16125466  0.42434618  1  0  0.016172  0  3.766619  0  0  0.029224  0  4.003197  0  0  0.025649  0  4.028303  0  -0.041059  0  -0.01062  0.031352  0  3.986752  0
C  C58  1  0.76221322  0.88925099  0.50461252  1  0  -0.086374  0  3.71312  0  0  -0.107933  0  3.959055  0  0  -0.108698  0  3.979539  0  -0.032212  0  -0.082322  -0.107058  0  3.9449  0
C  C59  1  0.23778091  0.11075550  0.49539101  1  0  -0.086388  0  3.712912  0  0  -0.10794  0  3.958928  0  0  -0.10869  0  3.9794  0  -0.032042  0  -0.082291  -0.107069  0  3.944776  0
C  C60  1  0.83056776  0.80748769  0.42851186  1  0  -0.079934  0  3.771524  0  0  -0.0896  0  4.017704  0  0  -0.093247  0  4.040387  0  -0.044366  0  -0.089889  -0.087156  0  4.002422  0
C  C61  1  0.16942856  0.19252370  0.57149215  1  0  -0.079967  0  3.771598  0  0  -0.08962  0  4.017752  0  0  -0.093269  0  4.040436  0  -0.04446  0  -0.089972  -0.087174  0  4.002468  0
C  C62  1  0.80372262  0.67417355  0.42160021  1  0  -0.046375  0  3.735106  0  0  -0.063996  0  3.986604  0  0  -0.065271  0  4.009608  0  -0.03309  0  -0.082672  -0.063287  0  3.971498  0
C  C63  1  0.19627564  0.32583392  0.57839838  1  0  -0.046523  0  3.735205  0  0  -0.064132  0  3.986725  0  0  -0.06541  0  4.009733  0  -0.032981  0  -0.082739  -0.063418  0  3.971616  0
C  C64  1  0.70832324  0.62326568  0.49210005  1  0  -0.079869  0  3.772616  0  0  -0.089063  0  4.016433  0  0  -0.092491  0  4.039896  0  -0.09817  0  -0.093374  -0.086852  0  4.000793  0
C  C65  1  0.29168398  0.37674278  0.50790609  1  0  -0.0798  0  3.772803  0  0  -0.089003  0  4.016598  0  0  -0.092426  0  4.040061  0  -0.098115  0  -0.093341  -0.086793  0  4.000953  0
C  C66  1  0.63935835  0.70488098  0.56880539  1  0  -0.102354  0  3.727231  0  0  -0.11983  0  3.9673  0  0  -0.122471  0  3.990806  0  -0.032451  0  -0.088167  -0.118299  0  3.95177  0
C  C67  1  0.36064135  0.29512061  0.43120229  1  0  -0.102169  0  3.727402  0  0  -0.119626  0  3.967487  0  0  -0.122261  0  3.990993  0  -0.032505  0  -0.088057  -0.118095  0  3.951956  0
C  C68  1  0.49624119  0.87222910  0.73733844  1  0  0.155031  0  3.709798  0  0  0.145312  0  3.966091  0  0  0.155214  0  3.977927  0  0.656618  0  0.15312  0.137979  0  3.958628  0
C  C69  1  0.50375608  0.12777053  0.26266512  1  0  0.15508  0  3.709779  0  0  0.145345  0  3.966123  0  0  0.155246  0  3.977959  0  0.656267  0  0.153148  0.138011  0  3.958663  0
C  C70  1  0.36003423  0.79878807  0.68629820  1  0  0.001067  0  3.801461  0  0  0.017924  0  4.033288  0  0  0.012992  0  4.059601  0  -0.055344  0  -0.016858  0.021266  0  4.016013  0
C  C71  1  0.63996329  0.20121254  0.31370119  1  0  0.001038  0  3.801439  0  0  0.017863  0  4.033309  0  0  0.012932  0  4.059618  0  -0.055309  0  -0.016912  0.021205  0  4.016033  0
C  C72  1  0.27872219  0.72343873  0.75185085  1  0  -0.093953  0  3.740896  0  0  -0.1154  0  3.98632  0  0  -0.117206  0  4.010121  0  -0.03332  0  -0.086561  -0.114694  0  3.970526  0
C  C73  1  0.72127557  0.27656286  0.24814970  1  0  -0.093825  0  3.740902  0  0  -0.115225  0  3.986258  0  0  -0.117025  0  4.010054  0  -0.032904  0  -0.086491  -0.114524  0  3.970476  0
C  C74  1  0.15089548  0.65107585  0.70211624  1  0  -0.076139  0  3.761093  0  0  -0.085266  0  4.005053  0  0  -0.089025  0  4.028025  0  -0.053076  0  -0.092351  -0.082289  0  3.989049  0
C  C75  1  0.84910374  0.34892379  0.29788117  1  0  -0.076217  0  3.761171  0  0  -0.085331  0  4.005127  0  0  -0.089093  0  4.028098  0  -0.053527  0  -0.09234  -0.082355  0  3.989127  0
C  C76  1  0.10113173  0.65535509  0.58722678  1  0  -0.050152  0  3.738692  0  0  -0.063893  0  3.98139  0  0  -0.064856  0  4.003509  0  -0.057414  0  -0.082347  -0.062886  0  3.966416  0
C  C77  1  0.89886894  0.34464259  0.41277014  1  0  -0.050118  0  3.738801  0  0  -0.063839  0  3.98145  0  0  -0.064802  0  4.003571  0  -0.057399  0  -0.082298  -0.062833  0  3.966477  0
C  C78  1  0.17953618  0.73142972  0.52209546  1  0  -0.081357  0  3.764073  0  0  -0.09166  0  4.011124  0  0  -0.095303  0  4.033413  0  -0.055565  0  -0.094976  -0.089131  0  3.995691  0
C  C79  1  0.82046594  0.26856991  0.47790290  1  0  -0.081362  0  3.764053  0  0  -0.091661  0  4.011079  0  0  -0.095308  0  4.033381  0  -0.055613  0  -0.094983  -0.089132  0  3.995646  0
C  C80  1  0.30885717  0.80236652  0.57108337  1  0  -0.105057  0  3.731733  0  0  -0.12625  0  3.982087  0  0  -0.128714  0  4.005228  0  -0.089242  0  -0.091613  -0.12435  0  3.965737  0
C  C81  1  0.69114253  0.19763507  0.42891900  1  0  -0.10506  0  3.731529  0  0  -0.126253  0  3.981892  0  0  -0.128719  0  4.005034  0  -0.089127  0  -0.091628  -0.124351  0  3.96554  0
C  C82  1  0.69485429  0.96783084  0.00605044  1  0  0.096852  0  3.666433  0  0  0.060488  0  3.937834  0  0  0.069459  0  3.949055  0  0.623644  0  0.074201  0.053981  0  3.931394  0
C  C83  1  0.30515121  0.03216684  0.99394659  1  0  0.096929  0  3.66641  0  0  0.060547  0  3.937903  0  0  0.069542  0  3.949082  0  0.623339  0  0.074204  0.054037  0  3.931469  0
C  C84  1  0.82638402  0.04188873  0.06676714  1  0  -0.001765  0  3.801788  0  0  0.023177  0  4.030959  0  0  0.016309  0  4.055925  0  0.02999  0  -0.003413  0.027065  0  4.014484  0
C  C85  1  0.17362270  0.95810992  0.93323107  1  0  -0.001664  0  3.801763  0  0  0.023311  0  4.030871  0  0  0.016444  0  4.055842  0  0.030137  0  -0.003367  0.027198  0  4.014395  0
C  C86  1  0.87289076  0.02827965  0.17924366  1  0  -0.044246  0  3.690299  0  0  -0.072087  0  3.936983  0  0  -0.068728  0  3.955337  0  -0.123936  0  -0.059855  -0.073925  0  3.924595  0
C  C87  1  0.12711596  0.97171901  0.82075278  1  0  -0.044387  0  3.690133  0  0  -0.072154  0  3.936803  0  0  -0.068795  0  3.955159  0  -0.123703  0  -0.059865  -0.073992  0  3.924415  0
C  C88  1  0.99905395  0.10066214  0.23437614  1  0  -0.10174  0  3.73526  0  0  -0.110212  0  3.979862  0  0  -0.117462  0  4.00273  0  0.128948  0  -0.077069  -0.105912  0  3.964872  0
C  C89  1  0.00095035  0.89933848  0.76562342  1  0  -0.101781  0  3.735337  0  0  -0.110177  0  3.979865  0  0  -0.117423  0  4.002731  0  0.1291  0  -0.077093  -0.105877  0  3.964876  0
C  C90  1  0.07456756  0.18711241  0.17774410  1  0  0.132402  0  3.685592  0  0  0.09499  0  3.939951  0  0  0.102982  0  3.958454  0  0.442448  0  0.049782  0.090847  0  3.926711  0
C  C91  1  0.92543577  0.81288820  0.82225455  1  0  0.132451  0  3.685601  0  0  0.095056  0  3.939955  0  0  0.103039  0  3.958455  0  0.442452  0  0.049855  0.090914  0  3.926714  0
C  C92  1  0.90909030  0.13135780  0.01595925  1  0  0.106727  0  3.623953  0  0  0.067426  0  3.866242  0  0  0.074867  0  3.884262  0  0.492442  0  0.057969  0.062999  0  3.853614  0
C  C93  1  0.09091449  0.86864085  0.98403714  1  0  0.106505  0  3.624138  0  0  0.067226  0  3.866382  0  0  0.074663  0  3.884412  0  0.492504  0  0.057917  0.062803  0  3.853749  0
N  N94  1  0.32297716  0.39614050  0.89128560  1  0  -0.290756  0  3.376872  0  0  -0.198975  0  3.653867  0  0  -0.219048  0  3.672191  0  -1.21371  0  -0.345502  -0.185532  0  3.641265  0
N  N95  1  0.67701866  0.60385717  0.10871386  1  0  -0.29059  0  3.37672  0  0  -0.198843  0  3.653745  0  0  -0.218916  0  3.672071  0  -1.214111  0  -0.345448  -0.1854  0  3.641143  0
N  N96  1  0.53005657  0.11853478  0.71189161  1  0  -0.197505  0  3.039893  0  0  -0.169447  0  3.331377  0  0  -0.180171  0  3.349069  0  -0.767221  0  -0.210273  -0.162088  0  3.319344  0
N  N97  1  0.46994023  0.88147073  0.28810554  1  0  -0.197793  0  3.0398  0  0  -0.169713  0  3.331334  0  0  -0.180436  0  3.349025  0  -0.767596  0  -0.210384  -0.162354  0  3.319305  0
N  N98  1  0.60774017  0.04312663  0.64419705  1  0  -0.214404  0  3.058072  0  0  -0.186476  0  3.34333  0  0  -0.196515  0  3.35905  0  -0.743297  0  -0.1958  -0.179356  0  3.332636  0
N  N99  1  0.39225614  0.95687692  0.35580399  1  0  -0.214277  0  3.05812  0  0  -0.186315  0  3.343328  0  0  -0.196357  0  3.359057  0  -0.742643  0  -0.195746  -0.179196  0  3.332636  0
N  N100  1  0.53301867  0.88493745  0.85221018  1  0  -0.246215  0  3.043691  0  0  -0.21851  0  3.332901  0  0  -0.228282  0  3.347658  0  -0.762553  0  -0.210622  -0.210684  0  3.322524  0
N  N101  1  0.46698442  0.11505827  0.14779070  1  0  -0.246237  0  3.043741  0  0  -0.218501  0  3.332929  0  0  -0.228278  0  3.347687  0  -0.762507  0  -0.210615  -0.210676  0  3.322557  0
N  N102  1  0.66379310  0.95525481  0.89074428  1  0  -0.19732  0  3.052544  0  0  -0.169434  0  3.343505  0  0  -0.179172  0  3.360899  0  -0.76779  0  -0.211971  -0.16358  0  3.332129  0
N  N103  1  0.33621096  0.04474483  0.10925590  1  0  -0.197405  0  3.052571  0  0  -0.169505  0  3.343524  0  0  -0.17924  0  3.360913  0  -0.767805  0  -0.212003  -0.163652  0  3.332148  0
N  N104  1  0.02994868  0.20271998  0.07071519  1  0  -0.2963  0  3.380767  0  0  -0.205788  0  3.664647  0  0  -0.226014  0  3.682483  0  -1.198755  0  -0.345088  -0.19223  0  3.651504  0
N  N105  1  0.97005538  0.79727965  0.92928234  1  0  -0.296315  0  3.380974  0  0  -0.205727  0  3.664744  0  0  -0.225954  0  3.682586  0  -1.198966  0  -0.345095  -0.19217  0  3.651599  0
N  N106  1  0.90222567  0.39802333  0.84160006  1  0  0.688349  0  4.163634  0  0  0.72145  0  4.455658  0  0  0.747288  0  4.462676  0  0.820162  0  0.08718  0.702176  0  4.450549  0
N  N107  1  0.09777354  0.60197631  0.15839734  1  0  0.688303  0  4.163704  0  0  0.721357  0  4.45579  0  0  0.747209  0  4.462805  0  0.819937  0  0.087112  0.702082  0  4.450681  0
O  O108  1  0.86173577  0.41300165  0.94908557  1  0  -0.489452  0  1.767146  0  0  -0.473276  0  1.999427  0  0  -0.489023  0  1.99081  0  -0.572354  0  -0.214456  -0.461746  0  2.005198  0
O  O109  1  0.13826272  0.58699896  0.05091207  1  0  -0.489397  0  1.767223  0  0  -0.473223  0  1.999481  0  0  -0.488978  0  1.990866  0  -0.572209  0  -0.214426  -0.461692  0  2.005251  0
O  O110  1  0.96682050  0.31155541  0.80040611  1  0  -0.487252  0  1.740487  0  0  -0.470525  0  1.970427  0  0  -0.484182  0  1.959476  0  -0.555183  0  -0.213126  -0.459818  0  1.977211  0
O  O111  1  0.03317847  0.68844324  0.19959280  1  0  -0.487275  0  1.74053  0  0  -0.470524  0  1.970461  0  0  -0.48418  0  1.959506  0  -0.555165  0  -0.213123  -0.459817  0  1.977249  0
O  O112  1  0.87855251  0.46924632  0.77611262  1  0  -0.489484  0  1.741226  0  0  -0.47733  0  1.959988  0  0  -0.491113  0  1.952527  0  -0.558867  0  -0.204879  -0.466851  0  1.964768  0
O  O113  1  0.12144646  0.53075233  0.22388452  1  0  -0.489472  0  1.74118  0  0  -0.477267  0  1.959951  0  0  -0.491062  0  1.952498  0  -0.558823  0  -0.204851  -0.466791  0  1.96473  0
