# generated using pymatgen
data_Na2H6C12O13
_symmetry_space_group_name_H-M   'P 1'
_cell_length_a   6.65676854
_cell_length_b   10.32481165
_cell_length_c   11.27831043
_cell_angle_alpha   97.32348225
_cell_angle_beta   89.99944545
_cell_angle_gamma   108.81702423
_symmetry_Int_Tables_number   1
_chemical_formula_structural   Na2H6C12O13
_chemical_formula_sum   'Na4 H12 C24 O26'
_cell_volume   727.04405588
_cell_formula_units_Z   2
loop_
 _symmetry_equiv_pos_site_id
 _symmetry_equiv_pos_as_xyz
  1  'x, y, z'
loop_
 _atom_site_type_symbol
 _atom_site_label
 _atom_site_symmetry_multiplicity
 _atom_site_fract_x
 _atom_site_fract_y
 _atom_site_fract_z
 _atom_site_occupancy
 _atom_site_hle17_bader_spin_density
 _atom_site_hle17_ddec_charge
 _atom_site_hle17_ddec_spin_density
 _atom_site_hle17_ddec_sum_bond_order
 _atom_site_hle17_magmom
 _atom_site_hse06_10hf_bader_spin_density
 _atom_site_hse06_10hf_ddec_charge
 _atom_site_hse06_10hf_ddec_spin_density
 _atom_site_hse06_10hf_ddec_sum_bond_order
 _atom_site_hse06_10hf_magmom
 _atom_site_hse06_bader_spin_density
 _atom_site_hse06_ddec_charge
 _atom_site_hse06_ddec_spin_density
 _atom_site_hse06_ddec_sum_bond_order
 _atom_site_hse06_magmom
 _atom_site_pbe_bader_spin_density
 _atom_site_pbe_cm5_charge
 _atom_site_pbe_ddec_charge
 _atom_site_pbe_ddec_spin_density
 _atom_site_pbe_ddec_sum_bond_order
 _atom_site_pbe_magmom
Na  Na0  1  0.45054478  0.10882802  0.62546702  1  0  0.909797  0  0.360797  0  0  0.865597  0  0.513236  0  0  0.876936  0  0.489807  0  0  0.682597  0.85664  0  0.530686  0
Na  Na1  1  0.34184472  0.89117162  0.87467084  1  0  0.909533  0  0.361058  0  0  0.865184  0  0.513729  0  0  0.876582  0  0.49023  0  0  0.682543  0.856839  0  0.53033  0
Na  Na2  1  0.54945587  0.89117233  0.37453459  1  0  0.909798  0  0.360805  0  0  0.865596  0  0.513258  0  0  0.876941  0  0.489807  0  0  0.68261  0.856635  0  0.530704  0
Na  Na3  1  0.65815791  0.10882667  0.12533054  1  0  0.909548  0  0.361055  0  0  0.865185  0  0.513756  0  0  0.876588  0  0.490238  0  0  0.682545  0.85684  0  0.530356  0
H  H4  1  0.63509290  0.59681835  0.70745837  1  0  0.402478  0  0.891346  0  0  0.368116  0  0.97367  0  0  0.380843  0  0.960678  0  0  0.30413  0.359177  0  0.982709  0
H  H5  1  0.03862180  0.40361360  0.79256835  1  0  0.402624  0  0.890611  0  0  0.368308  0  0.972822  0  0  0.380915  0  0.960065  0  0  0.304882  0.35948  0  0.981655  0
H  H6  1  0.36490417  0.40317783  0.29253834  1  0  0.402542  0  0.891289  0  0  0.368154  0  0.973689  0  0  0.380879  0  0.960699  0  0  0.304218  0.35922  0  0.982714  0
H  H7  1  0.96138438  0.59638879  0.20742994  1  0  0.402631  0  0.890601  0  0  0.368343  0  0.972776  0  0  0.38095  0  0.960018  0  0  0.304889  0.359512  0  0.981606  0
H  H8  1  0.79139121  0.77273741  0.22049633  1  0  0.397935  0  0.913648  0  0  0.36215  0  0.996147  0  0  0.375554  0  0.977461  0  0  0.30033  0.352758  0  1.007576  0
H  H9  1  0.01843547  0.22685411  0.27955052  1  0  0.398546  0  0.913037  0  0  0.362309  0  0.995896  0  0  0.375724  0  0.977221  0  0  0.300565  0.352934  0  1.007602  0
H  H10  1  0.20860743  0.22726192  0.77950783  1  0  0.397929  0  0.913676  0  0  0.362142  0  0.996165  0  0  0.375546  0  0.977478  0  0  0.300345  0.352746  0  1.007614  0
H  H11  1  0.98156263  0.77314415  0.72044731  1  0  0.398564  0  0.91304  0  0  0.362358  0  0.995831  0  0  0.375775  0  0.977154  0  0  0.300571  0.352984  0  1.00755  0
H  H12  1  0.69538316  0.92665752  0.71373299  1  0  0.444564  0  0.808239  0  0  0.426474  0  0.860781  0  0  0.43444  0  0.849059  0  0  0.331982  0.420764  0  0.869225  0
H  H13  1  0.76884986  0.07359946  0.78634227  1  0  0.443165  0  0.810096  0  0  0.425106  0  0.86259  0  0  0.433059  0  0.850907  0  0  0.331447  0.41941  0  0.871002  0
H  H14  1  0.30461600  0.07334283  0.28626951  1  0  0.44458  0  0.808225  0  0  0.426496  0  0.860749  0  0  0.434465  0  0.849022  0  0  0.332001  0.420786  0  0.869194  0
H  H15  1  0.23114629  0.92640090  0.21366022  1  0  0.443185  0  0.810029  0  0  0.425127  0  0.862558  0  0  0.433079  0  0.850876  0  0  0.331443  0.419431  0  0.87097  0
C  C16  1  0.16947732  0.79677297  0.58065977  1  0  0.700123  0  3.823467  0  0  0.64995  0  4.126028  0  0  0.681944  0  4.117197  0  0  0.245722  0.628237  0  4.131413  0
C  C17  1  0.37297179  0.20333321  0.91911288  1  0  0.700315  0  3.823446  0  0  0.651348  0  4.124471  0  0  0.683196  0  4.115862  0  0  0.2455  0.629518  0  4.130218  0
C  C18  1  0.83052229  0.20322530  0.41933984  1  0  0.700079  0  3.823566  0  0  0.649835  0  4.126231  0  0  0.681828  0  4.117398  0  0  0.245697  0.62813  0  4.131603  0
C  C19  1  0.62703036  0.79666713  0.08088785  1  0  0.70024  0  3.823634  0  0  0.651373  0  4.124488  0  0  0.68321  0  4.115897  0  0  0.245479  0.629543  0  4.130234  0
C  C20  1  0.07930341  0.64260484  0.54087317  1  0  -0.064673  0  3.66113  0  0  -0.061767  0  3.901904  0  0  -0.063554  0  3.91857  0  0  0.011544  -0.060597  0  3.89103  0
C  C21  1  0.43689794  0.35743369  0.95904628  1  0  -0.063162  0  3.659127  0  0  -0.061002  0  3.901322  0  0  -0.062803  0  3.917979  0  0  0.011347  -0.05998  0  3.890587  0
C  C22  1  0.92069573  0.35739550  0.45912667  1  0  -0.064587  0  3.661312  0  0  -0.061662  0  3.902117  0  0  -0.063434  0  3.918772  0  0  0.011594  -0.060486  0  3.891232  0
C  C23  1  0.56310975  0.64256872  0.04095467  1  0  -0.063079  0  3.659247  0  0  -0.060913  0  3.901375  0  0  -0.062719  0  3.918051  0  0  0.011392  -0.059888  0  3.890626  0
C  C24  1  0.17112034  0.55150176  0.58347237  1  0  -0.056876  0  3.665144  0  0  -0.058101  0  3.909801  0  0  -0.060632  0  3.925948  0  0  0.007596  -0.056989  0  3.89966  0
C  C25  1  0.61966342  0.44869942  0.91644057  1  0  -0.056481  0  3.664757  0  0  -0.05819  0  3.91106  0  0  -0.060683  0  3.9271  0  0  0.007338  -0.056651  0  3.900597  0
C  C26  1  0.82887476  0.44849650  0.41652635  1  0  -0.056904  0  3.665117  0  0  -0.058187  0  3.909824  0  0  -0.060728  0  3.925965  0  0  0.007523  -0.057073  0  3.899685  0
C  C27  1  0.38034271  0.55129988  0.08355827  1  0  -0.056466  0  3.664851  0  0  -0.058228  0  3.911148  0  0  -0.060721  0  3.927191  0  0  0.00732  -0.056681  0  3.900667  0
C  C28  1  0.36230873  0.60996713  0.66749055  1  0  0.679488  0  3.805358  0  0  0.630026  0  4.104682  0  0  0.663019  0  4.094487  0  0  0.241232  0.607506  0  4.111394  0
C  C29  1  0.75253599  0.39037187  0.83240321  1  0  0.676328  0  3.807899  0  0  0.626958  0  4.108044  0  0  0.659922  0  4.097907  0  0  0.240409  0.604423  0  4.114681  0
C  C30  1  0.63768435  0.39003010  0.33250805  1  0  0.679309  0  3.805694  0  0  0.630037  0  4.104832  0  0  0.663037  0  4.094626  0  0  0.241237  0.607504  0  4.111559  0
C  C31  1  0.24746967  0.60962950  0.16759674  1  0  0.676081  0  3.808239  0  0  0.626823  0  4.108256  0  0  0.65979  0  4.098119  0  0  0.240351  0.604297  0  4.114871  0
C  C32  1  0.90986481  0.59125852  0.45552635  1  0  -0.043149  0  3.647556  0  0  -0.044496  0  3.894418  0  0  -0.045876  0  3.910146  0  0  0.009457  -0.043688  0  3.884301  0
C  C33  1  0.31872736  0.40857476  0.04449849  1  0  -0.044821  0  3.64576  0  0  -0.045775  0  3.893702  0  0  -0.047061  0  3.9092  0  0  0.009728  -0.045245  0  3.883744  0
C  C34  1  0.09013231  0.40874078  0.54447337  1  0  -0.043335  0  3.647831  0  0  -0.044652  0  3.894609  0  0  -0.046041  0  3.910352  0  0  0.009452  -0.043843  0  3.88448  0
C  C35  1  0.68127681  0.59142662  0.95550324  1  0  -0.04495  0  3.645738  0  0  -0.045915  0  3.893625  0  0  -0.047198  0  3.909123  0  0  0.009704  -0.045379  0  3.883655  0
C  C36  1  0.83016999  0.69074861  0.39738090  1  0  0.684866  0  3.868561  0  0  0.629189  0  4.179105  0  0  0.662375  0  4.169156  0  0  0.224981  0.606641  0  4.185276  0
C  C37  1  0.13953087  0.30887456  0.10251390  1  0  0.687678  0  3.863719  0  0  0.631793  0  4.17459  0  0  0.665008  0  4.16455  0  0  0.225766  0.609165  0  4.180929  0
C  C38  1  0.16982667  0.30925278  0.60262172  1  0  0.684815  0  3.868286  0  0  0.6291  0  4.17891  0  0  0.662278  0  4.168973  0  0  0.224975  0.606556  0  4.185076  0
C  C39  1  0.86047589  0.69113198  0.89748840  1  0  0.687716  0  3.86386  0  0  0.63189  0  4.174667  0  0  0.665104  0  4.164621  0  0  0.22577  0.60927  0  4.180993  0
O  O40  1  0.30957200  0.87159391  0.52436456  1  0  -0.636979  0  1.944889  0  0  -0.600976  0  2.179769  0  0  -0.620597  0  2.167668  0  0  -0.384576  -0.587042  0  2.187889  0
O  O41  1  0.43832455  0.12845400  0.97526717  1  0  -0.637808  0  1.945496  0  0  -0.60179  0  2.179702  0  0  -0.621416  0  2.167649  0  0  -0.384827  -0.588097  0  2.187442  0
O  O42  1  0.69042865  0.12840643  0.47563438  1  0  -0.636914  0  1.944924  0  0  -0.600881  0  2.179831  0  0  -0.620501  0  2.167733  0  0  -0.384532  -0.586956  0  2.187951  0
O  O43  1  0.56167963  0.87154739  0.02473455  1  0  -0.637861  0  1.945578  0  0  -0.601869  0  2.17971  0  0  -0.621487  0  2.167658  0  0  -0.384885  -0.588183  0  2.187457  0
O  O44  1  0.09361941  0.84952705  0.67544941  1  0  -0.588447  0  2.120999  0  0  -0.544507  0  2.351947  0  0  -0.565256  0  2.331458  0  0  -0.335527  -0.530024  0  2.364769  0
O  O45  1  0.24423644  0.15072031  0.82436253  1  0  -0.587976  0  2.121013  0  0  -0.544428  0  2.351207  0  0  -0.565157  0  2.330831  0  0  -0.334998  -0.530133  0  2.364158  0
O  O46  1  0.90638071  0.15047225  0.32454853  1  0  -0.588417  0  2.12105  0  0  -0.54444  0  2.352053  0  0  -0.565201  0  2.331591  0  0  -0.335531  -0.529957  0  2.36486  0
O  O47  1  0.75576422  0.84928005  0.17564085  1  0  -0.587917  0  2.121032  0  0  -0.544404  0  2.351178  0  0  -0.56513  0  2.330805  0  0  -0.334933  -0.530111  0  2.364115  0
O  O48  1  0.38260869  0.71001870  0.74481056  1  0  -0.612297  0  1.959336  0  0  -0.576426  0  2.194358  0  0  -0.595868  0  2.184245  0  0  -0.352062  -0.563082  0  2.201212  0
O  O49  1  0.67291667  0.29032470  0.75506611  1  0  -0.610584  0  1.960703  0  0  -0.574691  0  2.195559  0  0  -0.594125  0  2.185595  0  0  -0.351202  -0.56109  0  2.202262  0
O  O50  1  0.61739247  0.28998267  0.25519028  1  0  -0.612331  0  1.959589  0  0  -0.57646  0  2.194517  0  0  -0.595901  0  2.184396  0  0  -0.352074  -0.563114  0  2.201375  0
O  O51  1  0.32708801  0.70967770  0.24493395  1  0  -0.610537  0  1.960875  0  0  -0.574657  0  2.195672  0  0  -0.594091  0  2.185702  0  0  -0.35119  -0.561061  0  2.202366  0
O  O52  1  0.50590178  0.54758690  0.64821036  1  0  -0.528536  0  2.110036  0  0  -0.479257  0  2.332386  0  0  -0.502881  0  2.321061  0  0  -0.312336  -0.462873  0  2.339857  0
O  O53  1  0.95854129  0.45281074  0.85176619  1  0  -0.527641  0  2.108851  0  0  -0.478425  0  2.331656  0  0  -0.501958  0  2.32043  0  0  -0.312992  -0.462117  0  2.339089  0
O  O54  1  0.49409332  0.45241136  0.35178747  1  0  -0.528316  0  2.109912  0  0  -0.479268  0  2.332447  0  0  -0.502895  0  2.321118  0  0  -0.312391  -0.462883  0  2.339911  0
O  O55  1  0.04146541  0.54719269  0.14823311  1  0  -0.527495  0  2.10888  0  0  -0.478385  0  2.331699  0  0  -0.501919  0  2.320472  0  0  -0.312974  -0.462084  0  2.339129  0
O  O56  1  0.76695036  0.77797139  0.45786768  1  0  -0.6138  0  1.872226  0  0  -0.574805  0  2.087689  0  0  -0.593885  0  2.076242  0  0  -0.352388  -0.561306  0  2.09512  0
O  O57  1  0.98917930  0.22166212  0.04191189  1  0  -0.614523  0  1.869157  0  0  -0.575777  0  2.085059  0  0  -0.594915  0  2.073627  0  0  -0.352676  -0.562388  0  2.092759  0
O  O58  1  0.23304672  0.22202483  0.54213258  1  0  -0.61381  0  1.872041  0  0  -0.574812  0  2.087512  0  0  -0.59389  0  2.076073  0  0  -0.352437  -0.561312  0  2.094942  0
O  O59  1  0.01081133  0.77833921  0.95808274  1  0  -0.614444  0  1.869517  0  0  -0.575714  0  2.085389  0  0  -0.594853  0  2.073958  0  0  -0.352638  -0.562336  0  2.093086  0
O  O60  1  0.84311654  0.67795507  0.28145573  1  0  -0.639094  0  2.113053  0  0  -0.573837  0  2.339761  0  0  -0.601793  0  2.328956  0  0  -0.306313  -0.554095  0  2.346093  0
O  O61  1  0.16515598  0.32151570  0.21843175  1  0  -0.641085  0  2.110967  0  0  -0.575088  0  2.337728  0  0  -0.603176  0  2.326834  0  0  -0.30683  -0.555347  0  2.344326  0
O  O62  1  0.15688209  0.32204424  0.71854488  1  0  -0.638982  0  2.113023  0  0  -0.573714  0  2.339752  0  0  -0.601667  0  2.328957  0  0  -0.306285  -0.553973  0  2.346094  0
O  O63  1  0.83484513  0.67848256  0.78156609  1  0  -0.641071  0  2.110795  0  0  -0.575209  0  2.337593  0  0  -0.603298  0  2.32669  0  0  -0.306848  -0.555472  0  2.344197  0
O  O64  1  0.64378451  0.00010363  0.75004513  1  0  -0.869531  0  1.759075  0  0  -0.8331  0  1.924648  0  0  -0.847806  0  1.89603  0  0  -0.632378  -0.822675  0  1.944903  0
O  O65  1  0.35621314  0.99989672  0.24995737  1  0  -0.869579  0  1.759  0  0  -0.833161  0  1.924571  0  0  -0.84787  0  1.895942  0  0  -0.632388  -0.822736  0  1.944824  0
