# generated using pymatgen
data_ZnH11C17N2ClO4
_symmetry_space_group_name_H-M   'P 1'
_cell_length_a   7.58738393
_cell_length_b   11.54437061
_cell_length_c   24.40081652
_cell_angle_alpha   99.58802589
_cell_angle_beta   90.03079472
_cell_angle_gamma   109.17753763
_symmetry_Int_Tables_number   1
_chemical_formula_structural   ZnH11C17N2ClO4
_chemical_formula_sum   'Zn4 H44 C68 N8 Cl4 O16'
_cell_volume   1986.99097778
_cell_formula_units_Z   4
loop_
 _symmetry_equiv_pos_site_id
 _symmetry_equiv_pos_as_xyz
  1  'x, y, z'
loop_
 _atom_site_type_symbol
 _atom_site_label
 _atom_site_symmetry_multiplicity
 _atom_site_fract_x
 _atom_site_fract_y
 _atom_site_fract_z
 _atom_site_occupancy
 _atom_site_pbe_bader_charge
 _atom_site_pbe_bader_spin_density
 _atom_site_pbe_cm5_charge
 _atom_site_pbe_ddec_charge
 _atom_site_pbe_ddec_spin_density
 _atom_site_pbe_ddec_sum_bond_order
 _atom_site_pbe_magmom
Zn  Zn0  1  0.69463101  0.73277453  0.37060287  1  1.256296  0  0.606571  0.854342  0  2.436072  0
Zn  Zn1  1  0.96175437  0.26725475  0.12931210  1  1.258688  0  0.606693  0.854303  0  2.435847  0
Zn  Zn2  1  0.30536756  0.26722858  0.62939614  1  1.256278  0  0.606555  0.854243  0  2.436012  0
Zn  Zn3  1  0.03824791  0.73273997  0.87068621  1  1.258514  0  0.606707  0.854326  0  2.435782  0
H  H4  1  0.63960594  0.37872764  0.42809054  1  0.129265  0  0.112549  0.122953  0  1.004453  0
H  H5  1  0.26007623  0.62126277  0.07180066  1  0.091272  0  0.112618  0.123403  0  1.004389  0
H  H6  1  0.36040015  0.62127732  0.57190902  1  0.129559  0  0.112536  0.122925  0  1.004462  0
H  H7  1  0.73992420  0.37874406  0.92819824  1  0.091267  0  0.112609  0.12339  0  1.004403  0
H  H8  1  0.82782719  0.67081861  0.57053747  1  0.105432  0  0.113833  0.123729  0  1.003706  0
H  H9  1  0.15781593  0.32921876  0.92940485  1  0.101189  0  0.113747  0.124023  0  1.004382  0
H  H10  1  0.17216825  0.32918350  0.42946473  1  0.105328  0  0.11381  0.123683  0  1.00381  0
H  H11  1  0.84218695  0.67078243  0.07059645  1  0.101161  0  0.113738  0.124036  0  1.004362  0
H  H12  1  0.81321320  0.29797102  0.58240509  1  0.168564  0  0.112959  0.14572  0  1.018427  0
H  H13  1  0.51612460  0.70215386  0.91776900  1  0.165596  0  0.11291  0.145919  0  1.018625  0
H  H14  1  0.18680164  0.70203300  0.41759521  1  0.168931  0  0.11295  0.145744  0  1.018342  0
H  H15  1  0.48386769  0.29784462  0.08222798  1  0.165572  0  0.1129  0.145933  0  1.018579  0
H  H16  1  0.68359028  0.60256038  0.65983400  1  0.129681  0  0.133103  0.116599  0  0.967895  0
H  H17  1  0.08171391  0.39739609  0.84023056  1  0.126751  0  0.133204  0.116654  0  0.967626  0
H  H18  1  0.31642075  0.39744919  0.34016840  1  0.129678  0  0.133076  0.116525  0  0.967951  0
H  H19  1  0.91828261  0.60259763  0.15977136  1  0.126655  0  0.133242  0.116718  0  0.967568  0
H  H20  1  0.26786468  0.54863754  0.71948455  1  0.099556  0  0.113311  0.141276  0  0.998732  0
H  H21  1  0.71969234  0.45150806  0.78061071  1  0.079539  0  0.113667  0.141859  0  0.998875  0
H  H22  1  0.73213713  0.45135625  0.28051328  1  0.099554  0  0.113328  0.141281  0  0.998792  0
H  H23  1  0.28030073  0.54848668  0.21938679  1  0.079511  0  0.113696  0.141935  0  0.998963  0
H  H24  1  0.12691045  0.46968053  0.62309273  1  0.172767  0  0.118605  0.09965  0  1.069143  0
H  H25  1  0.65802964  0.53035107  0.87698911  1  0.17379  0  0.118582  0.099976  0  1.068701  0
H  H26  1  0.87308626  0.53031884  0.37690596  1  0.173011  0  0.118602  0.099678  0  1.069115  0
H  H27  1  0.34197047  0.46964457  0.12300969  1  0.173744  0  0.118561  0.099941  0  1.068706  0
H  H28  1  0.94263120  0.19096985  0.49800600  1  0.187953  0  0.120798  0.111756  0  1.04507  0
H  H29  1  0.75166126  0.80926326  0.00227896  1  0.182386  0  0.121256  0.112049  0  1.04561  0
H  H30  1  0.05737706  0.80903420  0.50199267  1  0.187992  0  0.120826  0.111817  0  1.045015  0
H  H31  1  0.24833639  0.19073802  0.99771743  1  0.182404  0  0.121236  0.112031  0  1.045513  0
H  H32  1  0.40788132  0.18850229  0.45431613  1  0.161263  0  0.125061  0.118199  0  1.023832  0
H  H33  1  0.21913904  0.81160141  0.04566257  1  0.147658  0  0.125132  0.118427  0  1.02491  0
H  H34  1  0.59211987  0.81150080  0.54568369  1  0.161371  0  0.125054  0.118204  0  1.023921  0
H  H35  1  0.78085626  0.18839515  0.95433712  1  0.147703  0  0.125099  0.118392  0  1.024924  0
H  H36  1  0.87364156  0.97281387  0.44880294  1  0.134065  0  0.108862  0.141486  0  1.012789  0
H  H37  1  0.90053127  0.02742261  0.05152102  1  0.149384  0  0.108685  0.141558  0  1.012121  0
H  H38  1  0.12635831  0.02718922  0.55119729  1  0.134059  0  0.108842  0.14147  0  1.012764  0
H  H39  1  0.09945980  0.97257868  0.94847496  1  0.149367  0  0.108696  0.141547  0  1.012129  0
H  H40  1  0.31991492  0.96983182  0.40162687  1  0.133051  0  0.10113  0.147624  0  1.023497  0
H  H41  1  0.34959910  0.03017840  0.09839486  1  0.137693  0  0.101495  0.148542  0  1.022751  0
H  H42  1  0.68009200  0.03017218  0.59837385  1  0.133669  0  0.101117  0.147613  0  1.023529  0
H  H43  1  0.65039740  0.96981531  0.90160787  1  0.13777  0  0.101479  0.148576  0  1.022639  0
H  H44  1  0.80904340  0.68880724  0.75886689  1  0.139706  0  0.103119  0.137488  0  1.032919  0
H  H45  1  0.12072175  0.31137032  0.74118717  1  0.140982  0  0.103175  0.137105  0  1.03388  0
H  H46  1  0.19097469  0.31120328  0.24113477  1  0.139702  0  0.103162  0.137591  0  1.03282  0
H  H47  1  0.87926652  0.68861219  0.25881546  1  0.141016  0  0.103252  0.137188  0  1.033845  0
C  C48  1  0.69147147  0.40933242  0.47154048  1  -0.010377  0  -0.080166  -0.182424  0  3.94143  0
C  C49  1  0.28187431  0.59071172  0.02839457  1  0.043912  0  -0.08103  -0.184055  0  3.942572  0
C  C50  1  0.30853771  0.59067345  0.52846039  1  -0.010247  0  -0.080188  -0.182405  0  3.941416  0
C  C51  1  0.71811984  0.40929046  0.97160394  1  0.043808  0  -0.080916  -0.183958  0  3.942711  0
C  C52  1  0.72898339  0.53381821  0.49624999  1  -0.047545  0  -0.015431  -0.003168  0  3.992826  0
C  C53  1  0.19526217  0.46617790  0.00367696  1  -0.017639  0  -0.014632  -0.001456  0  3.989739  0
C  C54  1  0.27102219  0.46618575  0.50375318  1  -0.04811  0  -0.015424  -0.003195  0  3.992802  0
C  C55  1  0.80473330  0.53382428  0.99632156  1  -0.017905  0  -0.014597  -0.001363  0  3.989493  0
C  C56  1  0.72333765  0.32586440  0.50242799  1  0.276375  0  0.099513  0.1793  0  3.985826  0
C  C57  1  0.39753523  0.67422820  0.99760409  1  0.267944  0  0.099437  0.17831  0  3.987083  0
C  C58  1  0.27666843  0.67414054  0.49757280  1  0.276309  0  0.099523  0.179352  0  3.985794  0
C  C59  1  0.60246025  0.32577401  0.00239279  1  0.268088  0  0.099322  0.178203  0  3.987434  0
C  C60  1  0.79614107  0.57314934  0.55187465  1  0.010528  0  -0.080596  -0.184011  0  3.953676  0
C  C61  1  0.22350239  0.42688893  0.94810709  1  -0.043389  0  -0.080783  -0.185771  0  3.955755  0
C  C62  1  0.20386057  0.42685465  0.44812729  1  0.01053  0  -0.080515  -0.183852  0  3.953624  0
C  C63  1  0.77649392  0.57311230  0.05189257  1  -0.043321  0  -0.08079  -0.185844  0  3.95571  0
C  C64  1  0.71034767  0.62931558  0.46350753  1  1.579268  0  0.198608  0.548351  0  4.241532  0
C  C65  1  0.08093226  0.37060393  0.03632440  1  1.577451  0  0.198544  0.549046  0  4.240796  0
C  C66  1  0.28965217  0.37068744  0.53649638  1  1.579726  0  0.198505  0.548126  0  4.241461  0
C  C67  1  0.91907111  0.62939825  0.96367412  1  1.577979  0  0.198486  0.548946  0  4.240756  0
C  C68  1  0.82721610  0.48854313  0.58188471  1  0.249038  0  0.098707  0.179679  0  3.997157  0
C  C69  1  0.33935388  0.51155507  0.91817997  1  0.276004  0  0.09859  0.179792  0  3.997765  0
C  C70  1  0.17278602  0.51146181  0.41811608  1  0.249394  0  0.098645  0.179652  0  3.997289  0
C  C71  1  0.66064235  0.48844338  0.08181865  1  0.276008  0  0.098545  0.179778  0  3.997655  0
C  C72  1  0.58999952  0.95117560  0.41974423  1  0.766413  0  0.115686  0.404845  0  4.114504  0
C  C73  1  0.63842119  0.04894763  0.08040744  1  0.71717  0  0.11587  0.404432  0  4.118429  0
C  C74  1  0.41000476  0.04882840  0.58025689  1  0.766107  0  0.115656  0.404861  0  4.114611  0
C  C75  1  0.36157596  0.95105265  0.91959338  1  0.716917  0  0.11585  0.404422  0  4.118435  0
C  C76  1  0.79262686  0.36397319  0.55789516  1  0.080376  0  -0.070319  -0.207642  0  3.871725  0
C  C77  1  0.42936113  0.63611642  0.94220875  1  0.07668  0  -0.070309  -0.207224  0  3.872553  0
C  C78  1  0.20737790  0.63603175  0.44210522  1  0.080019  0  -0.070277  -0.207682  0  3.87172  0
C  C79  1  0.57063163  0.36388299  0.05778790  1  0.076619  0  -0.070255  -0.207196  0  3.872567  0
C  C80  1  0.81252201  0.59508605  0.67591230  1  0.3404  0  0.052786  0.062739  0  3.899067  0
C  C81  1  0.21808590  0.40497623  0.82412932  1  0.355492  0  0.052818  0.062544  0  3.897582  0
C  C82  1  0.18748717  0.40491982  0.32408816  1  0.340397  0  0.052822  0.062869  0  3.899005  0
C  C83  1  0.78190875  0.59501378  0.17587147  1  0.355827  0  0.052818  0.062525  0  3.897589  0
C  C84  1  0.13737512  0.56070462  0.70804555  1  0.052402  0  -0.099786  -0.249422  0  3.938927  0
C  C85  1  0.57717679  0.43942664  0.79202379  1  0.049291  0  -0.100094  -0.250215  0  3.9416  0
C  C86  1  0.86262639  0.43929381  0.29195388  1  0.052574  0  -0.09978  -0.249296  0  3.939302  0
C  C87  1  0.42281486  0.56056527  0.20797511  1  0.048685  0  -0.100085  -0.25037  0  3.941615  0
C  C88  1  0.06127996  0.51673908  0.65489323  1  0.295014  0  0.043761  0.045791  0  3.923874  0
C  C89  1  0.54522717  0.48334812  0.84517891  1  0.319305  0  0.043643  0.045502  0  3.923552  0
C  C90  1  0.93872070  0.48326031  0.34510505  1  0.294667  0  0.043713  0.045684  0  3.924145  0
C  C91  1  0.45476626  0.51664471  0.15482047  1  0.319935  0  0.043657  0.045585  0  3.92361  0
C  C92  1  0.04521659  0.61907593  0.74955574  1  0.768754  0  0.117506  0.406764  0  4.120208  0
C  C93  1  0.42662934  0.38108347  0.75049949  1  0.746399  0  0.117722  0.406707  0  4.121211  0
C  C94  1  0.95479515  0.38092716  0.25044367  1  0.768746  0  0.117451  0.406609  0  4.120245  0
C  C95  1  0.57335967  0.61890842  0.24950064  1  0.746362  0  0.117671  0.406859  0  4.120869  0
C  C96  1  0.80753369  0.13777506  0.47610510  1  0.246548  0  0.045108  0.046303  0  3.892668  0
C  C97  1  0.66960540  0.86237225  0.02411057  1  0.343312  0  0.04423  0.045402  0  3.892627  0
C  C98  1  0.19247439  0.86222334  0.52389598  1  0.246662  0  0.045116  0.046286  0  3.892695  0
C  C99  1  0.33039187  0.13763090  0.97588597  1  0.343262  0  0.044267  0.045451  0  3.892607  0
C  C100  1  0.50590726  0.13699937  0.44936653  1  0.280228  0  0.042547  0.040549  0  3.905468  0
C  C101  1  0.36868316  0.86305650  0.05067959  1  0.375651  0  0.042673  0.040824  0  3.90599  0
C  C102  1  0.49409563  0.86300185  0.55063355  1  0.280095  0  0.042589  0.040679  0  3.905535  0
C  C103  1  0.63131400  0.13694379  0.94932000  1  0.37577  0  0.042667  0.040783  0  3.906138  0
C  C104  1  0.76817367  0.01787558  0.44864993  1  0.07328  0  -0.099222  -0.25817  0  3.944841  0
C  C105  1  0.74998283  0.98228618  0.05157573  1  -0.019633  0  -0.099345  -0.25841  0  3.946782  0
C  C106  1  0.23183101  0.98212657  0.55135022  1  0.07335  0  -0.099191  -0.25814  0  3.944817  0
C  C107  1  0.25001217  0.01771507  0.94842230  1  -0.019405  0  -0.099406  -0.258474  0  3.946819  0
C  C108  1  0.45939944  0.01715476  0.42172101  1  0.046102  0  -0.098664  -0.246272  0  3.927494  0
C  C109  1  0.44184902  0.98291290  0.07833365  1  0.004649  0  -0.09941  -0.247614  0  3.928801  0
C  C110  1  0.54060835  0.98284835  0.57827799  1  0.045544  0  -0.098686  -0.246323  0  3.927448  0
C  C111  1  0.55814898  0.01708643  0.92166750  1  0.004556  0  -0.099384  -0.247651  0  3.928783  0
C  C112  1  0.88179343  0.64030405  0.72987092  1  0.020834  0  -0.099954  -0.266979  0  3.947593  0
C  C113  1  0.24207163  0.35986311  0.77016469  1  0.033953  0  -0.099883  -0.265907  0  3.949439  0
C  C114  1  0.11822063  0.35970369  0.27012929  1  0.020785  0  -0.099869  -0.266912  0  3.947497  0
C  C115  1  0.75791852  0.64012316  0.22983661  1  0.033885  0  -0.099961  -0.266068  0  3.949302  0
N  N116  1  0.67878075  0.19786067  0.47624650  1  -1.26084  0  -0.219066  0.017839  0  3.759831  0
N  N117  1  0.48076078  0.80222503  0.02384174  1  -1.267064  0  -0.218284  0.019527  0  3.758665  0
N  N118  1  0.32122610  0.80214055  0.52375358  1  -1.260917  0  -0.219124  0.017649  0  3.760083  0
N  N119  1  0.51923602  0.19777718  0.97615554  1  -1.267162  0  -0.218215  0.019679  0  3.75877  0
N  N120  1  0.89885766  0.53196685  0.63873587  1  -1.263576  0  -0.217634  0.019727  0  3.762611  0
N  N121  1  0.36761593  0.46807253  0.86134185  1  -1.268358  0  -0.217603  0.019874  0  3.760747  0
N  N122  1  0.10114438  0.46803529  0.36126470  1  -1.263745  0  -0.217669  0.01964  0  3.762643  0
N  N123  1  0.63237975  0.53192217  0.13865769  1  -1.268383  0  -0.217605  0.019863  0  3.760814  0
Cl  Cl124  1  0.00080163  0.81590783  0.36143875  1  -0.665413  0  -0.325902  -0.542291  0  1.145311  0
Cl  Cl125  1  0.18488492  0.18416459  0.13848653  1  -0.6666  0  -0.325528  -0.542009  0  1.146551  0
Cl  Cl126  1  0.99919646  0.18409433  0.63856100  1  -0.665416  0  -0.325896  -0.542257  0  1.145333  0
Cl  Cl127  1  0.81510851  0.81582823  0.86151367  1  -0.666487  0  -0.325538  -0.542015  0  1.146502  0
O  O128  1  0.10777841  0.64583087  0.80056974  1  -1.152963  0  -0.317577  -0.486721  0  2.327255  0
O  O129  1  0.46228165  0.35424369  0.69949337  1  -1.15424  0  -0.317663  -0.486675  0  2.325952  0
O  O130  1  0.89223333  0.35417222  0.19943009  1  -1.152909  0  -0.317601  -0.486788  0  2.327231  0
O  O131  1  0.53771419  0.64575659  0.30050663  1  -1.154278  0  -0.317659  -0.486758  0  2.325972  0
O  O132  1  0.65037602  0.58863386  0.41186851  1  -1.175655  0  -0.329548  -0.555693  0  2.317763  0
O  O133  1  0.06132574  0.41123558  0.08792634  1  -1.175985  0  -0.329219  -0.555221  0  2.31819  0
O  O134  1  0.34964386  0.41137760  0.58813282  1  -1.175887  0  -0.329428  -0.555469  0  2.317637  0
O  O135  1  0.93867041  0.58876006  0.91207287  1  -1.176158  0  -0.329202  -0.555224  0  2.31818  0
O  O136  1  0.75874282  0.74119221  0.48682381  1  -1.174367  0  -0.31272  -0.545418  0  2.191867  0
O  O137  1  0.01768779  0.25872004  0.01300258  1  -1.175405  0  -0.313081  -0.546541  0  2.191637  0
O  O138  1  0.24123668  0.25880701  0.51318348  1  -1.174508  0  -0.31275  -0.545406  0  2.191707  0
O  O139  1  0.98232482  0.74128215  0.98699552  1  -1.175488  0  -0.313078  -0.54649  0  2.191581  0
O  O140  1  0.54147115  0.83816479  0.39349885  1  -1.151947  0  -0.317758  -0.484777  0  2.354854  0
O  O141  1  0.70291548  0.16201904  0.10659810  1  -1.154321  0  -0.317596  -0.484393  0  2.355041  0
O  O142  1  0.45853532  0.16183830  0.60650097  1  -1.151799  0  -0.3177  -0.484743  0  2.35493  0
O  O143  1  0.29707951  0.83798218  0.89340198  1  -1.154281  0  -0.317595  -0.48441  0  2.355142  0
