# generated using pymatgen
data_BaH16C14S2O13
_symmetry_space_group_name_H-M   'P 1'
_cell_length_a   7.15883876
_cell_length_b   11.22668430
_cell_length_c   12.43835802
_cell_angle_alpha   102.85508456
_cell_angle_beta   92.27197552
_cell_angle_gamma   106.70984900
_symmetry_Int_Tables_number   1
_chemical_formula_structural   BaH16C14S2O13
_chemical_formula_sum   'Ba2 H32 C28 S4 O26'
_cell_volume   927.69575011
_cell_formula_units_Z   2
loop_
 _symmetry_equiv_pos_site_id
 _symmetry_equiv_pos_as_xyz
  1  'x, y, z'
loop_
 _atom_site_type_symbol
 _atom_site_label
 _atom_site_symmetry_multiplicity
 _atom_site_fract_x
 _atom_site_fract_y
 _atom_site_fract_z
 _atom_site_occupancy
 _atom_site_hle17_bader_spin_density
 _atom_site_hle17_ddec_charge
 _atom_site_hle17_ddec_spin_density
 _atom_site_hle17_ddec_sum_bond_order
 _atom_site_hle17_magmom
 _atom_site_hse06_10hf_bader_spin_density
 _atom_site_hse06_10hf_ddec_charge
 _atom_site_hse06_10hf_ddec_spin_density
 _atom_site_hse06_10hf_ddec_sum_bond_order
 _atom_site_hse06_10hf_magmom
 _atom_site_hse06_bader_spin_density
 _atom_site_hse06_ddec_charge
 _atom_site_hse06_ddec_spin_density
 _atom_site_hse06_ddec_sum_bond_order
 _atom_site_hse06_magmom
 _atom_site_pbe_bader_spin_density
 _atom_site_pbe_cm5_charge
 _atom_site_pbe_ddec_charge
 _atom_site_pbe_ddec_spin_density
 _atom_site_pbe_ddec_sum_bond_order
 _atom_site_pbe_magmom
Ba  Ba0  1  0.13524569  0.30346800  0.06006691  1  0  1.690791  0  1.084455  0  0  1.544109  0  1.485553  0  0  1.581311  0  1.441359  0  0  0.926141  1.516801  0  1.516663  0
Ba  Ba1  1  0.86475484  0.69653262  0.93993392  1  0  1.690788  0  1.084451  0  0  1.544117  0  1.485545  0  0  1.581318  0  1.441343  0  0  0.926152  1.516816  0  1.516659  0
H  H2  1  0.20852380  0.29340080  0.46394594  1  0  0.102662  0  0.965799  0  0  0.109588  0  1.033944  0  0  0.113032  0  1.031731  0  0  0.106923  0.107147  0  1.035525  0
H  H3  1  0.79147628  0.70659886  0.53605468  1  0  0.102701  0  0.965775  0  0  0.109625  0  1.033916  0  0  0.113068  0  1.031701  0  0  0.106925  0.107181  0  1.035505  0
H  H4  1  0.21469455  0.30505107  0.66841247  1  0  0.10638  0  0.967556  0  0  0.11425  0  1.033476  0  0  0.11737  0  1.03201  0  0  0.107064  0.112019  0  1.034569  0
H  H5  1  0.78530553  0.69494859  0.33158816  1  0  0.106462  0  0.967541  0  0  0.11432  0  1.033456  0  0  0.11744  0  1.031989  0  0  0.107094  0.112083  0  1.03455  0
H  H6  1  0.32666814  0.71402432  0.73530126  1  0  0.112863  0  0.942609  0  0  0.121727  0  1.003569  0  0  0.125442  0  1.001352  0  0  0.115229  0.119035  0  1.005288  0
H  H7  1  0.67333053  0.28597534  0.26469773  1  0  0.112876  0  0.942584  0  0  0.121758  0  1.003531  0  0  0.125474  0  1.001313  0  0  0.115218  0.119064  0  1.005248  0
H  H8  1  0.30759880  0.70040891  0.53273156  1  0  0.097665  0  0.976955  0  0  0.105494  0  1.045019  0  0  0.108508  0  1.043141  0  0  0.104063  0.103344  0  1.046428  0
H  H9  1  0.69240081  0.29958979  0.46726726  1  0  0.097667  0  0.976941  0  0  0.105527  0  1.04498  0  0  0.108541  0  1.043099  0  0  0.104067  0.103376  0  1.046394  0
H  H10  1  0.92001110  0.19315948  0.53407770  1  0  0.101211  0  0.97289  0  0  0.109627  0  1.03911  0  0  0.112759  0  1.03735  0  0  0.106712  0.107336  0  1.040494  0
H  H11  1  0.07998524  0.80684114  0.46592304  1  0  0.101205  0  0.972888  0  0  0.109618  0  1.039122  0  0  0.112748  0  1.037362  0  0  0.106702  0.107329  0  1.040497  0
H  H12  1  0.93383123  0.19450329  0.33282874  1  0  0.113807  0  0.962022  0  0  0.118995  0  1.030852  0  0  0.122756  0  1.028641  0  0  0.113762  0.116235  0  1.032602  0
H  H13  1  0.06616652  0.80549733  0.66717283  1  0  0.113813  0  0.962017  0  0  0.119009  0  1.03084  0  0  0.122729  0  1.028677  0  0  0.113778  0.116245  0  1.032595  0
H  H14  1  0.56232313  0.80152014  0.24349585  1  0  0.104055  0  0.957773  0  0  0.112717  0  1.021873  0  0  0.116528  0  1.019183  0  0  0.111829  0.109904  0  1.023993  0
H  H15  1  0.43767740  0.19848048  0.75650417  1  0  0.104044  0  0.957773  0  0  0.112707  0  1.021872  0  0  0.116518  0  1.019181  0  0  0.111828  0.1099  0  1.023992  0
H  H16  1  0.55462974  0.80047121  0.44197924  1  0  0.107195  0  0.963623  0  0  0.113289  0  1.032757  0  0  0.11676  0  1.030436  0  0  0.107982  0.11078  0  1.034519  0
H  H17  1  0.44536849  0.19952749  0.55802035  1  0  0.107115  0  0.963764  0  0  0.113246  0  1.032858  0  0  0.116722  0  1.030522  0  0  0.107955  0.110736  0  1.034623  0
H  H18  1  0.29079643  0.58806020  0.25450665  1  0  0.40637  0  0.89014  0  0  0.377437  0  0.961682  0  0  0.390177  0  0.947181  0  0  0.306101  0.3685  0  0.970849  0
H  H19  1  0.70920410  0.41194042  0.74549417  1  0  0.406376  0  0.890146  0  0  0.377442  0  0.961688  0  0  0.39018  0  0.94718  0  0  0.306099  0.368506  0  0.970848  0
H  H20  1  0.67237083  0.89720545  0.72788282  1  0  0.413268  0  0.867103  0  0  0.384337  0  0.939356  0  0  0.396782  0  0.92613  0  0  0.307274  0.375577  0  0.948616  0
H  H21  1  0.32762834  0.10279229  0.27211659  1  0  0.413294  0  0.867106  0  0  0.384372  0  0.939343  0  0  0.396817  0  0.926115  0  0  0.307304  0.375612  0  0.948598  0
H  H22  1  0.81542077  0.17617665  0.82442121  1  0  0.432848  0  0.865212  0  0  0.402315  0  0.927953  0  0  0.412839  0  0.912458  0  0  0.300688  0.394872  0  0.938903  0
H  H23  1  0.18458115  0.82382397  0.17557964  1  0  0.432891  0  0.865157  0  0  0.402336  0  0.927938  0  0  0.41286  0  0.912443  0  0  0.300695  0.394895  0  0.938886  0
H  H24  1  0.67361496  0.17226561  0.91781290  1  0  0.437087  0  0.856298  0  0  0.407548  0  0.91749  0  0  0.417084  0  0.903471  0  0  0.307056  0.400781  0  0.927443  0
H  H25  1  0.32638697  0.82773501  0.08218795  1  0  0.437107  0  0.856258  0  0  0.407567  0  0.917451  0  0  0.417104  0  0.903431  0  0  0.307073  0.400797  0  0.92741  0
H  H26  1  0.45823412  0.59758151  0.12230458  1  0  0.421283  0  0.882062  0  0  0.38896  0  0.950354  0  0  0.399421  0  0.934978  0  0  0.305033  0.381523  0  0.961275  0
H  H27  1  0.54176780  0.40241911  0.87769547  1  0  0.421294  0  0.882059  0  0  0.388971  0  0.950342  0  0  0.399432  0  0.934966  0  0  0.305035  0.381529  0  0.961272  0
H  H28  1  0.26617526  0.64568037  0.11339975  1  0  0.438554  0  0.859008  0  0  0.407513  0  0.921732  0  0  0.418815  0  0.905361  0  0  0.305085  0.399518  0  0.933293  0
H  H29  1  0.73382806  0.35432024  0.88660033  1  0  0.438549  0  0.85901  0  0  0.407504  0  0.921742  0  0  0.418807  0  0.90537  0  0  0.305079  0.39951  0  0.9333  0
H  H30  1  0.15085084  0.03347505  0.12354876  1  0  0.422762  0  0.88345  0  0  0.389772  0  0.951856  0  0  0.40051  0  0.936036  0  0  0.304313  0.382137  0  0.963103  0
H  H31  1  0.84915018  0.96652365  0.87645089  1  0  0.422743  0  0.883466  0  0  0.389741  0  0.951893  0  0  0.400478  0  0.936074  0  0  0.304298  0.382108  0  0.963137  0
H  H32  1  0.36714401  0.08833185  0.09312052  1  0  0.438123  0  0.830694  0  0  0.406659  0  0.90733  0  0  0.416309  0  0.893079  0  0  0.315608  0.399764  0  0.916493  0
H  H33  1  0.63285561  0.91166685  0.90687909  1  0  0.438136  0  0.830661  0  0  0.406666  0  0.907324  0  0  0.416316  0  0.893072  0  0  0.315592  0.399773  0  0.916478  0
C  C34  1  0.25212850  0.49523919  0.48594515  1  0  -0.078068  0  3.771588  0  0  -0.055274  0  4.000843  0  0  -0.063209  0  4.025176  0  0  -0.015832  -0.050107  0  3.984648  0
C  C35  1  0.74787342  0.50476143  0.51405490  1  0  -0.078053  0  3.771523  0  0  -0.055288  0  4.000844  0  0  -0.063225  0  4.02518  0  0  -0.015828  -0.050128  0  3.984655  0
C  C36  1  0.22873165  0.38418168  0.52406163  1  0  -0.06324  0  3.712763  0  0  -0.086384  0  3.961819  0  0  -0.087459  0  3.982791  0  0  -0.078691  -0.085543  0  3.947701  0
C  C37  1  0.77126748  0.61581894  0.47593837  1  0  -0.06329  0  3.712722  0  0  -0.086433  0  3.9618  0  0  -0.087507  0  3.98277  0  0  -0.078706  -0.085592  0  3.94769  0
C  C38  1  0.23598263  0.39085902  0.63746134  1  0  -0.067938  0  3.733518  0  0  -0.093094  0  3.985547  0  0  -0.09357  0  4.0044  0  0  -0.082977  -0.092751  0  3.972857  0
C  C39  1  0.76401744  0.60914064  0.36253848  1  0  -0.067979  0  3.733601  0  0  -0.093112  0  3.985614  0  0  -0.093582  0  4.004461  0  0  -0.082968  -0.092766  0  3.972915  0
C  C40  1  0.27193931  0.50981563  0.71225711  1  0  -0.105863  0  3.723548  0  0  -0.083948  0  3.972641  0  0  -0.088512  0  3.992023  0  0  -0.006887  -0.080973  0  3.959756  0
C  C41  1  0.72806121  0.49018499  0.28774291  1  0  -0.105949  0  3.723654  0  0  -0.084017  0  3.972742  0  0  -0.088588  0  3.992122  0  0  -0.006941  -0.081036  0  3.959837  0
C  C42  1  0.29831838  0.62198535  0.67554039  1  0  -0.050138  0  3.705129  0  0  -0.07371  0  3.956797  0  0  -0.074163  0  3.975161  0  0  -0.070529  -0.073393  0  3.944513  0
C  C43  1  0.70168214  0.37801527  0.32445963  1  0  -0.050143  0  3.705159  0  0  -0.073749  0  3.956858  0  0  -0.074197  0  3.975216  0  0  -0.070514  -0.073433  0  3.944564  0
C  C44  1  0.28729942  0.61399438  0.56229976  1  0  -0.051908  0  3.701645  0  0  -0.0789  0  3.954605  0  0  -0.079321  0  3.975081  0  0  -0.076652  -0.078575  0  3.940919  0
C  C45  1  0.71269926  0.38600528  0.43770003  1  0  -0.051889  0  3.701616  0  0  -0.078903  0  3.954602  0  0  -0.079323  0  3.975076  0  0  -0.076656  -0.078577  0  3.940919  0
C  C46  1  0.24149684  0.48615974  0.36458214  1  0  0.668911  0  3.81836  0  0  0.619441  0  4.112987  0  0  0.652914  0  4.104662  0  0  0.24067  0.596685  0  4.11817  0
C  C47  1  0.75850692  0.51384183  0.63541733  1  0  0.668836  0  3.818322  0  0  0.619385  0  4.112933  0  0  0.652859  0  4.104612  0  0  0.24067  0.596637  0  4.11811  0
C  C48  1  0.74134328  0.99705072  0.50044466  1  0  -0.075202  0  3.770242  0  0  -0.052006  0  4.001686  0  0  -0.059777  0  4.026228  0  0  -0.015434  -0.046971  0  3.985255  0
C  C49  1  0.25865401  0.00294894  0.49955590  1  0  -0.075263  0  3.770364  0  0  -0.052048  0  4.001776  0  0  -0.059785  0  4.026272  0  0  -0.015451  -0.047004  0  3.985336  0
C  C50  1  0.84506208  0.10782235  0.46910761  1  0  -0.060416  0  3.712946  0  0  -0.085694  0  3.961285  0  0  -0.086461  0  3.982076  0  0  -0.077692  -0.085011  0  3.947207  0
C  C51  1  0.15493565  0.89217827  0.53089235  1  0  -0.060377  0  3.712978  0  0  -0.085658  0  3.961308  0  0  -0.086428  0  3.98207  0  0  -0.077687  -0.084976  0  3.947226  0
C  C52  1  0.85123114  0.10881710  0.35760559  1  0  -0.070794  0  3.721994  0  0  -0.094191  0  3.974635  0  0  -0.09538  0  3.993999  0  0  -0.080672  -0.093347  0  3.961563  0
C  C53  1  0.14876660  0.89118352  0.64239518  1  0  -0.070826  0  3.721903  0  0  -0.094244  0  3.974544  0  0  -0.095401  0  3.993928  0  0  -0.080659  -0.093389  0  3.961472  0
C  C54  1  0.74914680  0.99780581  0.27709774  1  0  -0.098892  0  3.716428  0  0  -0.077331  0  3.965965  0  0  -0.081763  0  3.985898  0  0  -0.010103  -0.074382  0  3.952548  0
C  C55  1  0.25085418  0.00219577  0.72290329  1  0  -0.098887  0  3.716444  0  0  -0.077302  0  3.965954  0  0  -0.081734  0  3.985881  0  0  -0.010147  -0.074364  0  3.952556  0
C  C56  1  0.64217019  0.88702115  0.30701845  1  0  -0.051321  0  3.706453  0  0  -0.076374  0  3.960008  0  0  -0.076592  0  3.977885  0  0  -0.07829  -0.076213  0  3.94799  0
C  C57  1  0.35782893  0.11297947  0.69298154  1  0  -0.051278  0  3.706429  0  0  -0.076339  0  3.959984  0  0  -0.076559  0  3.977866  0  0  -0.078272  -0.076184  0  3.947978  0
C  C58  1  0.63871583  0.88660812  0.41885295  1  0  -0.057112  0  3.691411  0  0  -0.081272  0  3.942161  0  0  -0.081893  0  3.96211  0  0  -0.075406  -0.080745  0  3.92876  0
C  C59  1  0.36128191  0.11339251  0.58114781  1  0  -0.057022  0  3.691505  0  0  -0.081225  0  3.942239  0  0  -0.081854  0  3.962184  0  0  -0.075359  -0.080694  0  3.928838  0
C  C60  1  0.74644579  0.00208005  0.62128740  1  0  0.652912  0  3.825079  0  0  0.598626  0  4.127866  0  0  0.631108  0  4.120884  0  0  0.234343  0.576626  0  4.132039  0
C  C61  1  0.25355430  0.99791961  0.37871403  1  0  0.652855  0  3.825129  0  0  0.598572  0  4.127893  0  0  0.631045  0  4.120908  0  0  0.234329  0.576571  0  4.132064  0
S  S62  1  0.28357876  0.52327661  0.85756734  1  0  1.344016  0  5.622541  0  0  1.247237  0  6.132153  0  0  1.295904  0  6.107415  0  0  0.548458  1.213524  0  6.148238  0
S  S63  1  0.71642271  0.47672305  0.14243170  1  0  1.344067  0  5.622477  0  0  1.247274  0  6.132096  0  0  1.295948  0  6.107351  0  0  0.548498  1.213569  0  6.148171  0
S  S64  1  0.76373963  0.99718919  0.13455622  1  0  1.318298  0  5.628366  0  0  1.219487  0  6.141298  0  0  1.267159  0  6.117652  0  0  0.536851  1.186535  0  6.156588  0
S  S65  1  0.23626134  0.00281239  0.86544400  1  0  1.318255  0  5.628368  0  0  1.219427  0  6.141298  0  0  1.267101  0  6.117652  0  0  0.536841  1.186474  0  6.156591  0
O  O66  1  0.28437907  0.59904921  0.33964454  1  0  -0.552209  0  2.09249  0  0  -0.497363  0  2.30872  0  0  -0.520591  0  2.29513  0  0  -0.322983  -0.481185  0  2.316955  0
O  O67  1  0.71562146  0.40095141  0.66035548  1  0  -0.552209  0  2.092481  0  0  -0.497366  0  2.308712  0  0  -0.520596  0  2.295114  0  0  -0.32299  -0.481191  0  2.316942  0
O  O68  1  0.19686205  0.38198378  0.29407793  1  0  -0.619696  0  1.947425  0  0  -0.569766  0  2.179371  0  0  -0.591825  0  2.171248  0  0  -0.322443  -0.554506  0  2.184569  0
O  O69  1  0.80314451  0.61801779  0.70592159  1  0  -0.61964  0  1.947365  0  0  -0.569735  0  2.17935  0  0  -0.591772  0  2.171178  0  0  -0.32244  -0.554481  0  2.184548  0
O  O70  1  0.29503678  0.39874472  0.87507319  1  0  -0.724704  0  1.970655  0  0  -0.661929  0  2.218287  0  0  -0.684017  0  2.2031  0  0  -0.354942  -0.646227  0  2.228295  0
O  O71  1  0.70496514  0.60125589  0.12492686  1  0  -0.724691  0  1.970646  0  0  -0.661916  0  2.218283  0  0  -0.684006  0  2.203095  0  0  -0.354945  -0.646217  0  2.228285  0
O  O72  1  0.10196072  0.54745966  0.89149608  1  0  -0.703771  0  1.999697  0  0  -0.644092  0  2.261026  0  0  -0.667722  0  2.247876  0  0  -0.372523  -0.627235  0  2.269572  0
O  O73  1  0.89804121  0.45254096  0.10850477  1  0  -0.703738  0  1.999589  0  0  -0.644042  0  2.260905  0  0  -0.66767  0  2.247751  0  0  -0.372526  -0.627196  0  2.269464  0
O  O74  1  0.46070547  0.62991017  0.90663157  1  0  -0.713056  0  1.96977  0  0  -0.655973  0  2.228484  0  0  -0.678721  0  2.215068  0  0  -0.37342  -0.639811  0  2.237234  0
O  O75  1  0.53929599  0.37008949  0.09336747  1  0  -0.713121  0  1.969844  0  0  -0.656047  0  2.228574  0  0  -0.678794  0  2.215155  0  0  -0.373451  -0.639883  0  2.237312  0
O  O76  1  0.65203636  0.89171811  0.64448703  1  0  -0.54699  0  2.101378  0  0  -0.49129  0  2.323057  0  0  -0.514663  0  2.311562  0  0  -0.320214  -0.474953  0  2.330385  0
O  O77  1  0.34796002  0.10827963  0.35551233  1  0  -0.54693  0  2.101465  0  0  -0.491241  0  2.323144  0  0  -0.514614  0  2.311647  0  0  -0.320196  -0.47491  0  2.330476  0
O  O78  1  0.83481087  0.10170264  0.69184095  1  0  -0.563244  0  1.976752  0  0  -0.513108  0  2.192884  0  0  -0.533683  0  2.184514  0  0  -0.280953  -0.499063  0  2.198423  0
O  O79  1  0.16518507  0.89829415  0.30815901  1  0  -0.563247  0  1.976662  0  0  -0.513103  0  2.192801  0  0  -0.533682  0  2.184434  0  0  -0.280965  -0.499062  0  2.198339  0
O  O80  1  0.82678929  0.13192338  0.12957263  1  0  -0.696395  0  1.968392  0  0  -0.640432  0  2.227645  0  0  -0.662164  0  2.21345  0  0  -0.367369  -0.625047  0  2.236971  0
O  O81  1  0.17321263  0.86807724  0.87042742  1  0  -0.696371  0  1.968403  0  0  -0.640393  0  2.227627  0  0  -0.662125  0  2.213427  0  0  -0.367351  -0.625006  0  2.236952  0
O  O82  1  0.91243030  0.93173608  0.09910698  1  0  -0.74074  0  2.035668  0  0  -0.677475  0  2.292147  0  0  -0.701187  0  2.278496  0  0  -0.360725  -0.660547  0  2.300996  0
O  O83  1  0.08756838  0.06826358  0.90089361  1  0  -0.740772  0  2.035695  0  0  -0.677477  0  2.292159  0  0  -0.701189  0  2.278507  0  0  -0.360723  -0.660543  0  2.301003  0
O  O84  1  0.57005545  0.92379486  0.07370701  1  0  -0.680402  0  2.004784  0  0  -0.623218  0  2.249557  0  0  -0.643833  0  2.233853  0  0  -0.318739  -0.608674  0  2.259973  0
O  O85  1  0.42994507  0.07620576  0.92629301  1  0  -0.68038  0  2.004776  0  0  -0.623211  0  2.249566  0  0  -0.643829  0  2.233863  0  0  -0.318747  -0.608668  0  2.259983  0
O  O86  1  0.79790155  0.22505736  0.89870126  1  0  -0.858607  0  1.839219  0  0  -0.79928  0  2.007099  0  0  -0.819751  0  1.977724  0  0  -0.594336  -0.784775  0  2.027592  0
O  O87  1  0.20210038  0.77494326  0.10129960  1  0  -0.858689  0  1.839127  0  0  -0.799356  0  2.007012  0  0  -0.819827  0  1.977637  0  0  -0.594384  -0.784853  0  2.027498  0
O  O88  1  0.31730197  0.57819952  0.13426253  1  0  -0.865476  0  1.954116  0  0  -0.809169  0  2.1426  0  0  -0.829981  0  2.110825  0  0  -0.588258  -0.794467  0  2.164603  0
O  O89  1  0.68269855  0.42180110  0.86573749  1  0  -0.865507  0  1.954143  0  0  -0.809196  0  2.14262  0  0  -0.830011  0  2.110843  0  0  -0.58827  -0.794493  0  2.164627  0
O  O90  1  0.27586044  0.10534333  0.14716960  1  0  -0.834858  0  1.857166  0  0  -0.77783  0  2.038208  0  0  -0.797238  0  2.008331  0  0  -0.565107  -0.764115  0  2.058187  0
O  O91  1  0.72414013  0.89465441  0.85282984  1  0  -0.834841  0  1.857135  0  0  -0.777806  0  2.038207  0  0  -0.797216  0  2.008332  0  0  -0.565062  -0.764093  0  2.058177  0
