# generated using pymatgen
data_Zn3H18C24(N3O7)2
_symmetry_space_group_name_H-M   'P 1'
_cell_length_a   11.79289121
_cell_length_b   12.05901274
_cell_length_c   12.28508312
_cell_angle_alpha   108.73376121
_cell_angle_beta   105.24325803
_cell_angle_gamma   111.67482006
_symmetry_Int_Tables_number   1
_chemical_formula_structural   Zn3H18C24(N3O7)2
_chemical_formula_sum   'Zn6 H36 C48 N12 O28'
_cell_volume   1385.52355460
_cell_formula_units_Z   2
loop_
 _symmetry_equiv_pos_site_id
 _symmetry_equiv_pos_as_xyz
  1  'x, y, z'
loop_
 _atom_site_type_symbol
 _atom_site_label
 _atom_site_symmetry_multiplicity
 _atom_site_fract_x
 _atom_site_fract_y
 _atom_site_fract_z
 _atom_site_occupancy
 _atom_site_hle17_bader_spin_density
 _atom_site_hle17_ddec_charge
 _atom_site_hle17_ddec_spin_density
 _atom_site_hle17_ddec_sum_bond_order
 _atom_site_hle17_magmom
 _atom_site_hse06_10hf_bader_spin_density
 _atom_site_hse06_10hf_ddec_charge
 _atom_site_hse06_10hf_ddec_spin_density
 _atom_site_hse06_10hf_ddec_sum_bond_order
 _atom_site_hse06_10hf_magmom
 _atom_site_hse06_bader_spin_density
 _atom_site_hse06_ddec_charge
 _atom_site_hse06_ddec_spin_density
 _atom_site_hse06_ddec_sum_bond_order
 _atom_site_hse06_magmom
 _atom_site_pbe_bader_spin_density
 _atom_site_pbe_cm5_charge
 _atom_site_pbe_ddec_charge
 _atom_site_pbe_ddec_spin_density
 _atom_site_pbe_ddec_sum_bond_order
 _atom_site_pbe_magmom
Zn  Zn0  1  0.62305731  0.28851666  0.33266645  1  0  1.095308  0  1.754432  0  0  0.908817  0  2.230515  0  0  0.959996  0  2.17111  0  0  0.702972  0.872871  0  2.271308  0
Zn  Zn1  1  0.37694215  0.71148285  0.66733423  1  0  1.095301  0  1.754458  0  0  0.908811  0  2.230549  0  0  0.959993  0  2.171144  0  0  0.702984  0.87287  0  2.271343  0
Zn  Zn2  1  0.25355231  0.01333914  0.25327651  1  0  1.120115  0  1.826053  0  0  0.951752  0  2.289358  0  0  0.996313  0  2.232345  0  0  0.694511  0.919953  0  2.329113  0
Zn  Zn3  1  0.74644716  0.98666037  0.74672254  1  0  1.120129  0  1.826067  0  0  0.951761  0  2.289381  0  0  0.996318  0  2.232369  0  0  0.694517  0.919956  0  2.329152  0
Zn  Zn4  1  0.89753608  0.71085672  0.16993502  1  0  1.092394  0  1.74898  0  0  0.914665  0  2.215642  0  0  0.965723  0  2.156334  0  0  0.700024  0.878718  0  2.256324  0
Zn  Zn5  1  0.10246477  0.28914380  0.83006471  1  0  1.092423  0  1.748947  0  0  0.91471  0  2.215608  0  0  0.965765  0  2.1563  0  0  0.700049  0.878766  0  2.256288  0
H  H6  1  0.49083131  0.14694167  0.44970325  1  0  0.405248  0  0.915814  0  0  0.369505  0  0.989299  0  0  0.381502  0  0.971758  0  0  0.278274  0.360766  0  1.002058  0
H  H7  1  0.50916677  0.85305682  0.55029676  1  0  0.40527  0  0.915813  0  0  0.369503  0  0.989336  0  0  0.381504  0  0.97179  0  0  0.278265  0.360761  0  1.002098  0
H  H8  1  0.38329973  0.07420897  0.49437471  1  0  0.426078  0  0.87747  0  0  0.396371  0  0.938899  0  0  0.406968  0  0.923586  0  0  0.288669  0.388837  0  0.949806  0
H  H9  1  0.61669911  0.92578751  0.50562649  1  0  0.42602  0  0.877556  0  0  0.396282  0  0.939011  0  0  0.406876  0  0.923706  0  0  0.28863  0.388747  0  0.949918  0
H  H10  1  0.01897981  0.92840600  0.07183494  1  0  0.41174  0  0.896272  0  0  0.376325  0  0.971367  0  0  0.38832  0  0.953868  0  0  0.282006  0.367749  0  0.983849  0
H  H11  1  0.98102054  0.07159351  0.92816516  1  0  0.411763  0  0.896213  0  0  0.376357  0  0.971317  0  0  0.388353  0  0.953817  0  0  0.282022  0.367779  0  0.983798  0
H  H12  1  0.12642810  0.96690497  0.01761794  1  0  0.427721  0  0.871538  0  0  0.397434  0  0.93307  0  0  0.408187  0  0.917552  0  0  0.29096  0.389775  0  0.944136  0
H  H13  1  0.87357275  0.03309556  0.98238179  1  0  0.427696  0  0.871576  0  0  0.39744  0  0.933064  0  0  0.408197  0  0.917541  0  0  0.29097  0.38978  0  0.944132  0
H  H14  1  0.55254220  0.52464708  0.37059677  1  0  0.138512  0  0.902253  0  0  0.149119  0  0.956906  0  0  0.152381  0  0.953224  0  0  0.158943  0.146483  0  0.959933  0
H  H15  1  0.44745724  0.47535242  0.62940635  1  0  0.138526  0  0.902274  0  0  0.149129  0  0.956925  0  0  0.15239  0  0.953245  0  0  0.158951  0.146494  0  0.959952  0
H  H16  1  0.14251941  0.23660455  0.24327911  1  0  0.136061  0  0.886233  0  0  0.149231  0  0.936715  0  0  0.151711  0  0.934195  0  0  0.164207  0.147352  0  0.938628  0
H  H17  1  0.85748093  0.76339496  0.75672098  1  0  0.136068  0  0.886221  0  0  0.149231  0  0.936706  0  0  0.151713  0  0.934186  0  0  0.164205  0.147351  0  0.938618  0
H  H18  1  0.38167968  0.61522617  0.41020301  1  0  0.10433  0  0.934444  0  0  0.115444  0  1.000314  0  0  0.11696  0  0.999134  0  0  0.120409  0.114185  0  1.001361  0
H  H19  1  0.61832028  0.38477435  0.58979730  1  0  0.104363  0  0.93443  0  0  0.115442  0  1.000322  0  0  0.116958  0  0.999142  0  0  0.120413  0.114183  0  1.001371  0
H  H20  1  0.20930664  0.49288121  0.34503299  1  0  0.10781  0  0.906422  0  0  0.122976  0  0.963879  0  0  0.124092  0  0.963179  0  0  0.127272  0.121979  0  0.964617  0
H  H21  1  0.79069370  0.50711830  0.65496792  1  0  0.107807  0  0.906371  0  0  0.122929  0  0.963866  0  0  0.124044  0  0.96317  0  0  0.127262  0.121943  0  0.964591  0
H  H22  1  0.40146187  0.82958032  0.28628841  1  0  0.137369  0  0.935992  0  0  0.143535  0  0.998296  0  0  0.146745  0  0.994866  0  0  0.152365  0.141107  0  1.00083  0
H  H23  1  0.59853710  0.17041818  0.71371020  1  0  0.137362  0  0.93601  0  0  0.143523  0  0.998306  0  0  0.146734  0  0.994874  0  0  0.152359  0.141097  0  1.000841  0
H  H24  1  0.00447922  0.50369579  0.14470562  1  0  0.138667  0  0.90909  0  0  0.149435  0  0.962499  0  0  0.152912  0  0.958686  0  0  0.157964  0.146724  0  0.965481  0
H  H25  1  0.99551985  0.49630472  0.85529528  1  0  0.138692  0  0.909056  0  0  0.149457  0  0.962467  0  0  0.152935  0  0.958653  0  0  0.157976  0.146745  0  0.96545  0
H  H26  1  0.36644320  0.58163687  0.19430753  1  0  0.104673  0  0.88846  0  0  0.123639  0  0.939321  0  0  0.124082  0  0.939694  0  0  0.129462  0.123137  0  0.939271  0
H  H27  1  0.63355576  0.41836162  0.80569270  1  0  0.104672  0  0.888435  0  0  0.123621  0  0.939312  0  0  0.124064  0  0.939686  0  0  0.129446  0.123121  0  0.939262  0
H  H28  1  0.20017979  0.44484744  0.12044529  1  0  0.114842  0  0.940663  0  0  0.126973  0  1.002501  0  0  0.128777  0  1.001186  0  0  0.12329  0.125517  0  1.003644  0
H  H29  1  0.79981829  0.55515105  0.87955472  1  0  0.11486  0  0.940627  0  0  0.126984  0  1.002475  0  0  0.128789  0  1.001159  0  0  0.123294  0.12553  0  1.003617  0
H  H30  1  0.30045483  0.75332097  0.01767697  1  0  0.111448  0  0.936067  0  0  0.120686  0  0.997093  0  0  0.124979  0  0.992909  0  0  0.109312  0.117535  0  1.000111  0
H  H31  1  0.69954613  0.24668156  0.98232342  1  0  0.111442  0  0.936066  0  0  0.120662  0  0.997111  0  0  0.124973  0  0.992909  0  0  0.109306  0.117514  0  1.000127  0
H  H32  1  0.55185122  0.59283237  0.92371555  1  0  0.102671  0  0.950858  0  0  0.108499  0  1.020626  0  0  0.112664  0  1.016832  0  0  0.103457  0.105369  0  1.023514  0
H  H33  1  0.44814824  0.40716713  0.07628513  1  0  0.102665  0  0.950867  0  0  0.108511  0  1.020606  0  0  0.112676  0  1.016813  0  0  0.103462  0.105378  0  1.023498  0
H  H34  1  0.71916485  0.02257928  0.13122799  1  0  0.117753  0  0.929795  0  0  0.126518  0  0.990554  0  0  0.130603  0  0.987172  0  0  0.113152  0.123592  0  0.992827  0
H  H35  1  0.28083600  0.97742125  0.86877093  1  0  0.117742  0  0.929802  0  0  0.126505  0  0.99056  0  0  0.13059  0  0.987178  0  0  0.113148  0.123581  0  0.992832  0
H  H36  1  0.10453757  0.62433539  0.43727683  1  0  0.094328  0  0.966067  0  0  0.099203  0  1.04034  0  0  0.103323  0  1.036362  0  0  0.100972  0.096115  0  1.043315  0
H  H37  1  0.89546051  0.37566310  0.56272237  1  0  0.094306  0  0.966113  0  0  0.099186  0  1.040377  0  0  0.103302  0  1.036404  0  0  0.100967  0.096097  0  1.043354  0
H  H38  1  0.22280353  0.04326594  0.64361591  1  0  0.115437  0  0.930977  0  0  0.123551  0  0.992443  0  0  0.12787  0  0.988798  0  0  0.112055  0.120461  0  0.994949  0
H  H39  1  0.77719770  0.95673358  0.35638360  1  0  0.115403  0  0.93096  0  0  0.123533  0  0.992418  0  0  0.127852  0  0.988775  0  0  0.112042  0.120441  0  0.994925  0
H  H40  1  0.81829977  0.73310893  0.52147415  1  0  0.10258  0  0.948291  0  0  0.109188  0  1.016271  0  0  0.113478  0  1.011863  0  0  0.104146  0.10601  0  1.019422  0
H  H41  1  0.18170120  0.26689361  0.47852543  1  0  0.102562  0  0.948337  0  0  0.109179  0  1.016298  0  0  0.113469  0  1.011891  0  0  0.104157  0.106003  0  1.01945  0
C  C42  1  0.46055268  0.43121861  0.33678651  1  0  0.169621  0  3.603689  0  0  0.102601  0  3.873858  0  0  0.115856  0  3.88618  0  0  0.174181  0.093969  0  3.865559  0
C  C43  1  0.53944815  0.56878191  0.66321647  1  0  0.16946  0  3.603883  0  0  0.102446  0  3.874055  0  0  0.1157  0  3.886378  0  0  0.17411  0.093813  0  3.865761  0
C  C44  1  0.25044577  0.28251534  0.27002390  1  0  0.194087  0  3.563444  0  0  0.126799  0  3.835567  0  0  0.139784  0  3.846138  0  0  0.185109  0.118213  0  3.828439  0
C  C45  1  0.74955320  0.71748316  0.72997552  1  0  0.194098  0  3.563401  0  0  0.126822  0  3.835506  0  0  0.139806  0  3.846077  0  0  0.185133  0.118239  0  3.828373  0
C  C46  1  0.29890627  0.52199729  0.32607158  1  0  -0.02078  0  3.58492  0  0  -0.087915  0  3.849932  0  0  -0.083813  0  3.859288  0  0  -0.043855  -0.090496  0  3.843643  0
C  C47  1  0.70109319  0.47800222  0.67392910  1  0  -0.020759  0  3.584914  0  0  -0.087809  0  3.849871  0  0  -0.083707  0  3.859228  0  0  -0.043803  -0.090396  0  3.843582  0
C  C48  1  0.29244912  0.76970763  0.25173920  1  0  0.189859  0  3.561904  0  0  0.124002  0  3.83411  0  0  0.13739  0  3.844527  0  0  0.181237  0.115266  0  3.826989  0
C  C49  1  0.70754995  0.23029287  0.74826170  1  0  0.189826  0  3.5619  0  0  0.123996  0  3.83408  0  0  0.137385  0  3.844498  0  0  0.181232  0.11526  0  3.826962  0
C  C50  1  0.08958301  0.60272464  0.17933689  1  0  0.179226  0  3.593842  0  0  0.111818  0  3.862054  0  0  0.125303  0  3.87372  0  0  0.176809  0.102937  0  3.854331  0
C  C51  1  0.91041557  0.39727486  0.82066356  1  0  0.179203  0  3.593811  0  0  0.111807  0  3.862032  0  0  0.125291  0  3.873698  0  0  0.176818  0.102928  0  3.854308  0
C  C52  1  0.27320188  0.54119389  0.20620312  1  0  -0.018537  0  3.580179  0  0  -0.085623  0  3.842533  0  0  -0.081823  0  3.852382  0  0  -0.041858  -0.087984  0  3.835878  0
C  C53  1  0.72679670  0.45880561  0.79379734  1  0  -0.018549  0  3.5801  0  0  -0.08562  0  3.842436  0  0  -0.081819  0  3.85228  0  0  -0.041835  -0.087981  0  3.835785  0
C  C54  1  0.50860128  0.89961149  0.08262444  1  0  -0.07462  0  3.742782  0  0  -0.047142  0  3.98069  0  0  -0.059042  0  4.004593  0  0  -0.0165  -0.039823  0  3.964863  0
C  C55  1  0.49139919  0.10039004  0.91737389  1  0  -0.074582  0  3.742887  0  0  -0.047139  0  3.980746  0  0  -0.059  0  4.004601  0  0  -0.016519  -0.039833  0  3.964944  0
C  C56  1  0.39829758  0.76885528  0.02029358  1  0  -0.031567  0  3.661606  0  0  -0.072234  0  3.910866  0  0  -0.065743  0  3.925716  0  0  -0.06569  -0.075902  0  3.900648  0
C  C57  1  0.60170239  0.23114524  0.97970592  1  0  -0.031565  0  3.661566  0  0  -0.072211  0  3.910831  0  0  -0.065748  0  3.925666  0  0  -0.065692  -0.075875  0  3.900621  0
C  C58  1  0.41291221  0.65830078  0.96027439  1  0  -0.074944  0  3.771182  0  0  -0.046566  0  4.006712  0  0  -0.057676  0  4.029777  0  0  -0.018599  -0.039877  0  3.99128  0
C  C59  1  0.58708637  0.34169872  0.03972525  1  0  -0.074954  0  3.771204  0  0  -0.046594  0  4.006762  0  0  -0.057702  0  4.029831  0  0  -0.018614  -0.039906  0  3.991332  0
C  C60  1  0.53936023  0.67938870  0.96534030  1  0  -0.04783  0  3.693986  0  0  -0.087584  0  3.944647  0  0  -0.082359  0  3.961884  0  0  -0.071826  -0.090499  0  3.932997  0
C  C61  1  0.46063924  0.32061080  0.03465957  1  0  -0.047817  0  3.694059  0  0  -0.08758  0  3.944729  0  0  -0.082355  0  3.961968  0  0  -0.071823  -0.090492  0  3.933073  0
C  C62  1  0.64993616  0.81005657  0.02606331  1  0  -0.085156  0  3.759528  0  0  -0.059908  0  4.002619  0  0  -0.071119  0  4.026245  0  0  -0.022381  -0.052959  0  3.986761  0
C  C63  1  0.35006330  0.18994293  0.97393737  1  0  -0.085175  0  3.759551  0  0  -0.059924  0  4.002638  0  0  -0.071137  0  4.026267  0  0  -0.022367  -0.052974  0  3.986776  0
C  C64  1  0.63372541  0.92040480  0.08311213  1  0  -0.029195  0  3.639705  0  0  -0.070189  0  3.891002  0  0  -0.064452  0  3.907405  0  0  -0.064216  -0.073413  0  3.879443  0
C  C65  1  0.36627495  0.07959472  0.91688553  1  0  -0.029186  0  3.639708  0  0  -0.070169  0  3.890984  0  0  -0.064445  0  3.907379  0  0  -0.064197  -0.073391  0  3.879431  0
C  C66  1  0.49434005  0.01658825  0.15358313  1  0  0.674481  0  3.880371  0  0  0.618601  0  4.174777  0  0  0.653941  0  4.168446  0  0  0.217262  0.594533  0  4.17852  0
C  C67  1  0.50566230  0.98341530  0.84641631  1  0  0.674268  0  3.880681  0  0  0.618524  0  4.174888  0  0  0.653855  0  4.168556  0  0  0.217294  0.594461  0  4.17863  0
C  C68  1  0.29730405  0.51802318  0.89753921  1  0  0.631247  0  3.931823  0  0  0.584624  0  4.216816  0  0  0.618215  0  4.212989  0  0  0.192905  0.562097  0  4.218208  0
C  C69  1  0.70269365  0.48197632  0.10246021  1  0  0.631286  0  3.931697  0  0  0.584662  0  4.216704  0  0  0.618251  0  4.212879  0  0  0.192925  0.562136  0  4.218094  0
C  C70  1  0.78631018  0.83048408  0.03725757  1  0  0.667312  0  3.883533  0  0  0.610056  0  4.181022  0  0  0.644332  0  4.174629  0  0  0.214521  0.58687  0  4.184611  0
C  C71  1  0.21369018  0.16951544  0.96274090  1  0  0.667353  0  3.88349  0  0  0.610106  0  4.180964  0  0  0.644378  0  4.174572  0  0  0.214547  0.586919  0  4.184552  0
C  C72  1  0.94983982  0.66299610  0.46958188  1  0  -0.063662  0  3.754947  0  0  -0.035515  0  3.987807  0  0  -0.046042  0  4.011114  0  0  -0.016389  -0.029215  0  3.972093  0
C  C73  1  0.05015926  0.33700442  0.53041739  1  0  -0.063523  0  3.754794  0  0  -0.035463  0  3.987735  0  0  -0.045989  0  4.01104  0  0  -0.016359  -0.029161  0  3.972022  0
C  C74  1  0.08051066  0.70204919  0.47861198  1  0  -0.050562  0  3.70749  0  0  -0.090827  0  3.960818  0  0  -0.086182  0  3.978477  0  0  -0.072696  -0.093145  0  3.948798  0
C  C75  1  0.91948842  0.29795132  0.52138892  1  0  -0.050628  0  3.707468  0  0  -0.090872  0  3.960816  0  0  -0.086216  0  3.978478  0  0  -0.07273  -0.093187  0  3.948793  0
C  C76  1  0.17907847  0.83834232  0.54131262  1  0  -0.093907  0  3.787176  0  0  -0.068611  0  4.030197  0  0  -0.079692  0  4.054117  0  0  -0.025266  -0.061846  0  4.014425  0
C  C77  1  0.82092100  0.16165719  0.45868563  1  0  -0.093856  0  3.787136  0  0  -0.068582  0  4.030161  0  0  -0.079679  0  4.054107  0  0  -0.025262  -0.061818  0  4.014381  0
C  C78  1  0.14653829  0.93684428  0.59469988  1  0  -0.028442  0  3.65307  0  0  -0.068762  0  3.902529  0  0  -0.063766  0  3.919257  0  0  -0.063944  -0.071819  0  3.891188  0
C  C79  1  0.85346307  0.06315725  0.40529867  1  0  -0.028367  0  3.65306  0  0  -0.068701  0  3.902524  0  0  -0.063701  0  3.919262  0  0  -0.063913  -0.071755  0  3.891173  0
C  C80  1  0.01736128  0.89848684  0.58942209  1  0  -0.068296  0  3.738438  0  0  -0.040644  0  3.975104  0  0  -0.051766  0  3.998279  0  0  -0.015381  -0.033775  0  3.959759  0
C  C81  1  0.98263955  0.10151367  0.41058007  1  0  -0.068381  0  3.738519  0  0  -0.040725  0  3.975197  0  0  -0.051851  0  3.99838  0  0  -0.015404  -0.033854  0  3.959852  0
C  C82  1  0.91924324  0.76172977  0.52651556  1  0  -0.033508  0  3.658148  0  0  -0.073025  0  3.90469  0  0  -0.067106  0  3.919991  0  0  -0.066078  -0.076033  0  3.89385  0
C  C83  1  0.08075635  0.23827175  0.47348416  1  0  -0.03354  0  3.65823  0  0  -0.073035  0  3.90478  0  0  -0.067115  0  3.920084  0  0  -0.066101  -0.076048  0  3.893945  0
C  C84  1  0.84796490  0.51591809  0.40268001  1  0  0.640376  0  3.922557  0  0  0.592715  0  4.211598  0  0  0.626029  0  4.206847  0  0  0.197298  0.570257  0  4.213814  0
C  C85  1  0.15203430  0.48408443  0.59732074  1  0  0.640386  0  3.922531  0  0  0.592782  0  4.21152  0  0  0.626096  0  4.20677  0  0  0.197359  0.57032  0  4.213736  0
C  C86  1  0.32018870  0.88008192  0.55668289  1  0  0.667795  0  3.874123  0  0  0.609693  0  4.170741  0  0  0.643747  0  4.164105  0  0  0.215275  0.586614  0  4.174686  0
C  C87  1  0.67981026  0.11991657  0.44331734  1  0  0.667729  0  3.874236  0  0  0.609676  0  4.1708  0  0  0.643727  0  4.164168  0  0  0.215247  0.586597  0  4.174739  0
C  C88  1  0.98578775  0.00266909  0.65698547  1  0  0.68754  0  3.881164  0  0  0.629733  0  4.179132  0  0  0.665645  0  4.17154  0  0  0.221036  0.605172  0  4.183859  0
C  C89  1  0.01421398  0.99733144  0.34301449  1  0  0.687621  0  3.881162  0  0  0.629783  0  4.179168  0  0  0.665697  0  4.171574  0  0  0.221033  0.605221  0  4.183896  0
N  N90  1  0.45314993  0.31294521  0.31230977  1  0  -0.258555  0  3.191055  0  0  -0.19613  0  3.495483  0  0  -0.212763  0  3.50933  0  0  -0.227723  -0.185084  0  3.486209  0
N  N91  1  0.54685003  0.68705531  0.68769135  1  0  -0.258498  0  3.191103  0  0  -0.196083  0  3.495521  0  0  -0.212716  0  3.50937  0  0  -0.227727  -0.185039  0  3.486251  0
N  N92  1  0.32056155  0.21909378  0.26974485  1  0  -0.218193  0  3.120392  0  0  -0.166699  0  3.407245  0  0  -0.179569  0  3.422049  0  0  -0.209404  -0.158011  0  3.397364  0
N  N93  1  0.67943791  0.78090573  0.73025501  1  0  -0.218235  0  3.12041  0  0  -0.166725  0  3.407242  0  0  -0.179597  0  3.422049  0  0  -0.209408  -0.158038  0  3.397362  0
N  N94  1  0.33492866  0.41623827  0.31185227  1  0  -0.074665  0  3.52409  0  0  0.018164  0  3.756904  0  0  0.001744  0  3.780692  0  0  -0.221754  0.02897  0  3.740631  0
N  N95  1  0.66507080  0.58376123  0.68814841  1  0  -0.074587  0  3.524178  0  0  0.018227  0  3.756973  0  0  0.001808  0  3.78076  0  0  -0.221735  0.029033  0  3.740698  0
N  N96  1  0.20832742  0.81774091  0.24183119  1  0  -0.229306  0  3.138977  0  0  -0.175822  0  3.430002  0  0  -0.190048  0  3.444443  0  0  -0.216053  -0.166225  0  3.420317  0
N  N97  1  0.79167292  0.18225859  0.75816972  1  0  -0.229335  0  3.138982  0  0  -0.175856  0  3.430012  0  0  -0.190082  0  3.444454  0  0  -0.21607  -0.166257  0  3.420325  0
N  N98  1  0.08042756  0.71249653  0.19618435  1  0  -0.255303  0  3.191078  0  0  -0.193795  0  3.495261  0  0  -0.210222  0  3.508466  0  0  -0.226408  -0.182914  0  3.486478  0
N  N99  1  0.91957278  0.28750297  0.80381656  1  0  -0.255272  0  3.191073  0  0  -0.193792  0  3.495287  0  0  -0.210219  0  3.508493  0  0  -0.226407  -0.182911  0  3.486501  0
N  N100  1  0.22132074  0.63473897  0.21305841  1  0  -0.070135  0  3.520802  0  0  0.021582  0  3.754524  0  0  0.005299  0  3.777642  0  0  -0.221917  0.032238  0  3.738728  0
N  N101  1  0.77867784  0.36526053  0.78694286  1  0  -0.070127  0  3.52074  0  0  0.021575  0  3.75446  0  0  0.005292  0  3.777579  0  0  -0.221946  0.03223  0  3.73867  0
O  O102  1  0.39756507  0.12395575  0.44382603  1  0  -0.846626  0  1.935152  0  0  -0.788824  0  2.145401  0  0  -0.810708  0  2.110116  0  0  -0.591009  -0.772935  0  2.170177  0
O  O103  1  0.60243526  0.87604376  0.55617569  1  0  -0.846601  0  1.93524  0  0  -0.788758  0  2.145591  0  0  -0.81064  0  2.110299  0  0  -0.590972  -0.772867  0  2.170371  0
O  O104  1  0.10123378  0.92252721  0.06985722  1  0  -0.837797  0  1.925781  0  0  -0.78097  0  2.134959  0  0  -0.802078  0  2.097977  0  0  -0.58772  -0.765834  0  2.16081  0
O  O105  1  0.89876569  0.07747230  0.93014183  1  0  -0.837788  0  1.925761  0  0  -0.781004  0  2.134907  0  0  -0.8021  0  2.097894  0  0  -0.587742  -0.765859  0  2.160765  0
O  O106  1  0.59682840  0.13365042  0.19575247  1  0  -0.643625  0  2.112067  0  0  -0.564858  0  2.391812  0  0  -0.596494  0  2.37841  0  0  -0.316482  -0.542766  0  2.400336  0
O  O107  1  0.40317384  0.86635112  0.80424549  1  0  -0.643482  0  2.111999  0  0  -0.564822  0  2.391769  0  0  -0.596461  0  2.378376  0  0  -0.316482  -0.542728  0  2.400291  0
O  O108  1  0.38857498  0.99476490  0.16978594  1  0  -0.652031  0  2.07851  0  0  -0.590348  0  2.351469  0  0  -0.616854  0  2.338575  0  0  -0.316023  -0.571843  0  2.359935  0
O  O109  1  0.61142649  0.00523865  0.83021327  1  0  -0.651976  0  2.07876  0  0  -0.59031  0  2.351607  0  0  -0.61682  0  2.338721  0  0  -0.316061  -0.571805  0  2.360073  0
O  O110  1  0.19670369  0.49905128  0.92731303  1  0  -0.671085  0  2.002107  0  0  -0.607929  0  2.261616  0  0  -0.638062  0  2.251673  0  0  -0.335343  -0.586545  0  2.26737  0
O  O111  1  0.80329489  0.50094822  0.07268661  1  0  -0.671082  0  2.002026  0  0  -0.607934  0  2.261536  0  0  -0.638068  0  2.251596  0  0  -0.335368  -0.58655  0  2.267291  0
O  O112  1  0.29976622  0.42022348  0.82142682  1  0  -0.611608  0  1.887257  0  0  -0.556348  0  2.108197  0  0  -0.582129  0  2.099253  0  0  -0.324085  -0.53835  0  2.113549  0
O  O113  1  0.70023374  0.57977703  0.17857430  1  0  -0.611632  0  1.887199  0  0  -0.556365  0  2.108141  0  0  -0.582147  0  2.099197  0  0  -0.324088  -0.538364  0  2.113488  0
O  O114  1  0.80375958  0.72755461  0.01723374  1  0  -0.684205  0  2.076683  0  0  -0.615937  0  2.356789  0  0  -0.643025  0  2.340842  0  0  -0.343711  -0.596904  0  2.367226  0
O  O115  1  0.19623989  0.27244490  0.98276532  1  0  -0.684228  0  2.076684  0  0  -0.615972  0  2.356799  0  0  -0.64306  0  2.340853  0  0  -0.343736  -0.59694  0  2.367238  0
O  O116  1  0.87943113  0.94588082  0.06739190  1  0  -0.630249  0  2.012075  0  0  -0.561592  0  2.225493  0  0  -0.587598  0  2.216257  0  0  -0.303256  -0.543485  0  2.231449  0
O  O117  1  0.12056785  0.05411768  0.93260590  1  0  -0.630263  0  2.012015  0  0  -0.561602  0  2.225438  0  0  -0.587601  0  2.216205  0  0  -0.303265  -0.543497  0  2.231395  0
O  O118  1  0.74306887  0.48386239  0.42932605  1  0  -0.696509  0  2.041149  0  0  -0.624177  0  2.323201  0  0  -0.655199  0  2.309007  0  0  -0.346657  -0.602246  0  2.331943  0
O  O119  1  0.25693070  0.51613912  0.57067611  1  0  -0.696514  0  2.041139  0  0  -0.624204  0  2.323193  0  0  -0.655219  0  2.308981  0  0  -0.346666  -0.602272  0  2.331935  0
O  O120  1  0.86432008  0.43096365  0.32886819  1  0  -0.593034  0  1.870684  0  0  -0.545376  0  2.077824  0  0  -0.568201  0  2.070416  0  0  -0.321365  -0.529441  0  2.082306  0
O  O121  1  0.13568000  0.56903888  0.67113198  1  0  -0.593079  0  1.870736  0  0  -0.54541  0  2.077829  0  0  -0.568235  0  2.07042  0  0  -0.321419  -0.529476  0  2.082311  0
O  O122  1  0.35623194  0.78766417  0.53916875  1  0  -0.704753  0  2.112399  0  0  -0.619328  0  2.378484  0  0  -0.648998  0  2.363449  0  0  -0.335087  -0.59853  0  2.388618  0
O  O123  1  0.64376702  0.21233432  0.46083148  1  0  -0.704726  0  2.112425  0  0  -0.619353  0  2.378522  0  0  -0.649001  0  2.36347  0  0  -0.335082  -0.598557  0  2.388655  0
O  O124  1  0.39988038  0.99915170  0.58558395  1  0  -0.608545  0  1.990076  0  0  -0.55213  0  2.21351  0  0  -0.575332  0  2.203891  0  0  -0.305247  -0.535975  0  2.219722  0
O  O125  1  0.60012084  0.00084781  0.41441799  1  0  -0.608491  0  1.990156  0  0  -0.552084  0  2.213564  0  0  -0.575285  0  2.20395  0  0  -0.305218  -0.53593  0  2.219773  0
O  O126  1  0.07290788  0.12574348  0.69624564  1  0  -0.64572  0  2.102731  0  0  -0.570711  0  2.381211  0  0  -0.60175  0  2.367596  0  0  -0.317315  -0.549022  0  2.389899  0
O  O127  1  0.92709346  0.87425805  0.30375535  1  0  -0.645764  0  2.102696  0  0  -0.570725  0  2.381177  0  0  -0.601757  0  2.367547  0  0  -0.317317  -0.549035  0  2.389865  0
O  O128  1  0.87848721  0.96096062  0.67132809  1  0  -0.653715  0  2.117262  0  0  -0.587749  0  2.392569  0  0  -0.615292  0  2.379129  0  0  -0.318831  -0.568496  0  2.401528  0
O  O129  1  0.12151503  0.03904092  0.32867150  1  0  -0.653696  0  2.117347  0  0  -0.587732  0  2.39268  0  0  -0.615278  0  2.379237  0  0  -0.318791  -0.568475  0  2.401625  0
