# generated using pymatgen
data_FeH10Au2(C8N5)2
_symmetry_space_group_name_H-M   'P 1'
_cell_length_a   12.72026133
_cell_length_b   15.40645725
_cell_length_c   16.73033113
_cell_angle_alpha   109.91225771
_cell_angle_beta   112.32248729
_cell_angle_gamma   89.99390753
_symmetry_Int_Tables_number   1
_chemical_formula_structural   FeH10Au2(C8N5)2
_chemical_formula_sum   'Fe4 H40 Au8 C64 N40'
_cell_volume   2820.01617271
_cell_formula_units_Z   4
loop_
 _symmetry_equiv_pos_site_id
 _symmetry_equiv_pos_as_xyz
  1  'x, y, z'
loop_
 _atom_site_type_symbol
 _atom_site_label
 _atom_site_symmetry_multiplicity
 _atom_site_fract_x
 _atom_site_fract_y
 _atom_site_fract_z
 _atom_site_occupancy
 _atom_site_pbe_bader_charge
 _atom_site_pbe_bader_spin_density
 _atom_site_pbe_cm5_charge
 _atom_site_pbe_ddec_charge
 _atom_site_pbe_ddec_spin_density
 _atom_site_pbe_ddec_sum_bond_order
 _atom_site_pbe_magmom
Fe  Fe0  1  0.19663925  0.46615334  0.89405831  1  1.244793  0  0.919813  0.584692  0  3.987677  0
Fe  Fe1  1  0.30234237  0.03379669  0.10586628  1  1.244829  0  0.920391  0.586151  0  3.98652  0
Fe  Fe2  1  0.80335989  0.53384441  0.10594015  1  1.244826  0  0.919843  0.584782  0  3.98753  0
Fe  Fe3  1  0.69765963  0.96620033  0.89413321  1  1.244957  0  0.920475  0.586241  0  3.986457  0
H  H4  1  0.08698882  0.27455935  0.41121133  1  0.42438  0  0.322623  0.288887  0  0.918519  0
H  H5  1  0.67579610  0.22532681  0.58864045  1  0.4465  0  0.32264  0.288768  0  0.918666  0
H  H6  1  0.91301684  0.72544114  0.58879081  1  0.425014  0  0.322627  0.28887  0  0.918433  0
H  H7  1  0.32419900  0.77467168  0.41135578  1  0.446504  0  0.322648  0.28879  0  0.918657  0
H  H8  1  0.09084499  0.18105417  0.43883248  1  0.423063  0  0.316245  0.280105  0  0.944804  0
H  H9  1  0.65201762  0.31889452  0.56111182  1  0.424197  0  0.316417  0.280402  0  0.944252  0
H  H10  1  0.90915945  0.81894631  0.56117013  1  0.423073  0  0.316249  0.280084  0  0.944838  0
H  H11  1  0.34798015  0.68110535  0.43888566  1  0.424193  0  0.316384  0.280381  0  0.94422  0
H  H12  1  0.95693261  0.43316986  0.76825023  1  0.121888  0  0.126  0.101338  0  1.000767  0
H  H13  1  0.18851454  0.06689298  0.23189791  1  0.137617  0  0.126266  0.102  0  1.000025  0
H  H14  1  0.04306433  0.56682294  0.23174935  1  0.121824  0  0.125974  0.101317  0  1.000814  0
H  H15  1  0.81148147  0.93311038  0.76810102  1  0.137667  0  0.126259  0.102049  0  1.000034  0
H  H16  1  0.83934153  0.35199188  0.60031157  1  0.070331  0  0.105839  0.106138  0  1.048028  0
H  H17  1  0.23908612  0.14797076  0.39994942  1  0.090477  0  0.105606  0.106087  0  1.048376  0
H  H18  1  0.16065511  0.64800236  0.39968628  1  0.070386  0  0.10581  0.106085  0  1.048101  0
H  H19  1  0.76090440  0.85203541  0.60004965  1  0.090255  0  0.105599  0.106075  0  1.0483  0
H  H20  1  0.15699593  0.29001630  0.56761205  1  0.103387  0  0.102475  0.096752  0  1.084567  0
H  H21  1  0.58917377  0.20991430  0.43218547  1  0.083194  0  0.10238  0.096916  0  1.084945  0
H  H22  1  0.84300181  0.70998355  0.43238626  1  0.103399  0  0.102481  0.096772  0  1.084548  0
H  H23  1  0.41082087  0.79009119  0.56781248  1  0.083472  0  0.102384  0.096922  0  1.084898  0
H  H24  1  0.25802280  0.37326519  0.73226232  1  0.127661  0  0.121164  0.089648  0  1.039891  0
H  H25  1  0.52538997  0.12673058  0.26749544  1  0.120432  0  0.121388  0.090492  0  1.039585  0
H  H26  1  0.74197480  0.62673395  0.26773656  1  0.12761  0  0.121149  0.089639  0  1.039874  0
H  H27  1  0.47460317  0.87327349  0.73250330  1  0.120333  0  0.121407  0.090577  0  1.039548  0
H  H28  1  0.63395257  0.07897320  0.18849111  1  0.131999  0  0.111192  0.120753  0  1.032531  0
H  H29  1  0.44561340  0.42081421  0.81161994  1  0.119272  0  0.111053  0.120709  0  1.032512  0
H  H30  1  0.36605232  0.92102942  0.81150980  1  0.132546  0  0.111203  0.120778  0  1.032503  0
H  H31  1  0.55438640  0.57917503  0.18838271  1  0.119526  0  0.111089  0.120757  0  1.032459  0
H  H32  1  0.58698914  0.99379437  0.02207800  1  0.121571  0  0.122298  0.093176  0  1.026706  0
H  H33  1  0.56486650  0.50618946  0.97803024  1  0.117057  0  0.122352  0.093012  0  1.026379  0
H  H34  1  0.41301187  0.00620686  0.97792214  1  0.121237  0  0.12233  0.093212  0  1.02665  0
H  H35  1  0.43513466  0.49380048  0.02197220  1  0.11743  0  0.122381  0.093053  0  1.0263  0
H  H36  1  0.91914197  0.06425669  0.05499773  1  0.133299  0  0.120182  0.09646  0  1.011112  0
H  H37  1  0.86425091  0.43602535  0.94510888  1  0.157534  0  0.119962  0.095812  0  1.010314  0
H  H38  1  0.08085944  0.93574035  0.94500117  1  0.133353  0  0.120177  0.096489  0  1.011085  0
H  H39  1  0.13574811  0.56397172  0.05488847  1  0.15753  0  0.119951  0.095803  0  1.010318  0
H  H40  1  0.98090662  0.15330095  0.22321119  1  0.111009  0  0.099308  0.102466  0  1.061946  0
H  H41  1  0.75802036  0.34681814  0.77690919  1  0.090447  0  0.099455  0.102341  0  1.061255  0
H  H42  1  0.01909671  0.84669961  0.77678689  1  0.111052  0  0.099333  0.102482  0  1.06198  0
H  H43  1  0.24197805  0.65317892  0.22308841  1  0.090465  0  0.099417  0.102246  0  1.061318  0
Au  Au44  1  0.43246973  0.20501261  0.88759234  1  0.256004  0  0.247145  0.009239  0  2.914871  0
Au  Au45  1  0.54483667  0.29470693  0.11224606  1  0.256699  0  0.247149  0.009498  0  2.913145  0
Au  Au46  1  0.56755188  0.79500242  0.11242180  1  0.25608  0  0.247166  0.009252  0  2.914798  0
Au  Au47  1  0.45515499  0.70529575  0.88775179  1  0.256743  0  0.247142  0.009509  0  2.913064  0
Au  Au48  1  0.95900311  0.72517514  0.89518473  1  0.242441  0  0.247355  0.001472  0  3.036329  0
Au  Au49  1  0.06348818  0.77465373  0.10443858  1  0.246886  0  0.247382  0.001193  0  3.035649  0
Au  Au50  1  0.04100519  0.27482957  0.10481745  1  0.242171  0  0.247355  0.00143  0  3.03646  0
Au  Au51  1  0.93651433  0.22534320  0.89556568  1  0.24708  0  0.247322  0.001172  0  3.035677  0
C  C52  1  0.34216497  0.30853083  0.88987492  1  0.790495  0  -0.004529  0.045658  0  3.928159  0
C  C53  1  0.45226681  0.19125618  0.11008029  1  0.814689  0  -0.004412  0.046104  0  3.92781  0
C  C54  1  0.65785107  0.69148007  0.11013453  1  0.790399  0  -0.004478  0.04569  0  3.928089  0
C  C55  1  0.54773003  0.80874569  0.88992348  1  0.814695  0  -0.004415  0.046098  0  3.927937  0
C  C56  1  0.04696110  0.62016150  0.89007728  1  0.816162  0  -0.013986  0.030507  0  3.947642  0
C  C57  1  0.15667745  0.87954617  0.10948311  1  0.797756  0  -0.012586  0.032966  0  3.947105  0
C  C58  1  0.95304056  0.37983691  0.10992299  1  0.816339  0  -0.014016  0.03051  0  3.947811  0
C  C59  1  0.84333628  0.12044710  0.89052921  1  0.798023  0  -0.012562  0.03287  0  3.947575  0
C  C60  1  0.99689174  0.40036687  0.72072556  1  0.463865  0  0.048905  0.085817  0  3.91824  0
C  C61  1  0.27601029  0.09962365  0.27935620  1  0.435522  0  0.048546  0.085549  0  3.919084  0
C  C62  1  0.00310651  0.59962946  0.27927344  1  0.464002  0  0.048921  0.08587  0  3.918081  0
C  C63  1  0.72398710  0.90037759  0.72064372  1  0.435444  0  0.048554  0.08543  0  3.91917  0
C  C64  1  0.93194673  0.35463967  0.62710378  1  0.025321  0  -0.085946  -0.161445  0  3.96847  0
C  C65  1  0.30481643  0.14525095  0.37302597  1  -0.013772  0  -0.085388  -0.161517  0  3.96896  0
C  C66  1  0.06805064  0.64535526  0.37289493  1  0.024857  0  -0.085976  -0.161469  0  3.968402  0
C  C67  1  0.69517696  0.85474821  0.62697208  1  -0.013526  0  -0.085391  -0.161426  0  3.96883  0
C  C68  1  0.98461643  0.31101869  0.56636384  1  -0.014569  0  0.002222  0.057113  0  4.042454  0
C  C69  1  0.41820097  0.18886405  0.43369098  1  -0.035183  0  0.001693  0.057048  0  4.042156  0
C  C70  1  0.01538450  0.68897904  0.43363557  1  -0.014095  0  0.002213  0.057113  0  4.042358  0
C  C71  1  0.58179306  0.81114144  0.56630721  1  -0.034864  0  0.001736  0.056989  0  4.042266  0
C  C72  1  0.10526540  0.31981530  0.60627777  1  -0.059568  0  -0.09047  -0.180628  0  3.950042  0
C  C73  1  0.49881820  0.18010981  0.39363186  1  0.010526  0  -0.090637  -0.181023  0  3.951165  0
C  C74  1  0.89473397  0.68018381  0.39372289  1  -0.059727  0  -0.090454  -0.180632  0  3.949899  0
C  C75  1  0.50117707  0.81989569  0.60636501  1  0.01006  0  -0.090662  -0.181023  0  3.95116  0
C  C76  1  0.16501290  0.36787140  0.70138366  1  0.494786  0  0.057352  0.108773  0  3.872342  0
C  C77  1  0.46335743  0.13208858  0.29849851  1  0.497846  0  0.057264  0.107933  0  3.874044  0
C  C78  1  0.83498568  0.63212983  0.29861661  1  0.494429  0  0.05738  0.108839  0  3.872173  0
C  C79  1  0.53663548  0.86791412  0.70149801  1  0.497908  0  0.057347  0.10796  0  3.873804  0
C  C80  1  0.90816011  0.25988032  0.46964080  1  0.943834  0  0.211359  0.163015  0  4.025273  0
C  C81  1  0.43858465  0.24001642  0.53047483  1  0.922233  0  0.211326  0.162484  0  4.027201  0
C  C82  1  0.09184065  0.74011953  0.53035797  1  0.943858  0  0.211375  0.162984  0  4.025243  0
C  C83  1  0.56141224  0.75998834  0.46952440  1  0.92207  0  0.21129  0.162419  0  4.027207  0
C  C84  1  0.83259757  0.17812609  0.31842882  1  0.954638  0  0.226958  0.193453  0  3.966508  0
C  C85  1  0.51440209  0.32182043  0.68169252  1  0.930551  0  0.227275  0.194474  0  3.967988  0
C  C86  1  0.16740217  0.82187451  0.68156736  1  0.954612  0  0.226923  0.193368  0  3.966583  0
C  C87  1  0.48559508  0.67817661  0.31830640  1  0.930385  0  0.227274  0.194481  0  3.968005  0
C  C88  1  0.81197081  0.12531583  0.22171017  1  -0.037984  0  0.010487  0.066645  0  4.006032  0
C  C89  1  0.59050118  0.37471733  0.77838480  1  -0.010211  0  0.010915  0.065124  0  4.005492  0
C  C90  1  0.18803150  0.87468548  0.77828532  1  -0.037713  0  0.010618  0.066862  0  4.005908  0
C  C91  1  0.40949513  0.62527830  0.22161382  1  -0.010009  0  0.010932  0.065065  0  4.005611  0
C  C92  1  0.70006847  0.07813323  0.16220251  1  -0.009233  0  -0.075687  -0.152857  0  3.948231  0
C  C93  1  0.53801868  0.42185579  0.83791896  1  0.016197  0  -0.075922  -0.15215  0  3.945948  0
C  C94  1  0.29993358  0.92187013  0.83779653  1  -0.009843  0  -0.07573  -0.153032  0  3.948202  0
C  C95  1  0.46197903  0.57813488  0.16208184  1  0.016068  0  -0.075947  -0.152188  0  3.94594  0
C  C96  1  0.67289370  0.03054232  0.06889230  1  0.44756  0  0.051738  0.091879  0  3.904499  0
C  C97  1  0.60403874  0.46951980  0.93120690  1  0.466379  0  0.051874  0.092249  0  3.902041  0
C  C98  1  0.32710851  0.96945891  0.93110821  1  0.447555  0  0.051687  0.091896  0  3.904425  0
C  C99  1  0.39595931  0.53046948  0.06879313  1  0.465741  0  0.051853  0.092276  0  3.901952  0
C  C100  1  0.85845788  0.06922153  0.08731352  1  0.500251  0  0.05286  0.096724  0  3.885898  0
C  C101  1  0.77127650  0.43102648  0.91277260  1  0.479136  0  0.053543  0.097528  0  3.883533  0
C  C102  1  0.14154587  0.93077829  0.91268656  1  0.500282  0  0.052886  0.096762  0  3.885968  0
C  C103  1  0.22872462  0.56896914  0.08722661  1  0.479154  0  0.053555  0.097545  0  3.883594  0
C  C104  1  0.89255867  0.11913216  0.18199289  1  -0.03171  0  -0.085832  -0.167865  0  3.954322  0
C  C105  1  0.71080656  0.38104387  0.81808881  1  -0.0167  0  -0.0861  -0.166691  0  3.952397  0
C  C106  1  0.10744312  0.88086980  0.81800561  1  -0.031918  0  -0.08595  -0.168033  0  3.954411  0
C  C107  1  0.28919454  0.61895173  0.18191122  1  -0.016724  0  -0.086044  -0.16647  0  3.952472  0
C  C108  1  0.52284156  0.10145629  0.88135336  1  0.81021  0  -0.00817  0.043902  0  3.935654  0
C  C109  1  0.64129778  0.39833296  0.11845110  1  0.814293  0  -0.008032  0.043719  0  3.935801  0
C  C110  1  0.47717678  0.89855735  0.11865978  1  0.810429  0  -0.008182  0.044012  0  3.935515  0
C  C111  1  0.35869173  0.60166767  0.88154332  1  0.814563  0  -0.008183  0.043457  0  3.935695  0
C  C112  1  0.86955155  0.82930661  0.90117622  1  0.80399  0  -0.010202  0.037717  0  3.935583  0
C  C113  1  0.96802190  0.67072655  0.09871902  1  0.80622  0  -0.009768  0.037922  0  3.937076  0
C  C114  1  0.13045202  0.17069533  0.09882324  1  0.804371  0  -0.010138  0.037754  0  3.935679  0
C  C115  1  0.03196840  0.32927197  0.90127579  1  0.806297  0  -0.009743  0.037943  0  3.937024  0
N  N116  1  0.28976676  0.37118242  0.89194155  1  -1.279991  0  -0.387314  -0.299376  0  3.626024  0
N  N117  1  0.39760380  0.12871235  0.10797008  1  -1.309281  0  -0.387831  -0.300565  0  3.628431  0
N  N118  1  0.71023544  0.62881881  0.10805896  1  -1.279921  0  -0.387363  -0.299468  0  3.625986  0
N  N119  1  0.60239443  0.87129026  0.89203181  1  -1.309322  0  -0.387795  -0.300569  0  3.628551  0
N  N120  1  0.10259939  0.55995935  0.89392325  1  -1.311079  0  -0.387409  -0.29397  0  3.64485  0
N  N121  1  0.20849448  0.93992866  0.10591482  1  -1.29261  0  -0.388807  -0.296728  0  3.646803  0
N  N122  1  0.89739945  0.44003697  0.10607635  1  -1.311025  0  -0.387363  -0.293937  0  3.644865  0
N  N123  1  0.79151526  0.06006827  0.89408991  1  -1.292773  0  -0.38882  -0.29661  0  3.64727  0
N  N124  1  0.11288797  0.40694106  0.75889362  1  -1.16811  0  -0.323428  -0.131888  0  3.577672  0
N  N125  1  0.35375847  0.09306332  0.24107578  1  -1.164629  0  -0.323054  -0.131915  0  3.579483  0
N  N126  1  0.88710922  0.59305599  0.24110446  1  -1.167745  0  -0.3234  -0.131944  0  3.577417  0
N  N127  1  0.64623821  0.90693724  0.75892244  1  -1.164758  0  -0.323172  -0.132028  0  3.579341  0
N  N128  1  0.79395306  0.24590903  0.44017674  1  -0.694887  0  -0.228042  -0.25517  0  3.254899  0
N  N129  1  0.35395567  0.25404289  0.56010202  1  -0.672729  0  -0.228017  -0.254742  0  3.256544  0
N  N130  1  0.20604800  0.75409224  0.55982090  1  -0.694986  0  -0.22806  -0.255162  0  3.254819  0
N  N131  1  0.64604158  0.74595765  0.43989763  1  -0.672616  0  -0.227927  -0.25453  0  3.256457  0
N  N132  1  0.74750099  0.19578622  0.34707392  1  -0.636743  0  -0.212137  -0.222362  0  3.228389  0
N  N133  1  0.40070248  0.30419600  0.65319914  1  -0.645708  0  -0.212273  -0.222639  0  3.229244  0
N  N134  1  0.25249941  0.80421787  0.65292360  1  -0.636688  0  -0.212085  -0.222328  0  3.228417  0
N  N135  1  0.59929552  0.69580524  0.34680054  1  -0.645816  0  -0.212344  -0.222809  0  3.229398  0
N  N136  1  0.93578281  0.21761502  0.39418381  1  -0.858604  0  -0.138116  0.086508  0  3.713221  0
N  N137  1  0.54169274  0.28229226  0.60584834  1  -0.855652  0  -0.137901  0.085886  0  3.716066  0
N  N138  1  0.06421963  0.78238413  0.60581481  1  -0.85863  0  -0.138102  0.08668  0  3.713114  0
N  N139  1  0.45830422  0.71770971  0.39414958  1  -0.85548  0  -0.137868  0.08598  0  3.716024  0
N  N140  1  0.04445313  0.20953802  0.39169611  1  -0.697816  0  -0.482531  -0.493138  0  3.158567  0
N  N141  1  0.65279252  0.29035813  0.60822933  1  -0.716335  0  -0.48267  -0.492751  0  3.158285  0
N  N142  1  0.95555302  0.79046179  0.60830468  1  -0.698438  0  -0.482566  -0.493182  0  3.158435  0
N  N143  1  0.34720463  0.70964174  0.39176838  1  -0.716384  0  -0.482682  -0.492809  0  3.158256  0
N  N144  1  0.74988057  0.02637659  0.03047100  1  -1.162575  0  -0.31888  -0.130953  0  3.565351  0
N  N145  1  0.71943977  0.47377896  0.96960614  1  -1.187047  0  -0.319395  -0.132051  0  3.565423  0
N  N146  1  0.25012136  0.97362322  0.96952981  1  -1.162601  0  -0.318891  -0.130993  0  3.565486  0
N  N147  1  0.28055999  0.52621594  0.03039411  1  -1.18687  0  -0.319418  -0.132193  0  3.565629  0
N  N148  1  0.58174272  0.04302028  0.88126491  1  -1.30483  0  -0.38663  -0.299156  0  3.614946  0
N  N149  1  0.70025276  0.45689017  0.11867674  1  -1.308418  0  -0.386429  -0.299046  0  3.614053  0
N  N150  1  0.41826521  0.95698578  0.11873971  1  -1.305228  0  -0.386641  -0.299252  0  3.614841  0
N  N151  1  0.29974333  0.54311040  0.88132088  1  -1.308791  0  -0.386333  -0.298793  0  3.61388  0
N  N152  1  0.81278540  0.88914581  0.90581776  1  -1.294225  0  -0.384752  -0.290328  0  3.612704  0
N  N153  1  0.90675325  0.61092436  0.09424600  1  -1.29902  0  -0.385179  -0.290338  0  3.615579  0
N  N154  1  0.18721113  0.11085404  0.09418103  1  -1.294529  0  -0.384772  -0.290317  0  3.6127  0
N  N155  1  0.09324292  0.38907343  0.90575032  1  -1.299456  0  -0.385159  -0.29034  0  3.615511  0
