# generated using pymatgen
data_CuH18C28N4O5
_symmetry_space_group_name_H-M   'P 1'
_cell_length_a   8.78561199
_cell_length_b   10.92403385
_cell_length_c   12.59282963
_cell_angle_alpha   93.15790752
_cell_angle_beta   101.45890675
_cell_angle_gamma   103.74077107
_symmetry_Int_Tables_number   1
_chemical_formula_structural   CuH18C28N4O5
_chemical_formula_sum   'Cu2 H36 C56 N8 O10'
_cell_volume   1143.93900746
_cell_formula_units_Z   2
loop_
 _symmetry_equiv_pos_site_id
 _symmetry_equiv_pos_as_xyz
  1  'x, y, z'
loop_
 _atom_site_type_symbol
 _atom_site_label
 _atom_site_symmetry_multiplicity
 _atom_site_fract_x
 _atom_site_fract_y
 _atom_site_fract_z
 _atom_site_occupancy
 _atom_site_hle17_ddec_charge
 _atom_site_hle17_ddec_spin_density
 _atom_site_hle17_ddec_sum_bond_order
 _atom_site_hle17_magmom
 _atom_site_hse06_10hf_ddec_charge
 _atom_site_hse06_10hf_ddec_spin_density
 _atom_site_hse06_10hf_ddec_sum_bond_order
 _atom_site_hse06_10hf_magmom
 _atom_site_hse06_ddec_charge
 _atom_site_hse06_ddec_spin_density
 _atom_site_hse06_ddec_sum_bond_order
 _atom_site_hse06_magmom
 _atom_site_pbe_cm5_charge
 _atom_site_pbe_ddec_charge
 _atom_site_pbe_ddec_spin_density
 _atom_site_pbe_ddec_sum_bond_order
 _atom_site_pbe_magmom
Cu  Cu0  1  0.52013958  0.43444393  0.22985371  1  0.827267  0.717686  1.820321  0.49  0.799943  0.797805  2.218364  0.603  0.889447  0.874819  2.148212  0.686  0.750721  0.745719  0.743685  2.268618  0.55
Cu  Cu1  1  0.47986844  0.56555837  0.77014680  1  0.827274  -0.717718  1.820426  -0.491  0.799888  -0.797802  2.218578  -0.603  0.889551  -0.874828  2.148335  -0.686  0.750733  0.745687  -0.743699  2.26884  -0.55
H  H2  1  0.14042142  0.60002485  0.63895921  1  0.323063  0.000103  0.93964  0.0  0.300548  9.3e-05  1.009059  0.0  0.309621  8.6e-05  1.001488  0.0  0.306651  0.293961  9.3e-05  1.014726  0.0
H  H3  1  0.85957995  0.39997452  0.36104502  1  0.323063  -0.000102  0.939701  0.0  0.300559  -9.4e-05  1.009089  0.0  0.309638  -8.6e-05  1.001501  0.0  0.306632  0.293972  -9.3e-05  1.014756  0.0
H  H4  1  0.41291276  0.21786951  0.36786846  1  0.097542  0.001215  0.916506  0.002  0.108696  0.00107  0.971785  0.002  0.111785  0.000794  0.969068  0.001  0.126707  0.106657  0.001278  0.97333  0.002
H  H5  1  0.58709583  0.78213471  0.63212986  1  0.097551  -0.001214  0.916575  -0.002  0.108716  -0.001069  0.971837  -0.002  0.111799  -0.000795  0.969135  -0.001  0.126726  0.106676  -0.001278  0.973383  -0.002
H  H6  1  0.27084074  0.20191413  0.52344051  1  0.108224  0.000464  0.944475  0.0  0.124251  0.000514  0.993285  0.001  0.126992  0.000381  0.993049  0.0  0.113709  0.122328  0.000615  0.993257  0.001
H  H7  1  0.72916397  0.79808157  0.47655600  1  0.108169  -0.000455  0.944549  0.0  0.124189  -0.000514  0.993367  -0.001  0.126929  -0.000381  0.99313  0.0  0.113676  0.122267  -0.000615  0.993338  -0.001
H  H8  1  0.17993696  0.38883321  0.58786304  1  0.117054  0.000348  0.940969  0.0  0.126533  7.7e-05  1.003543  0.0  0.130611  6.9e-05  0.999533  0.0  0.112722  0.123382  8.7e-05  1.006668  0.0
H  H9  1  0.82006577  0.61115957  0.41213859  1  0.117025  -0.000347  0.941016  0.0  0.126492  -7.7e-05  1.003609  0.0  0.130628  -6.8e-05  0.999522  0.0  0.112713  0.123344  -8.7e-05  1.00673  0.0
H  H10  1  0.99466401  0.68957182  0.72293064  1  0.090507  2.1e-05  0.974593  0.0  0.09959  1.6e-05  1.040732  0.0  0.102184  8e-06  1.039457  0.0  0.099563  0.097906  2.2e-05  1.041378  0.0
H  H11  1  0.00534613  0.31042944  0.27707723  1  0.090454  -2.2e-05  0.974658  0.0  0.099606  -1.6e-05  1.040716  0.0  0.102171  -8e-06  1.039478  0.0  0.099569  0.097921  -2.2e-05  1.04137  0.0
H  H12  1  0.89153598  0.81602700  0.84848510  1  0.127213  -1.5e-05  0.948297  0.0  0.136662  -1.2e-05  1.008661  0.0  0.140343  -7e-06  1.007521  0.0  0.107571  0.134059  -2.4e-05  1.009595  0.0
H  H13  1  0.10845603  0.18397240  0.15151394  1  0.12722  3e-06  0.948326  0.0  0.136639  1.3e-05  1.008726  0.0  0.140319  7e-06  1.007588  0.0  0.107544  0.13404  2.4e-05  1.00966  0.0
H  H14  1  0.91967076  0.21904321  0.94179938  1  0.0971  -2.2e-05  0.93108  0.0  0.11713  3e-06  0.990828  0.0  0.116877  1e-06  0.992778  0.0  0.104241  0.117063  2e-06  0.989903  0.0
H  H15  1  0.08031684  0.78095335  0.05819653  1  0.097127  1e-06  0.931044  0.0  0.117128  -3e-06  0.990859  0.0  0.116874  -1e-06  0.992813  0.0  0.104241  0.11706  -2e-06  0.989932  0.0
H  H16  1  0.94625013  0.23372710  0.80554150  1  0.075634  6e-06  0.957318  0.0  0.08917  8e-06  1.030012  0.0  0.088688  8e-06  1.031386  0.0  0.0914  0.089754  7e-06  1.02889  0.0
H  H17  1  0.05374480  0.76627421  0.19445725  1  0.075619  -8e-06  0.957356  0.0  0.089169  -9e-06  1.030029  0.0  0.088689  -8e-06  1.0314  0.0  0.091418  0.089754  -7e-06  1.028907  0.0
H  H18  1  0.11170871  0.22202937  0.91239001  1  0.094473  2.7e-05  0.950758  0.0  0.109002  2.1e-05  1.020823  0.0  0.110025  1.6e-05  1.019859  0.0  0.097789  0.108285  2.6e-05  1.021587  0.0
H  H19  1  0.88827830  0.77796146  0.08760946  1  0.094451  -4.7e-05  0.95063  0.0  0.108989  -2.1e-05  1.020702  0.0  0.110012  -1.5e-05  1.019741  0.0  0.097792  0.10827  -2.6e-05  1.021467  0.0
H  H20  1  0.09547416  0.15636971  0.71370866  1  0.108035  2.5e-05  0.956994  0.0  0.120651  1.4e-05  1.013292  0.0  0.123495  1.1e-05  1.012868  0.0  0.103011  0.118578  1.3e-05  1.013849  0.0
H  H21  1  0.90450765  0.84363064  0.28628594  1  0.107995  -2.8e-05  0.957129  0.0  0.120605  -1.3e-05  1.013423  0.0  0.123444  -1.1e-05  1.013003  0.0  0.10301  0.118533  -1.3e-05  1.01398  0.0
H  H22  1  0.19176869  0.02719790  0.58519570  1  0.088915  2.5e-05  0.968373  0.0  0.096415  3.2e-05  1.035494  0.0  0.099791  2.2e-05  1.032511  0.0  0.098478  0.09428  4.4e-05  1.037029  0.0
H  H23  1  0.80822395  0.97280337  0.41480512  1  0.088883  -9e-06  0.968358  0.0  0.096388  -3.2e-05  1.035473  0.0  0.099764  -2.2e-05  1.03249  0.0  0.09846  0.094247  -4.4e-05  1.037027  0.0
H  H24  1  0.35809001  0.91736607  0.30593174  1  0.11664  0.00033  0.91056  0.001  0.129364  4.1e-05  0.962911  0.0  0.133193  9e-06  0.959295  0.0  0.1197  0.126766  5.2e-05  0.96516  0.0
H  H25  1  0.64190844  0.08263522  0.69406984  1  0.116651  -0.000325  0.910548  0.0  0.129393  -4.1e-05  0.962874  0.0  0.133222  -9e-06  0.959256  0.0  0.119713  0.126793  -5.2e-05  0.965123  0.0
H  H26  1  0.50404964  0.89121735  0.15749774  1  0.102093  0.000336  1.001565  0.0  0.111295  0.000403  1.063296  0.001  0.113014  0.000301  1.066232  0.0  0.1052  0.110106  0.000571  1.061331  0.001
H  H27  1  0.49593622  0.10878112  0.84249728  1  0.102087  -0.000343  1.00157  0.0  0.111293  -0.000402  1.063301  -0.001  0.113013  -0.000302  1.066239  0.0  0.105191  0.110102  -0.000571  1.061337  -0.001
H  H28  1  0.57076543  0.68356486  0.12055998  1  0.104734  0.001267  0.925758  0.002  0.111503  0.001074  0.987798  0.002  0.114797  0.00079  0.984483  0.001  0.126071  0.108753  0.001347  0.990706  0.002
H  H29  1  0.42922710  0.31643269  0.87943585  1  0.104719  -0.001269  0.925746  -0.002  0.1115  -0.001075  0.987787  -0.002  0.114794  -0.00079  0.984473  -0.001  0.126054  0.10877  -0.001347  0.990676  -0.002
H  H30  1  0.73165775  0.15054713  0.12506472  1  0.097672  -5.1e-05  0.979227  0.0  0.105838  0.000103  1.043751  0.0  0.108186  6.8e-05  1.043977  0.0  0.098855  0.10406  0.000134  1.043746  0.0
H  H31  1  0.26833563  0.84944948  0.87493036  1  0.097773  4.2e-05  0.979133  0.0  0.105925  -0.000103  1.043665  0.0  0.108275  -6.8e-05  1.043889  0.0  0.098874  0.104146  -0.000134  1.043659  0.0
H  H32  1  0.22555623  0.03233134  0.98383943  1  0.109266  -6.7e-05  0.957568  0.0  0.113972  8e-06  1.025788  0.0  0.117727  2e-06  1.023348  0.0  0.105844  0.111083  1.5e-05  1.027824  0.0
H  H33  1  0.77444094  0.96766623  0.01615621  1  0.109246  6.9e-05  0.957572  0.0  0.113918  -9e-06  1.025833  0.0  0.117672  -2e-06  1.023398  0.0  0.105849  0.111028  -1.5e-05  1.027868  0.0
H  H34  1  0.72631661  0.53586692  0.95768114  1  0.109494  0.000375  0.969156  0.0  0.111678  0.000209  1.043234  0.0  0.115448  0.000172  1.039645  0.0  0.102575  0.108727  0.00022  1.046371  0.0
H  H35  1  0.27369131  0.46413548  0.04231221  1  0.109446  -0.000382  0.969292  0.0  0.111718  -0.000209  1.043255  0.0  0.115496  -0.000172  1.039647  0.0  0.102608  0.108769  -0.00022  1.046397  0.0
H  H36  1  0.11649554  0.46279931  0.18794980  1  0.090042  -4.8e-05  0.978845  0.0  0.09558  -7.5e-05  1.04939  0.0  0.098187  -6.1e-05  1.048419  0.0  0.095726  0.093813  -6.7e-05  1.050152  0.0
H  H37  1  0.88351618  0.53720404  0.81204490  1  0.090049  4.2e-05  0.978863  0.0  0.095528  7.4e-05  1.049498  0.0  0.098151  6e-05  1.048479  0.0  0.095736  0.093764  6.7e-05  1.050256  0.0
C  C38  1  0.37027997  0.29625376  0.39771699  1  0.143268  -0.008517  3.677578  -0.009  0.110186  -0.001508  3.94196  -0.003  0.122217  -0.002468  3.956595  -0.004  0.057441  0.101763  -0.000677  3.932732  -0.002
C  C39  1  0.62972430  0.70374755  0.60228535  1  0.14329  0.008534  3.677614  0.009  0.110176  0.001506  3.942018  0.003  0.122211  0.002467  3.956652  0.004  0.0574  0.10175  0.000678  3.932791  0.002
C  C40  1  0.29118277  0.28920031  0.48470375  1  -0.102572  0.00925  3.719823  0.01  -0.114798  0.004117  3.97461  0.005  -0.121079  0.003759  3.993747  0.004  -0.077145  -0.110371  0.004392  3.961704  0.005
C  C41  1  0.70881885  0.71080007  0.51529661  1  -0.102571  -0.009305  3.71995  -0.01  -0.114789  -0.004119  3.974757  -0.005  -0.121073  -0.003756  3.993908  -0.004  -0.077158  -0.110363  -0.004392  3.961849  -0.005
C  C42  1  0.23987275  0.39182872  0.51961284  1  -0.037466  -0.008721  3.653856  -0.008  -0.073425  -0.002637  3.923083  -0.003  -0.068347  -0.00289  3.935054  -0.003  -0.065819  -0.077051  -0.002475  3.915488  -0.003
C  C43  1  0.76013004  0.60817548  0.48038551  1  -0.037461  0.008764  3.653734  0.008  -0.073371  0.002639  3.922901  0.003  -0.068333  0.002886  3.934848  0.003  -0.065809  -0.076998  0.002476  3.915308  0.003
C  C44  1  0.26786422  0.50305658  0.46638375  1  -0.020247  0.00505  3.781619  0.005  -0.007584  0.002419  4.024172  0.003  -0.009643  0.002149  4.045504  0.002  0.004369  -0.00594  0.002583  4.009729  0.003
C  C45  1  0.73213544  0.49694466  0.53362116  1  -0.020014  -0.005065  3.781334  -0.005  -0.007415  -0.002417  4.023941  -0.003  -0.009475  -0.002147  4.045285  -0.002  0.004417  -0.005776  -0.002582  4.009496  -0.003
C  C46  1  0.22984695  0.61889440  0.49310847  1  0.11029  0.000391  3.780108  0.0  0.087854  0.00053  4.040822  0.0  0.089721  0.000413  4.065028  0.0  0.091819  0.086517  0.000625  4.024493  0.001
C  C47  1  0.77015885  0.38110778  0.50689969  1  0.110251  -0.000406  3.780168  0.0  0.087843  -0.000537  4.040796  0.0  0.089708  -0.000413  4.065011  0.0  0.091849  0.086505  -0.000625  4.024461  -0.001
C  C48  1  0.16127551  0.77942175  0.56904385  1  0.355685  0.000555  3.743904  0.001  0.328285  0.000242  4.011279  0.0  0.343916  0.000241  4.024911  0.0  0.22281  0.317809  0.000226  4.002522  0.0
C  C49  1  0.83873113  0.22057951  0.43096277  1  0.355857  -0.000526  3.744054  0.0  0.328423  -0.000234  4.011369  0.0  0.344081  -0.000242  4.02497  0.0  0.222876  0.317944  -0.000226  4.002606  0.0
C  C50  1  0.10125517  0.85069689  0.64502240  1  -0.043134  -0.000378  3.824836  0.0  -0.026381  -9.7e-05  4.060394  0.0  -0.03202  -8.7e-05  4.084816  0.0  -0.022156  -0.023093  -0.00018  4.043895  0.0
C  C51  1  0.89874884  0.14930343  0.35498303  1  -0.043333  0.000397  3.825313  0.0  -0.026524  0.00011  4.060819  0.0  -0.03217  8.4e-05  4.085233  0.0  -0.022226  -0.023228  0.00018  4.044314  0.0
C  C52  1  0.01635235  0.79172529  0.72015381  1  -0.073342  0.000189  3.760985  0.0  -0.095145  6.1e-05  4.012308  0.0  -0.093758  8e-05  4.032363  0.0  -0.090325  -0.095602  4.5e-05  3.998705  0.0
C  C53  1  0.98364994  0.20827690  0.27985230  1  -0.073227  -0.00021  3.761018  0.0  -0.095095  -6.8e-05  4.012292  0.0  -0.093689  -7.9e-05  4.032362  0.0  -0.090333  -0.095554  -4.5e-05  3.998689  0.0
C  C54  1  0.95917038  0.86164790  0.79121618  1  -0.186926  0.0  3.723916  0.0  -0.20725  3.4e-05  3.977094  0.0  -0.213927  3.7e-05  3.996091  0.0  -0.10418  -0.202933  4.6e-05  3.965034  0.0
C  C55  1  0.04082456  0.13835340  0.20878336  1  -0.186991  5.6e-05  3.723609  0.0  -0.207252  -3.9e-05  3.976905  0.0  -0.213932  -3.6e-05  3.995903  0.0  -0.104155  -0.202938  -4.6e-05  3.964849  0.0
C  C56  1  0.98821029  0.99384349  0.79017270  1  0.278757  -4.8e-05  3.806766  0.0  0.271708  8e-06  4.060724  0.0  0.284404  1.9e-05  4.076743  0.0  0.088479  0.262917  -6e-06  4.050034  0.0
C  C57  1  0.01177763  0.00615400  0.20982490  1  0.278953  1.5e-05  3.806407  0.0  0.271674  2e-06  4.060657  0.0  0.284359  -2.1e-05  4.07668  0.0  0.088481  0.262886  6e-06  4.049967  0.0
C  C58  1  0.98105603  0.19071850  0.88060605  1  -0.085063  0.000141  3.634089  0.0  -0.182911  3.8e-05  3.902834  0.0  -0.176367  2.6e-05  3.908316  0.0  -0.14575  -0.187074  4.1e-05  3.898622  0.0
C  C59  1  0.01893189  0.80927900  0.11939156  1  -0.085002  -7.5e-05  3.63398  0.0  -0.182874  -3.6e-05  3.902703  0.0  -0.176348  -2.7e-05  3.908185  0.0  -0.145784  -0.187038  -4.1e-05  3.898492  0.0
C  C60  1  0.07305731  0.05432841  0.71605430  1  -0.206944  -0.000122  3.773197  0.0  -0.226671  -1.2e-05  4.025236  0.0  -0.234095  -9e-06  4.047365  0.0  -0.10995  -0.221776  -5.1e-05  4.010321  0.0
C  C61  1  0.92692882  0.94566720  0.28394137  1  -0.206975  0.000169  3.773063  0.0  -0.226625  3e-06  4.025162  0.0  -0.234048  9e-06  4.047291  0.0  -0.109949  -0.221731  5.1e-05  4.010247  0.0
C  C62  1  0.12712365  0.98243828  0.64405036  1  -0.054482  8.1e-05  3.756077  0.0  -0.076372  2.6e-05  4.00601  0.0  -0.075061  3.9e-05  4.026535  0.0  -0.083675  -0.076263  6.9e-05  3.991037  0.0
C  C63  1  0.87287215  0.01756207  0.35594923  1  -0.054386  -0.000157  3.755912  0.0  -0.076284  -3.3e-05  4.005795  0.0  -0.07498  -3.8e-05  4.026332  0.0  -0.083633  -0.07618  -6.9e-05  3.990818  0.0
C  C64  1  0.26575809  0.72738113  0.43778973  1  0.102509  0.000928  3.849207  0.001  0.094665  0.000637  4.113391  0.001  0.096955  0.000529  4.136545  0.001  0.088346  0.093164  0.00076  4.097829  0.001
C  C65  1  0.73425003  0.27262106  0.56221873  1  0.10252  -0.000896  3.849383  -0.001  0.094696  -0.000634  4.113476  -0.001  0.096983  -0.000527  4.136639  -0.001  0.088344  0.093197  -0.000759  4.097909  -0.001
C  C66  1  0.34423399  0.72618035  0.34854888  1  -0.013549  0.004814  3.774422  0.005  -0.000627  0.002242  4.006126  0.002  -0.002909  0.001952  4.027935  0.002  0.006658  0.000182  0.002451  3.991771  0.003
C  C67  1  0.65577355  0.27382375  0.65145803  1  -0.013458  -0.004845  3.774579  -0.005  -0.000523  -0.00224  4.006213  -0.002  -0.002803  -0.001952  4.028017  -0.002  0.006711  0.000285  -0.002451  3.991858  -0.003
C  C68  1  0.38828341  0.82844511  0.28776505  1  -0.02055  -0.008507  3.644801  -0.008  -0.045186  -0.002703  3.889031  -0.003  -0.03947  -0.002996  3.900456  -0.003  -0.053336  -0.048795  -0.002444  3.881442  -0.002
C  C69  1  0.61171733  0.17155621  0.71223445  1  -0.020573  0.008507  3.644825  0.008  -0.045226  0.002699  3.88905  0.003  -0.03951  0.002995  3.900473  0.003  -0.053359  -0.048835  0.002444  3.881463  0.002
C  C70  1  0.46854012  0.81405109  0.20560822  1  -0.103423  0.009482  3.709902  0.01  -0.11478  0.004312  3.95581  0.005  -0.121008  0.003829  3.975073  0.005  -0.075007  -0.111347  0.004563  3.943817  0.005
C  C71  1  0.53145308  0.18595211  0.79439042  1  -0.103365  -0.009467  3.709836  -0.01  -0.114725  -0.004311  3.955769  -0.005  -0.120956  -0.00383  3.975033  -0.005  -0.074953  -0.111292  -0.004564  3.943783  -0.005
C  C72  1  0.50737197  0.69877729  0.18442242  1  0.148542  -0.007738  3.641809  -0.008  0.120081  -0.000998  3.89557  -0.002  0.13235  -0.002089  3.909425  -0.003  0.060637  0.112036  -0.000103  3.887578  -0.001
C  C73  1  0.49262298  0.30122783  0.81557497  1  0.148418  0.007749  3.641807  0.008  0.11995  0.001001  3.895641  0.002  0.132218  0.002089  3.909508  0.003  0.060629  0.111891  0.000103  3.887648  0.001
C  C74  1  0.38640356  0.61259190  0.32167037  1  0.106718  -0.001156  3.799801  -0.002  0.100052  0.00113  4.044848  0.0  0.104027  0.000244  4.070071  -0.001  0.108283  0.097953  0.001804  4.028507  0.001
C  C75  1  0.61359669  0.38741125  0.67833474  1  0.106616  0.001165  3.799754  0.002  0.099974  -0.001133  4.044784  0.0  0.103944  -0.000244  4.07002  0.001  0.108268  0.097875  -0.001803  4.028442  -0.001
C  C76  1  0.34842069  0.50278724  0.37905641  1  0.120528  -0.001181  3.777156  -0.002  0.112343  0.000949  4.023649  0.0  0.117695  0.00012  4.046578  -0.001  0.108069  0.107939  0.001543  4.008655  0.001
C  C77  1  0.65158098  0.49721308  0.62094792  1  0.120435  0.001173  3.777256  0.002  0.11227  -0.000944  4.023718  0.0  0.117622  -0.000121  4.046656  0.001  0.108007  0.10787  -0.001543  4.00872  -0.001
C  C78  1  0.45239643  0.21674194  0.11890269  1  0.622449  -0.005774  3.903666  -0.009  0.582994  -0.000535  4.200007  -0.003  0.620037  -0.000986  4.194906  -0.003  0.195468  0.557835  1.1e-05  4.202885  -0.003
C  C79  1  0.54759668  0.78325371  0.88109388  1  0.622168  0.005775  3.903786  0.009  0.582736  0.000541  4.200104  0.003  0.619778  0.000984  4.195019  0.003  0.195357  0.557573  -1.1e-05  4.202973  0.003
C  C80  1  0.47618127  0.10253211  0.06023348  1  -0.055698  0.005995  3.754924  0.006  -0.031883  0.003165  3.981113  0.004  -0.037927  0.002107  4.001025  0.003  -0.016542  -0.027849  0.00368  3.967361  0.004
C  C81  1  0.52380950  0.89745970  0.93976495  1  -0.055534  -0.00602  3.754725  -0.006  -0.031751  -0.003166  3.980934  -0.004  -0.037794  -0.00211  4.000841  -0.003  -0.016557  -0.027715  -0.003679  3.967169  -0.004
C  C82  1  0.63095415  0.08429104  0.07002478  1  -0.080241  0.002589  3.732166  0.002  -0.101386  0.001234  3.978715  0.001  -0.102166  0.000954  3.998888  0.001  -0.086089  -0.100671  0.001072  3.964935  0.001
C  C83  1  0.36903839  0.91570268  0.92997399  1  -0.080443  -0.002533  3.73218  -0.002  -0.101572  -0.001233  3.978736  -0.001  -0.102351  -0.000951  3.998907  -0.001  -0.086143  -0.100854  -0.001072  3.96495  -0.001
C  C84  1  0.34515729  0.01769839  0.98999988  1  -0.08069  0.002757  3.729439  0.003  -0.106346  0.001467  3.986286  0.002  -0.107659  0.001035  4.00603  0.001  -0.084933  -0.105357  0.001811  3.97301  0.002
C  C85  1  0.65483349  0.98229342  0.00999855  1  -0.080706  -0.002779  3.729216  -0.003  -0.106336  -0.001468  3.986146  -0.002  -0.10765  -0.001032  4.00589  -0.001  -0.084935  -0.105341  -0.001811  3.972857  -0.002
C  C86  1  0.81765428  0.49418127  0.16842051  1  0.642832  -0.003055  3.898695  -0.007  0.599349  0.001379  4.194928  -0.001  0.637157  0.000607  4.186627  -0.001  0.208714  0.573577  0.002061  4.199688  -0.001
C  C87  1  0.18236332  0.50582202  0.83158051  1  0.642744  0.003074  3.898987  0.007  0.599256  -0.001367  4.195159  0.001  0.637066  -0.000607  4.186868  0.001  0.20864  0.573474  -0.002061  4.19993  0.001
C  C88  1  0.91158673  0.49753242  0.08110231  1  -0.064191  0.0122  3.761185  0.012  -0.034336  0.005837  3.976908  0.006  -0.041201  0.004515  3.998493  0.005  -0.014532  -0.029526  0.006814  3.961912  0.007
C  C89  1  0.08842705  0.50247377  0.91889282  1  -0.064024  -0.012244  3.761274  -0.012  -0.034049  -0.005838  3.976786  -0.006  -0.04092  -0.004508  3.998371  -0.005  -0.014436  -0.029231  -0.006813  3.961797  -0.007
C  C90  1  0.84505981  0.51829877  0.97502949  1  -0.068433  -0.004111  3.725384  -0.004  -0.091874  -0.00074  3.973072  -0.001  -0.092  -0.000796  3.992799  -0.001  -0.084715  -0.091237  -0.000873  3.95932  -0.001
C  C91  1  0.15495164  0.48170742  0.02496455  1  -0.068432  0.004138  3.725531  0.004  -0.091972  0.000741  3.973168  0.001  -0.092094  0.000794  3.992889  0.001  -0.084735  -0.091348  0.000873  3.95942  0.001
C  C92  1  0.06672462  0.47923992  0.10533160  1  -0.074784  -0.002344  3.734483  -0.002  -0.098108  0.000299  3.983137  0.0  -0.099917  -7.9e-05  4.00529  0.0  -0.08741  -0.096777  0.000599  3.967865  0.001
C  C93  1  0.93328884  0.52076535  0.89466186  1  -0.074887  0.002375  3.734676  0.002  -0.098208  -0.000298  3.983275  0.0  -0.100006  7.9e-05  4.005431  0.0  -0.087428  -0.096871  -0.000598  3.967972  -0.001
N  N94  1  0.39800156  0.40072248  0.34720360  1  -0.339101  0.070942  3.374214  0.086  -0.295357  0.053528  3.67958  0.069  -0.323535  0.045982  3.697315  0.063  -0.350226  -0.278397  0.057509  3.670187  0.072
N  N95  1  0.60199983  0.59928070  0.65279928  1  -0.339151  -0.070945  3.374241  -0.086  -0.295366  -0.053529  3.679564  -0.069  -0.323586  -0.04598  3.697338  -0.063  -0.350163  -0.278414  -0.05751  3.670179  -0.072
N  N96  1  0.46778838  0.60174871  0.24194385  1  -0.336213  0.073455  3.373121  0.088  -0.292052  0.055851  3.6736  0.072  -0.321779  0.048014  3.693309  0.065  -0.349968  -0.274985  0.060398  3.663364  0.075
N  N97  1  0.53221041  0.39825731  0.75805806  1  -0.33603  -0.073458  3.373093  -0.088  -0.29191  -0.055854  3.673646  -0.072  -0.321678  -0.048011  3.693398  -0.065  -0.34999  -0.274852  -0.060395  3.663428  -0.075
N  N98  1  0.16236639  0.65401291  0.57512858  1  -0.373486  0.000792  3.35113  0.001  -0.312217  0.000489  3.582489  0.0  -0.330723  0.000473  3.596762  0.0  -0.37349  -0.300186  0.000482  3.573159  0.0
N  N99  1  0.83763850  0.34599026  0.42487634  1  -0.373541  -0.000799  3.351236  -0.001  -0.31223  -0.00049  3.582435  0.0  -0.33072  -0.000473  3.59664  0.0  -0.373476  -0.300214  -0.000482  3.573142  0.0
N  N100  1  0.22206988  0.82568462  0.48535263  1  -0.44807  0.00047  2.919275  0.001  -0.42624  0.000245  3.187941  0.0  -0.440015  0.000217  3.20027  0.0  -0.348594  -0.417566  0.000261  3.179584  0.0
N  N101  1  0.77794319  0.17431853  0.51465653  1  -0.448192  -0.000494  2.919391  -0.001  -0.426393  -0.00025  3.188059  0.0  -0.440177  -0.000217  3.200388  0.0  -0.348654  -0.417715  -0.000261  3.1797  0.0
O  O102  1  0.34380314  0.26766741  0.07732799  1  -0.606523  0.002095  1.916945  0.004  -0.573034  0.00088  2.154595  0.002  -0.60103  -0.000505  2.145335  0.0  -0.316557  -0.553674  0.00258  2.16099  0.004
O  O103  1  0.65619021  0.73232540  0.92266766  1  -0.606462  -0.002085  1.917049  -0.004  -0.572942  -0.000883  2.15464  -0.002  -0.600961  0.000504  2.145404  0.0  -0.316485  -0.553583  -0.00258  2.161023  -0.004
O  O104  1  0.55287178  0.26199670  0.21104882  1  -0.57374  0.1267  1.984453  0.159  -0.557353  0.074568  2.259807  0.103  -0.603364  0.057221  2.256276  0.084  -0.332849  -0.526728  0.085014  2.261859  0.113
O  O105  1  0.44712421  0.73800089  0.78894507  1  -0.573644  -0.126714  1.984486  -0.159  -0.557263  -0.074574  2.259838  -0.103  -0.603307  -0.057221  2.256327  -0.084  -0.33282  -0.526647  -0.085017  2.261893  -0.113
O  O106  1  0.66741256  0.48844289  0.13461832  1  -0.579438  0.093285  2.076649  0.119  -0.547082  0.057554  2.355184  0.081  -0.589797  0.04515  2.346646  0.067  -0.324259  -0.518261  0.065228  2.361019  0.088
O  O107  1  0.33260248  0.51156704  0.86538117  1  -0.579378  -0.093273  2.076987  -0.119  -0.547036  -0.057554  2.355554  -0.081  -0.589778  -0.045146  2.34701  -0.067  -0.324235  -0.518222  -0.06522  2.361402  -0.088
O  O108  1  0.88824896  0.49731732  0.26665697  1  -0.634457  0.002128  1.984481  0.003  -0.5979  0.001041  2.225477  0.002  -0.622435  0.000134  2.215038  0.001  -0.325516  -0.580071  0.001901  2.231841  0.003
O  O109  1  0.11176764  0.50267558  0.73334092  1  -0.634428  -0.002143  1.984328  -0.003  -0.597853  -0.00105  2.225308  -0.002  -0.622386  -0.000135  2.214873  -0.001  -0.325518  -0.580026  -0.001901  2.231675  -0.003
O  O110  1  0.92926341  0.05478330  0.86363421  1  -0.253761  -0.000114  2.340584  0.0  -0.17905  -3e-05  2.580704  0.0  -0.197694  -4e-06  2.584025  0.0  -0.184595  -0.165438  -2.3e-05  2.577312  0.0
O  O111  1  0.07071688  0.94521233  0.13635832  1  -0.253868  0.000113  2.340445  0.0  -0.179042  3.1e-05  2.580614  0.0  -0.197647  5e-06  2.583909  0.0  -0.184589  -0.165428  2.4e-05  2.577221  0.0
