# generated using pymatgen
data_Gd2CoH28(C8O9)2
_symmetry_space_group_name_H-M   'P 1'
_cell_length_a   8.84397473
_cell_length_b   9.10465669
_cell_length_c   10.52251182
_cell_angle_alpha   81.69501657
_cell_angle_beta   71.42197154
_cell_angle_gamma   78.40713154
_symmetry_Int_Tables_number   1
_chemical_formula_structural   Gd2CoH28(C8O9)2
_chemical_formula_sum   'Gd2 Co1 H28 C16 O18'
_cell_volume   783.79546457
_cell_formula_units_Z   1
loop_
 _symmetry_equiv_pos_site_id
 _symmetry_equiv_pos_as_xyz
  1  'x, y, z'
loop_
 _atom_site_type_symbol
 _atom_site_label
 _atom_site_symmetry_multiplicity
 _atom_site_fract_x
 _atom_site_fract_y
 _atom_site_fract_z
 _atom_site_occupancy
 _atom_site_hle17_ddec_charge
 _atom_site_hle17_ddec_spin_density
 _atom_site_hle17_ddec_sum_bond_order
 _atom_site_hle17_magmom
 _atom_site_hse06_10hf_ddec_charge
 _atom_site_hse06_10hf_ddec_spin_density
 _atom_site_hse06_10hf_ddec_sum_bond_order
 _atom_site_hse06_10hf_magmom
 _atom_site_hse06_ddec_charge
 _atom_site_hse06_ddec_spin_density
 _atom_site_hse06_ddec_sum_bond_order
 _atom_site_hse06_magmom
 _atom_site_pbe_cm5_charge
 _atom_site_pbe_ddec_charge
 _atom_site_pbe_ddec_spin_density
 _atom_site_pbe_ddec_sum_bond_order
 _atom_site_pbe_magmom
Gd  Gd0  1  0.91026779  0.07045576  0.68969340  1  2.138892  0.001297  1.80455  0.0  2.034367  0.000571  2.181505  0.0  2.094797  0.001011  2.119318  0.0  1.464937  1.988365  1.5e-05  2.230216  -0.001
Gd  Gd1  1  0.08971955  0.92954641  0.31031199  1  2.138855  0.001295  1.804538  0.0  2.034268  0.000569  2.181589  0.0  2.094685  0.001008  2.119432  0.0  1.464936  1.988314  1.4e-05  2.230206  -0.001
Co  Co2  1  0.00000350  0.99998991  0.99999022  1  1.154538  -2.840849  1.937101  -2.603  1.137777  -2.84605  2.332638  -2.665  1.209906  -2.885048  2.261075  -2.738  0.680563  1.077908  -2.804643  2.38663  -2.589
H  H3  1  0.82560704  0.35281839  0.06680803  1  0.149136  0.000221  0.929347  0.0  0.167388  0.000211  0.985167  0.0  0.170216  0.000205  0.983861  0.0  0.104701  0.165299  0.00021  0.986242  0.0
H  H4  1  0.17441035  0.64717525  0.93319602  1  0.149049  0.000221  0.929309  0.0  0.167325  0.000211  0.985117  0.0  0.170151  0.000205  0.983812  0.0  0.10465  0.165238  0.00021  0.986195  0.0
H  H5  1  0.63782230  0.42422711  0.02846421  1  0.135111  -0.000123  0.937333  0.0  0.15441  -0.000142  0.995444  0.0  0.156788  -9.9e-05  0.994296  0.0  0.101606  0.152712  -0.000201  0.99626  0.0
H  H6  1  0.36218473  0.57578731  0.97152043  1  0.135009  -0.000123  0.937308  0.0  0.154316  -0.000142  0.99543  0.0  0.156695  -9.9e-05  0.99428  0.0  0.101552  0.152617  -0.0002  0.996245  0.0
H  H7  1  0.81606137  0.49894185  0.93648147  1  0.139226  1e-05  0.937998  0.0  0.161436  -9.9e-05  0.99393  0.0  0.163154  -6.9e-05  0.99415  0.0  0.106668  0.160044  -0.000134  0.993969  0.0
H  H8  1  0.18392843  0.50105830  0.06353121  1  0.139171  1e-05  0.937961  0.0  0.161383  -9.9e-05  0.993916  0.0  0.163094  -6.9e-05  0.994144  0.0  0.106651  0.159992  -0.000134  0.993953  0.0
H  H9  1  0.73955107  0.74235094  0.10117627  1  0.145946  0.000195  0.923483  0.0  0.164885  0.000192  0.977786  0.0  0.167637  0.000174  0.976387  0.0  0.101786  0.162836  0.000205  0.978953  0.0
H  H10  1  0.26046300  0.25764350  0.89881802  1  0.145983  0.000195  0.923372  0.0  0.164899  0.000192  0.977677  0.0  0.167656  0.000174  0.976277  0.0  0.101801  0.16285  0.000205  0.978843  0.0
H  H11  1  0.59975156  0.72106984  0.01484672  1  0.13646  -4.2e-05  0.941292  0.0  0.155736  -0.000124  1.002147  0.0  0.157602  -7.8e-05  1.001878  0.0  0.101175  0.154321  -0.000189  1.002418  0.0
H  H12  1  0.40025516  0.27892365  0.98515899  1  0.136449  -4.2e-05  0.941254  0.0  0.155684  -0.000124  1.002143  0.0  0.157551  -7.8e-05  1.001873  0.0  0.101133  0.15427  -0.000189  1.00242  0.0
H  H13  1  0.56201185  0.88065482  0.10279899  1  0.173444  -0.000207  0.938311  0.0  0.190778  -0.000246  0.99568  0.0  0.194404  -0.000158  0.993875  0.0  0.113221  0.188147  -0.000361  0.997032  -0.001
H  H14  1  0.43799703  0.11934182  0.89719625  1  0.173387  -0.000207  0.938422  0.0  0.190697  -0.000246  0.9958  0.0  0.194337  -0.000158  0.993979  0.0  0.113196  0.188069  -0.000361  0.997146  -0.001
H  H15  1  0.49174328  0.86947690  0.57783687  1  0.134262  -0.000315  0.94382  0.0  0.15295  -0.000311  1.001634  0.0  0.155653  -0.000221  1.000317  0.0  0.097047  0.150984  -0.00041  1.002626  0.0
H  H16  1  0.50825899  0.13051436  0.42217308  1  0.134239  -0.000315  0.943765  0.0  0.152905  -0.000311  1.001623  0.0  0.155609  -0.000221  1.000306  0.0  0.097015  0.150938  -0.00041  1.002612  0.0
H  H17  1  0.45399249  0.72581305  0.71350709  1  0.126982  0.000606  0.941224  0.0  0.146249  0.000275  1.001453  0.0  0.148423  0.000188  1.000953  0.0  0.098512  0.144502  0.000401  1.00204  0.0
H  H18  1  0.54600535  0.27418266  0.28650331  1  0.126916  0.000606  0.941247  0.0  0.146176  0.000275  1.001481  0.0  0.148349  0.000188  1.000982  0.0  0.098465  0.144429  0.000401  1.002067  0.0
H  H19  1  0.52494109  0.88660856  0.73486431  1  0.168346  0.000341  0.957819  0.0  0.184756  6.5e-05  1.01678  0.0  0.188702  5.6e-05  1.014861  0.0  0.107036  0.181763  7.7e-05  1.018361  0.0
H  H20  1  0.47505869  0.11339714  0.26513757  1  0.16831  0.00034  0.957838  0.0  0.184715  6.5e-05  1.016799  0.0  0.188662  5.6e-05  1.01488  0.0  0.107032  0.181721  7.7e-05  1.018384  0.0
H  H21  1  0.19410168  0.32162937  0.25428390  1  0.132591  -2.6e-05  0.961868  0.0  0.14997  -4.8e-05  1.023374  0.0  0.151972  -2.8e-05  1.023274  0.0  0.098862  0.148447  -7.2e-05  1.023628  0.0
H  H22  1  0.80584252  0.67837944  0.74570439  1  0.132521  -2.6e-05  0.962006  0.0  0.150025  -4.8e-05  1.02334  0.0  0.152025  -2.8e-05  1.023242  0.0  0.098873  0.148499  -7.2e-05  1.023597  0.0
H  H23  1  0.27056012  0.38722796  0.36984033  1  0.138924  -6e-06  0.931839  0.0  0.159364  -1.8e-05  0.988771  0.0  0.161858  -1.3e-05  0.98748  0.0  0.104272  0.157617  -1.9e-05  0.989715  0.0
H  H24  1  0.72941015  0.61279564  0.63013292  1  0.138864  -7e-06  0.931609  0.0  0.159277  -1.8e-05  0.988606  0.0  0.161771  -1.4e-05  0.987312  0.0  0.104236  0.157527  -1.9e-05  0.989553  0.0
H  H25  1  0.07940469  0.47425875  0.35600608  1  0.166027  7e-06  0.948134  0.0  0.182396  4e-06  1.007606  0.0  0.186151  6e-06  1.0055  0.0  0.107495  0.179666  5e-06  1.009258  0.0
H  H26  1  0.92057812  0.52575465  0.64399884  1  0.16619  7e-06  0.947892  0.0  0.182428  4e-06  1.00751  0.0  0.18618  6e-06  1.005409  0.0  0.107551  0.179706  5e-06  1.009155  0.0
H  H27  1  0.66039148  0.25934072  0.56939627  1  0.438231  -0.0  0.809243  0.0  0.427963  -3e-06  0.847956  0.0  0.435447  0.0  0.83752  0.0  0.3405  0.422489  2e-06  0.85569  0.0
H  H28  1  0.33960830  0.74066398  0.43061050  1  0.43822  -0.0  0.809273  0.0  0.427957  -3e-06  0.847973  0.0  0.43544  0.0  0.837538  0.0  0.340553  0.422484  2e-06  0.855705  0.0
H  H29  1  0.74366357  0.11958305  0.47711486  1  0.437267  1.9e-05  0.868625  0.0  0.403409  2.1e-05  0.936951  0.0  0.415183  1.7e-05  0.920051  0.0  0.298563  0.395109  2.2e-05  0.948839  0.0
H  H30  1  0.25635468  0.88039566  0.52288060  1  0.437027  1.9e-05  0.868958  0.0  0.403208  2e-05  0.937221  0.0  0.41498  1.7e-05  0.920325  0.0  0.298513  0.394909  2.2e-05  0.949107  0.0
C  C31  1  0.27429106  0.92172383  0.74433549  1  0.788816  0.010214  3.771564  0.007  0.756509  0.003226  4.057548  0.001  0.793071  0.002088  4.047226  0.0  0.234724  0.730406  0.00498  4.064625  0.002
C  C32  1  0.72571290  0.07827285  0.25566473  1  0.788832  0.010203  3.771856  0.007  0.756629  0.003224  4.057651  0.001  0.793186  0.002088  4.047329  0.0  0.234806  0.73053  0.004976  4.064728  0.002
C  C33  1  0.76953090  0.39554569  0.98689367  1  -0.444084  -8.7e-05  3.646349  0.0  -0.520089  -6.8e-05  3.874388  0.0  -0.526984  8.6e-05  3.876738  0.0  -0.234745  -0.515095  -0.000274  3.872978  0.0
C  C34  1  0.23047459  0.60444781  0.01311328  1  -0.443827  -8.7e-05  3.646019  0.0  -0.51985  -6.8e-05  3.874131  0.0  -0.526736  8.6e-05  3.876489  0.0  -0.234653  -0.514862  -0.000273  3.872718  0.0
C  C35  1  0.65951831  0.80087035  0.04249919  1  -0.459179  -7.2e-05  3.636442  0.0  -0.535431  -0.000114  3.869479  0.0  -0.542747  8e-05  3.870519  0.0  -0.242067  -0.530102  -0.000392  3.868994  -0.001
C  C36  1  0.34049937  0.19912312  0.95749815  1  -0.459156  -7.1e-05  3.636357  0.0  -0.535337  -0.000113  3.869252  0.0  -0.542673  8e-05  3.870283  0.0  -0.24202  -0.530006  -0.000392  3.868767  -0.001
C  C37  1  0.81311526  0.28299560  0.88448941  1  0.776392  1.6e-05  3.783391  -0.001  0.742278  -0.0028  4.079575  -0.004  0.777983  -0.001839  4.070775  -0.003  0.212668  0.716802  -0.003896  4.085065  -0.006
C  C38  1  0.18688256  0.71701354  0.11551532  1  0.776248  1.7e-05  3.783527  -0.001  0.742053  -0.002798  4.079842  -0.004  0.777752  -0.001838  4.071053  -0.003  0.212568  0.71659  -0.003894  4.085315  -0.006
C  C39  1  0.74968228  0.88639536  0.91860907  1  0.76909  -0.000766  3.798792  -0.002  0.729541  -0.003475  4.10565  -0.005  0.765199  -0.002278  4.096525  -0.003  0.21202  0.704193  -0.004986  4.111253  -0.006
C  C40  1  0.25033141  0.11359932  0.08139383  1  0.769095  -0.000764  3.798557  -0.002  0.729684  -0.003472  4.105179  -0.005  0.765339  -0.002276  4.096047  -0.003  0.212032  0.704333  -0.004982  4.110789  -0.006
C  C41  1  0.44764552  0.84804183  0.68753645  1  -0.473428  -0.003064  3.650033  -0.005  -0.548484  -0.001647  3.878016  -0.003  -0.556725  -0.001182  3.879441  -0.002  -0.246524  -0.542456  -0.002103  3.877362  -0.003
C  C42  1  0.55235385  0.15195270  0.31247090  1  -0.47326  -0.003063  3.649921  -0.005  -0.548333  -0.001647  3.877875  -0.003  -0.556576  -0.001182  3.879309  -0.002  -0.246471  -0.542297  -0.002103  3.877212  -0.003
C  C43  1  0.16127431  0.36565748  0.35247161  1  -0.457067  -2.4e-05  3.632124  0.0  -0.53047  -5e-05  3.858316  0.0  -0.537935  -2.7e-05  3.860101  0.0  -0.239019  -0.525234  -6.3e-05  3.857089  0.0
C  C44  1  0.83869649  0.63434840  0.64751540  1  -0.45713  -2.4e-05  3.631863  0.0  -0.530477  -5e-05  3.858071  0.0  -0.537941  -2.7e-05  3.859861  0.0  -0.23906  -0.525246  -6.3e-05  3.856851  0.0
C  C45  1  0.08339213  0.25731631  0.46373725  1  0.792828  -3e-05  3.801575  0.0  0.759386  -5.4e-05  4.090258  0.0  0.793748  -2.9e-05  4.080993  0.0  0.222524  0.736021  -3.7e-05  4.095438  0.0
C  C46  1  0.91659800  0.74269036  0.53626494  1  0.792827  -3e-05  3.801539  0.0  0.759317  -5.4e-05  4.090288  0.0  0.793677  -2.9e-05  4.081023  0.0  0.222476  0.735949  -3.7e-05  4.095473  0.0
O  O47  1  0.18505898  0.95601934  0.66443765  1  -0.750545  0.002284  2.041461  0.001  -0.696286  0.001528  2.273356  0.001  -0.724094  0.001402  2.260874  0.001  -0.384821  -0.676683  0.001766  2.282199  0.001
O  O48  1  0.81494513  0.04398395  0.33555591  1  -0.750673  0.002282  2.041655  0.001  -0.696422  0.001528  2.273532  0.001  -0.724226  0.001401  2.261048  0.001  -0.384885  -0.676823  0.001765  2.282368  0.001
O  O49  1  0.03263466  0.29190534  0.58422342  1  -0.684883  -0.000134  1.945455  0.0  -0.644491  -0.000127  2.167257  0.0  -0.670141  -7.1e-05  2.158121  0.0  -0.368529  -0.626503  -0.000171  2.17331  0.0
O  O50  1  0.96735713  0.70809906  0.41577772  1  -0.684866  -0.000134  1.945322  0.0  -0.644446  -0.000127  2.167172  0.0  -0.670095  -7.2e-05  2.158037  0.0  -0.368484  -0.626466  -0.000171  2.173221  0.0
O  O51  1  0.90373359  0.88669208  0.89318342  1  -0.759154  -0.025559  2.090748  -0.044  -0.72751  -0.020741  2.365024  -0.031  -0.762589  -0.015735  2.35216  -0.023  -0.377017  -0.699695  -0.026235  2.372515  -0.039
O  O52  1  0.09627779  0.11330822  0.10682021  1  -0.759122  -0.025541  2.090721  -0.044  -0.727505  -0.020727  2.364879  -0.031  -0.762594  -0.015724  2.352049  -0.023  -0.377004  -0.69972  -0.02622  2.372405  -0.039
O  O53  1  0.94429697  0.18404668  0.87260245  1  -0.755093  -0.024622  2.117601  -0.042  -0.721753  -0.020686  2.39026  -0.031  -0.757019  -0.015888  2.376874  -0.024  -0.387736  -0.694015  -0.025846  2.398067  -0.038
O  O54  1  0.05570902  0.81595695  0.12740202  1  -0.754972  -0.024615  2.117686  -0.042  -0.721608  -0.020681  2.3904  -0.031  -0.756868  -0.015885  2.377018  -0.024  -0.387686  -0.693885  -0.02584  2.398198  -0.038
O  O55  1  0.67917936  0.95887545  0.83528176  1  -0.676887  -0.007155  1.969707  -0.013  -0.631694  -0.005973  2.199349  -0.011  -0.659332  -0.004206  2.191622  -0.008  -0.359485  -0.6118  -0.008055  2.204438  -0.014
O  O56  1  0.32083277  0.04111472  0.16472310  1  -0.676965  -0.007152  1.969342  -0.013  -0.631777  -0.00597  2.198862  -0.011  -0.659411  -0.004204  2.191123  -0.008  -0.359516  -0.61189  -0.008052  2.203953  -0.014
O  O57  1  0.72948736  0.28604359  0.80622584  1  -0.671696  -0.006515  1.891274  -0.012  -0.634837  -0.005395  2.111981  -0.01  -0.661446  -0.00384  2.103678  -0.007  -0.365132  -0.615815  -0.007247  2.11757  -0.013
O  O58  1  0.27052490  0.71396661  0.19376668  1  -0.671658  -0.006515  1.891346  -0.012  -0.63476  -0.005394  2.112088  -0.01  -0.661367  -0.00384  2.103791  -0.007  -0.365073  -0.61575  -0.007246  2.117666  -0.013
O  O59  1  0.06474558  0.12845398  0.43826668  1  -0.821013  -5e-06  2.089139  0.0  -0.772042  -3.6e-05  2.341216  0.0  -0.801747  -2.6e-05  2.330402  0.0  -0.443085  -0.750391  -0.000159  2.348364  0.0
O  O60  1  0.93525940  0.87154282  0.56173708  1  -0.820978  -5e-06  2.089165  0.0  -0.772058  -3.6e-05  2.341392  0.0  -0.801765  -2.5e-05  2.330581  0.0  -0.443094  -0.750403  -0.000159  2.34854  0.0
O  O61  1  0.71282108  0.15505371  0.57052778  1  -0.886119  -4e-06  1.856146  0.0  -0.845975  -8e-06  2.03158  0.0  -0.865515  6e-06  2.000983  0.0  -0.626102  -0.831704  -3.2e-05  2.053201  0.0
O  O62  1  0.28718703  0.84494738  0.42946512  1  -0.885899  -4e-06  1.856403  0.0  -0.845785  -8e-06  2.031793  0.0  -0.86532  5e-06  2.001201  0.0  -0.626118  -0.831522  -3.2e-05  2.053405  0.0
O  O63  1  0.22557686  0.94242205  0.86772573  1  -0.626025  -0.026045  2.074881  -0.055  -0.583508  -0.020919  2.324568  -0.037  -0.616564  -0.017021  2.31183  -0.03  -0.294286  -0.559082  -0.024498  2.333403  -0.043
O  O64  1  0.77441310  0.05758472  0.13228028  1  -0.626025  -0.026028  2.074976  -0.055  -0.58357  -0.020909  2.324664  -0.037  -0.616623  -0.017013  2.31193  -0.03  -0.294311  -0.559147  -0.024487  2.333496  -0.043
