# generated using pymatgen
data_CdH8C10Br2(NO)2
_symmetry_space_group_name_H-M   'P 1'
_cell_length_a   3.97564152
_cell_length_b   8.37056724
_cell_length_c   18.56482771
_cell_angle_alpha   92.27319471
_cell_angle_beta   90.03695753
_cell_angle_gamma   103.56732649
_symmetry_Int_Tables_number   1
_chemical_formula_structural   CdH8C10Br2(NO)2
_chemical_formula_sum   'Cd2 H16 C20 Br4 N4 O4'
_cell_volume   600.06324490
_cell_formula_units_Z   2
loop_
 _symmetry_equiv_pos_site_id
 _symmetry_equiv_pos_as_xyz
  1  'x, y, z'
loop_
 _atom_site_type_symbol
 _atom_site_label
 _atom_site_symmetry_multiplicity
 _atom_site_fract_x
 _atom_site_fract_y
 _atom_site_fract_z
 _atom_site_occupancy
 _atom_site_hle17_bader_spin_density
 _atom_site_hle17_ddec_charge
 _atom_site_hle17_ddec_spin_density
 _atom_site_hle17_ddec_sum_bond_order
 _atom_site_hle17_magmom
 _atom_site_hse06_10hf_bader_spin_density
 _atom_site_hse06_10hf_ddec_charge
 _atom_site_hse06_10hf_ddec_spin_density
 _atom_site_hse06_10hf_ddec_sum_bond_order
 _atom_site_hse06_10hf_magmom
 _atom_site_hse06_bader_spin_density
 _atom_site_hse06_ddec_charge
 _atom_site_hse06_ddec_spin_density
 _atom_site_hse06_ddec_sum_bond_order
 _atom_site_hse06_magmom
 _atom_site_pbe_bader_spin_density
 _atom_site_pbe_cm5_charge
 _atom_site_pbe_ddec_charge
 _atom_site_pbe_ddec_spin_density
 _atom_site_pbe_ddec_sum_bond_order
 _atom_site_pbe_magmom
Cd  Cd0  1  0.27695453  0.99984681  0.74952948  1  0  0.963759  0  1.920855  0  0  0.812071  0  2.38792  0  0  0.867754  0  2.336746  0  0  0.531415  0.772266  0  2.423426  0
Cd  Cd1  1  0.72304396  0.00015376  0.25047092  1  0  0.963845  0  1.920778  0  0  0.812115  0  2.387849  0  0  0.867798  0  2.336676  0  0  0.531432  0.77231  0  2.423348  0
H  H2  1  0.85243421  0.52802853  0.71448605  1  0  0.122188  0  0.963154  0  0  0.126863  0  1.030062  0  0  0.13177  0  1.024842  0  0  0.126194  0.123309  0  1.033852  0
H  H3  1  0.32906232  0.47257662  0.78524047  1  0  0.122899  0  0.962901  0  0  0.127651  0  1.02957  0  0  0.132615  0  1.024229  0  0  0.125978  0.124021  0  1.033484  0
H  H4  1  0.14756367  0.47197080  0.28551379  1  0  0.122149  0  0.963196  0  0  0.126819  0  1.030121  0  0  0.131727  0  1.024897  0  0  0.126168  0.123264  0  1.033911  0
H  H5  1  0.67093807  0.52742272  0.21475991  1  0  0.122912  0  0.962891  0  0  0.127668  0  1.02956  0  0  0.132619  0  1.024235  0  0  0.125987  0.124033  0  1.033472  0
H  H6  1  0.57844407  0.24690288  0.47653360  1  0  0.114631  0  0.969281  0  0  0.123187  0  1.030966  0  0  0.126935  0  1.029184  0  0  0.099146  0.120441  0  1.032501  0
H  H7  1  0.32391599  0.75182402  0.02330810  1  0  0.115294  0  0.968566  0  0  0.123863  0  1.029994  0  0  0.127623  0  1.028198  0  0  0.099372  0.121111  0  1.031549  0
H  H8  1  0.42153994  0.75309891  0.52346573  1  0  0.114554  0  0.9693  0  0  0.123116  0  1.03098  0  0  0.126861  0  1.029203  0  0  0.099117  0.120367  0  1.032521  0
H  H9  1  0.67610703  0.24817530  0.97669228  1  0  0.115305  0  0.968511  0  0  0.123863  0  1.029962  0  0  0.127623  0  1.028166  0  0  0.099388  0.121112  0  1.031515  0
H  H10  1  0.27415761  0.13901704  0.58777763  1  0  0.109478  0  0.962031  0  0  0.115236  0  1.028708  0  0  0.11907  0  1.024961  0  0  0.112712  0.112338  0  1.031597  0
H  H11  1  0.12848419  0.86016991  0.91180595  1  0  0.108417  0  0.962414  0  0  0.114175  0  1.029349  0  0  0.118018  0  1.025584  0  0  0.112546  0.111311  0  1.032193  0
H  H12  1  0.72583334  0.86098353  0.41222277  1  0  0.109383  0  0.962119  0  0  0.115197  0  1.028761  0  0  0.119031  0  1.025013  0  0  0.11268  0.112281  0  1.031667  0
H  H13  1  0.87153192  0.13983066  0.08819552  1  0  0.108572  0  0.962409  0  0  0.114318  0  1.029339  0  0  0.118162  0  1.025576  0  0  0.112587  0.111453  0  1.032187  0
H  H14  1  0.17716366  0.65233186  0.61084879  1  0  0.111898  0  0.980484  0  0  0.118417  0  1.047266  0  0  0.12232  0  1.04505  0  0  0.09604  0.115461  0  1.049248  0
H  H15  1  0.53128715  0.34855237  0.88897762  1  0  0.111885  0  0.980039  0  0  0.11847  0  1.047062  0  0  0.122396  0  1.044833  0  0  0.095872  0.115561  0  1.048973  0
H  H16  1  0.82282980  0.34766870  0.38915107  1  0  0.111948  0  0.980472  0  0  0.118422  0  1.0473  0  0  0.12235  0  1.045056  0  0  0.096032  0.115462  0  1.049282  0
H  H17  1  0.46871141  0.65144326  0.11102163  1  0  0.111793  0  0.980174  0  0  0.118393  0  1.04717  0  0  0.12232  0  1.044941  0  0  0.095855  0.115483  0  1.04908  0
C  C18  1  0.80572942  0.47037004  0.66067867  1  0  0.028315  0  3.571341  0  0  -0.01477  0  3.83629  0  0  -0.006099  0  3.844172  0  0  0.037806  -0.020378  0  3.831205  0
C  C19  1  0.33838765  0.53008978  0.83905864  1  0  0.028152  0  3.567567  0  0  -0.014343  0  3.832022  0  0  -0.005656  0  3.839877  0  0  0.038543  -0.019952  0  3.827023  0
C  C20  1  0.19426151  0.52963051  0.33931957  1  0  0.028389  0  3.571196  0  0  -0.014727  0  3.836205  0  0  -0.006052  0  3.844083  0  0  0.037863  -0.020338  0  3.831122  0
C  C21  1  0.66161716  0.46990832  0.16094172  1  0  0.028218  0  3.567444  0  0  -0.014303  0  3.83191  0  0  -0.005607  0  3.839774  0  0  0.038588  -0.019901  0  3.826899  0
C  C22  1  0.65410534  0.31464457  0.52762141  1  0  -0.127167  0  3.711889  0  0  -0.143516  0  3.960074  0  0  -0.149336  0  3.978987  0  0  -0.080934  -0.139899  0  3.947424  0
C  C23  1  0.33496194  0.68464533  0.97217393  1  0  -0.128676  0  3.713841  0  0  -0.144854  0  3.961451  0  0  -0.150695  0  3.980395  0  0  -0.080363  -0.141242  0  3.948799  0
C  C24  1  0.34587677  0.68535846  0.47237848  1  0  -0.127155  0  3.71186  0  0  -0.143515  0  3.960069  0  0  -0.149335  0  3.978979  0  0  -0.080957  -0.139899  0  3.947419  0
C  C25  1  0.66505605  0.31535400  0.02782645  1  0  -0.128686  0  3.714128  0  0  -0.144895  0  3.961731  0  0  -0.150736  0  3.980676  0  0  -0.080422  -0.141279  0  3.949075  0
C  C26  1  0.48114536  0.25012392  0.58821383  1  0  0.002578  0  3.63177  0  0  -0.037579  0  3.893886  0  0  -0.030731  0  3.906107  0  0  0.028781  -0.041802  0  3.885733  0
C  C27  1  0.22700760  0.74937716  0.91147457  1  0  0.005203  0  3.631291  0  0  -0.035058  0  3.893516  0  0  -0.028202  0  3.905731  0  0  0.029529  -0.039291  0  3.885307  0
C  C28  1  0.51884620  0.74987787  0.41178551  1  0  0.002902  0  3.631614  0  0  -0.037346  0  3.893763  0  0  -0.030497  0  3.90598  0  0  0.02892  -0.041551  0  3.885613  0
C  C29  1  0.77300598  0.25062340  0.08852582  1  0  0.005061  0  3.631585  0  0  -0.035187  0  3.893819  0  0  -0.028333  0  3.906033  0  0  0.029474  -0.039432  0  3.885626  0
C  C30  1  0.98182437  0.53822923  0.60113177  1  0  -0.120604  0  3.7126  0  0  -0.141336  0  3.967333  0  0  -0.146476  0  3.985216  0  0  -0.081003  -0.13812  0  3.955517  0
C  C31  1  0.44708093  0.46224775  0.89871031  1  0  -0.120861  0  3.70933  0  0  -0.142451  0  3.964669  0  0  -0.147613  0  3.982626  0  0  -0.081456  -0.139264  0  3.95272  0
C  C32  1  0.01816406  0.46177134  0.39886863  1  0  -0.12066  0  3.712599  0  0  -0.141372  0  3.967322  0  0  -0.146533  0  3.985192  0  0  -0.081014  -0.138146  0  3.955499  0
C  C33  1  0.55292388  0.53775035  0.10128951  1  0  -0.120695  0  3.709406  0  0  -0.142289  0  3.964664  0  0  -0.147449  0  3.982616  0  0  -0.081423  -0.139103  0  3.952714  0
C  C34  1  0.90989268  0.46317094  0.53195691  1  0  0.067601  0  3.774908  0  0  0.077116  0  4.009985  0  0  0.080621  0  4.031349  0  0  -0.001341  0.075028  0  3.995273  0
C  C35  1  0.44649384  0.53674499  0.96795664  1  0  0.067541  0  3.773162  0  0  0.07741  0  4.008177  0  0  0.080892  0  4.029601  0  0  -0.001332  0.075357  0  3.993379  0
C  C36  1  0.09008942  0.53683208  0.46804191  1  0  0.067449  0  3.774957  0  0  0.077067  0  4.009945  0  0  0.080573  0  4.031311  0  0  -0.00136  0.074976  0  3.995232  0
C  C37  1  0.55352164  0.46325432  0.03204320  1  0  0.067322  0  3.773465  0  0  0.077287  0  4.008394  0  0  0.08077  0  4.029818  0  0  -0.001349  0.075234  0  3.993597  0
Br  Br38  1  0.81603845  0.08880180  0.84848870  1  0  -0.527932  0  1.061564  0  0  -0.46391  0  1.363432  0  0  -0.488437  0  1.339911  0  0  -0.244601  -0.445834  0  1.37989  0
Br  Br39  1  0.72953698  0.91170210  0.65045539  1  0  -0.527637  0  1.063232  0  0  -0.463525  0  1.36587  0  0  -0.488007  0  1.342226  0  0  -0.243548  -0.445422  0  1.382308  0
Br  Br40  1  0.18396194  0.91119753  0.15151114  1  0  -0.527921  0  1.061512  0  0  -0.463905  0  1.363396  0  0  -0.488432  0  1.339876  0  0  -0.2446  -0.44583  0  1.379851  0
Br  Br41  1  0.27046402  0.08829846  0.34954447  1  0  -0.527679  0  1.063243  0  0  -0.463559  0  1.365892  0  0  -0.488049  0  1.342264  0  0  -0.24356  -0.445461  0  1.382323  0
N  N42  1  0.55465577  0.32866125  0.65412208  1  0  0.274058  0  3.714367  0  0  0.325894  0  3.975845  0  0  0.326519  0  3.997862  0  0  -0.115747  0.324796  0  3.960947  0
N  N43  1  0.22564488  0.67138799  0.84552209  1  0  0.273012  0  3.712994  0  0  0.324503  0  3.975008  0  0  0.325138  0  3.997031  0  0  -0.116105  0.323399  0  3.960102  0
N  N44  1  0.44533830  0.67134055  0.34587834  1  0  0.273909  0  3.714358  0  0  0.325737  0  3.975885  0  0  0.326361  0  3.997903  0  0  -0.115932  0.324638  0  3.960984  0
N  N45  1  0.77436305  0.32861133  0.15447774  1  0  0.272994  0  3.713071  0  0  0.324458  0  3.975103  0  0  0.325094  0  3.997122  0  0  -0.116116  0.323355  0  3.960199  0
O  O46  1  0.37721417  0.27301669  0.71158795  1  0  -0.537018  0  1.841332  0  0  -0.491857  0  2.092137  0  0  -0.52034  0  2.093204  0  0  -0.243768  -0.471674  0  2.090832  0
O  O47  1  0.10375144  0.72700891  0.78794064  1  0  -0.536886  0  1.84148  0  0  -0.491578  0  2.092367  0  0  -0.52  0  2.093402  0  0  -0.243684  -0.471438  0  2.091077  0
O  O48  1  0.62278372  0.72698265  0.28841243  1  0  -0.537085  0  1.841436  0  0  -0.491853  0  2.092181  0  0  -0.520334  0  2.093247  0  0  -0.243722  -0.471665  0  2.09087  0
O  O49  1  0.89625963  0.27299164  0.21205921  1  0  -0.53695  0  1.841583  0  0  -0.491589  0  2.092417  0  0  -0.520011  0  2.093453  0  0  -0.243688  -0.471446  0  2.091126  0
