# generated using pymatgen
data_CdH6C8Br2(N2Cl)2
_symmetry_space_group_name_H-M   'P 1'
_cell_length_a   3.83582070
_cell_length_b   10.17477836
_cell_length_c   16.43770029
_cell_angle_alpha   89.99940011
_cell_angle_beta   89.99922099
_cell_angle_gamma   90.90049175
_symmetry_Int_Tables_number   1
_chemical_formula_structural   CdH6C8Br2(N2Cl)2
_chemical_formula_sum   'Cd2 H12 C16 Br4 N8 Cl4'
_cell_volume   641.46161625
_cell_formula_units_Z   2
loop_
 _symmetry_equiv_pos_site_id
 _symmetry_equiv_pos_as_xyz
  1  'x, y, z'
loop_
 _atom_site_type_symbol
 _atom_site_label
 _atom_site_symmetry_multiplicity
 _atom_site_fract_x
 _atom_site_fract_y
 _atom_site_fract_z
 _atom_site_occupancy
 _atom_site_hle17_bader_spin_density
 _atom_site_hle17_ddec_charge
 _atom_site_hle17_ddec_spin_density
 _atom_site_hle17_ddec_sum_bond_order
 _atom_site_hle17_magmom
 _atom_site_hse06_10hf_bader_spin_density
 _atom_site_hse06_10hf_ddec_charge
 _atom_site_hse06_10hf_ddec_spin_density
 _atom_site_hse06_10hf_ddec_sum_bond_order
 _atom_site_hse06_10hf_magmom
 _atom_site_hse06_bader_spin_density
 _atom_site_hse06_ddec_charge
 _atom_site_hse06_ddec_spin_density
 _atom_site_hse06_ddec_sum_bond_order
 _atom_site_hse06_magmom
 _atom_site_pbe_bader_spin_density
 _atom_site_pbe_cm5_charge
 _atom_site_pbe_ddec_charge
 _atom_site_pbe_ddec_spin_density
 _atom_site_pbe_ddec_sum_bond_order
 _atom_site_pbe_magmom
Cd  Cd0  1  0.49998923  0.00000167  0.49999913  1  0  0.928774  0  1.959856  0  0  0.760919  0  2.41245  0  0  0.80728  0  2.374431  0  0  0.588288  0.730132  0  2.435741  0
Cd  Cd1  1  0.50000325  0.49999995  0.99999689  1  0  0.928713  0  1.959908  0  0  0.760892  0  2.412472  0  0  0.807252  0  2.374463  0  0  0.588288  0.730104  0  2.435758  0
H  H2  1  0.74219023  0.30794435  0.52016902  1  0  0.093483  0  0.983635  0  0  0.093016  0  1.063706  0  0  0.097248  0  1.059948  0  0  0.096334  0.089831  0  1.066661  0
H  H3  1  0.25782960  0.19205176  0.02015868  1  0  0.093479  0  0.983492  0  0  0.092999  0  1.063572  0  0  0.097232  0  1.059813  0  0  0.096361  0.089818  0  1.066526  0
H  H4  1  0.25785815  0.69205623  0.47984180  1  0  0.093496  0  0.983499  0  0  0.093036  0  1.063552  0  0  0.09727  0  1.059792  0  0  0.096343  0.089858  0  1.066503  0
H  H5  1  0.74219519  0.80794696  0.97983267  1  0  0.093448  0  0.983659  0  0  0.092955  0  1.063796  0  0  0.097188  0  1.060038  0  0  0.096325  0.089773  0  1.066753  0
H  H6  1  0.22479536  0.24954574  0.78873930  1  0  0.086813  0  0.973721  0  0  0.086906  0  1.049366  0  0  0.090562  0  1.04665  0  0  0.098183  0.08438  0  1.051285  0
H  H7  1  0.77518378  0.25044291  0.28873106  1  0  0.086814  0  0.973611  0  0  0.086903  0  1.049316  0  0  0.09052  0  1.046697  0  0  0.09821  0.084382  0  1.051221  0
H  H8  1  0.77519969  0.75043835  0.21126604  1  0  0.086858  0  0.973734  0  0  0.086945  0  1.049395  0  0  0.090552  0  1.046803  0  0  0.098188  0.084424  0  1.051292  0
H  H9  1  0.22478713  0.74956784  0.71126577  1  0  0.086897  0  0.973744  0  0  0.086972  0  1.049418  0  0  0.090596  0  1.046783  0  0  0.098188  0.084451  0  1.051315  0
H  H10  1  0.27224858  0.05829869  0.68986652  1  0  0.099846  0  0.966516  0  0  0.097322  0  1.047522  0  0  0.101323  0  1.043499  0  0  0.108749  0.094202  0  1.050686  0
H  H11  1  0.72769446  0.44169578  0.18986267  1  0  0.099718  0  0.966597  0  0  0.097252  0  1.047583  0  0  0.101255  0  1.04356  0  0  0.108731  0.094135  0  1.050729  0
H  H12  1  0.72770041  0.94169740  0.31012727  1  0  0.09969  0  0.966462  0  0  0.097213  0  1.047468  0  0  0.101217  0  1.043445  0  0  0.108748  0.094095  0  1.050617  0
H  H13  1  0.27227624  0.55831202  0.81013233  1  0  0.099682  0  0.966433  0  0  0.097244  0  1.047416  0  0  0.101244  0  1.043393  0  0  0.108735  0.094126  0  1.050559  0
C  C14  1  0.62527585  0.29514249  0.58009918  1  0  0.029148  0  3.69221  0  0  -0.007143  0  3.949555  0  0  -0.005197  0  3.968063  0  0  0.035591  -0.008307  0  3.937492  0
C  C15  1  0.37474084  0.20485357  0.08009262  1  0  0.029135  0  3.692476  0  0  -0.007061  0  3.949796  0  0  -0.005118  0  3.968309  0  0  0.035563  -0.00823  0  3.937743  0
C  C16  1  0.37475944  0.70485716  0.41990678  1  0  0.029085  0  3.692452  0  0  -0.00719  0  3.949837  0  0  -0.005245  0  3.968347  0  0  0.035573  -0.008368  0  3.93778  0
C  C17  1  0.62527649  0.79515009  0.91990300  1  0  0.029232  0  3.692501  0  0  -0.00702  0  3.949779  0  0  -0.005074  0  3.96829  0  0  0.035587  -0.008185  0  3.937728  0
C  C18  1  0.59726263  0.39805194  0.63611646  1  0  0.18012  0  3.748762  0  0  0.182892  0  4.029467  0  0  0.18908  0  4.047675  0  0  0.109578  0.177996  0  4.017936  0
C  C19  1  0.40275098  0.10194217  0.13610317  1  0  0.179867  0  3.749066  0  0  0.182623  0  4.029804  0  0  0.188808  0  4.048009  0  0  0.109528  0.17772  0  4.018293  0
C  C20  1  0.40276462  0.60194480  0.36389801  1  0  0.180119  0  3.748923  0  0  0.182881  0  4.029677  0  0  0.189068  0  4.047878  0  0  0.109621  0.177996  0  4.018138  0
C  C21  1  0.59725085  0.89806352  0.86389001  1  0  0.180018  0  3.748857  0  0  0.182751  0  4.029647  0  0  0.188934  0  4.04786  0  0  0.109559  0.177838  0  4.018149  0
C  C22  1  0.34026251  0.26187610  0.72850193  1  0  0.091218  0  3.668277  0  0  0.070473  0  3.927208  0  0  0.071512  0  3.944007  0  0  0.050728  0.069281  0  3.916863  0
C  C23  1  0.65973311  0.23811648  0.22849538  1  0  0.091127  0  3.668105  0  0  0.070352  0  3.927091  0  0  0.071377  0  3.943884  0  0  0.050623  0.069165  0  3.916739  0
C  C24  1  0.65975142  0.73811676  0.27150159  1  0  0.091017  0  3.668151  0  0  0.070262  0  3.927133  0  0  0.071292  0  3.943905  0  0  0.050702  0.06907  0  3.91678  0
C  C25  1  0.34025069  0.76189224  0.77150024  1  0  0.090912  0  3.668171  0  0  0.07018  0  3.927163  0  0  0.07121  0  3.943944  0  0  0.050653  0.068998  0  3.916801  0
C  C26  1  0.36377958  0.15704056  0.67418380  1  0  0.07368  0  3.653104  0  0  0.040096  0  3.910725  0  0  0.044061  0  3.927206  0  0  0.043792  0.037481  0  3.899779  0
C  C27  1  0.63618775  0.34295408  0.17417969  1  0  0.073861  0  3.65292  0  0  0.040283  0  3.910542  0  0  0.044263  0  3.926988  0  0  0.043805  0.037653  0  3.899625  0
C  C28  1  0.63620047  0.84295245  0.32581607  1  0  0.074114  0  3.652692  0  0  0.040512  0  3.910291  0  0  0.044492  0  3.926741  0  0  0.04382  0.037884  0  3.899376  0
C  C29  1  0.36379859  0.65705366  0.82581714  1  0  0.074063  0  3.652822  0  0  0.040408  0  3.91046  0  0  0.044392  0  3.92692  0  0  0.043824  0.03778  0  3.899536  0
Br  Br30  1  0.76346795  0.56949388  0.60736281  1  0  -0.055328  0  1.410019  0  0  -0.05596  0  1.711568  0  0  -0.060638  0  1.704479  0  0  0.058855  -0.050881  0  1.715961  0
Br  Br31  1  0.23654640  0.93049336  0.10735526  1  0  -0.055301  0  1.410048  0  0  -0.055925  0  1.711623  0  0  -0.060584  0  1.704508  0  0  0.058875  -0.050841  0  1.716022  0
Br  Br32  1  0.23655916  0.43050090  0.39264983  1  0  -0.055374  0  1.409991  0  0  -0.055993  0  1.711552  0  0  -0.060664  0  1.704466  0  0  0.058834  -0.050916  0  1.715945  0
Br  Br33  1  0.76345768  0.06950741  0.89264218  1  0  -0.055337  0  1.410047  0  0  -0.055948  0  1.711626  0  0  -0.060627  0  1.704515  0  0  0.058867  -0.050853  0  1.716029  0
N  N34  1  0.50459193  0.17510040  0.60005147  1  0  -0.259481  0  3.258145  0  0  -0.184149  0  3.513005  0  0  -0.200872  0  3.535632  0  0  -0.307441  -0.173124  0  3.496429  0
N  N35  1  0.49538466  0.32489648  0.10004432  1  0  -0.259452  0  3.258125  0  0  -0.184268  0  3.513161  0  0  -0.200988  0  3.535785  0  0  -0.307441  -0.17324  0  3.496574  0
N  N36  1  0.49539905  0.82489945  0.39995144  1  0  -0.259673  0  3.258235  0  0  -0.184365  0  3.513152  0  0  -0.201087  0  3.535778  0  0  -0.307482  -0.173337  0  3.496567  0
N  N37  1  0.50461174  0.67510630  0.89994825  1  0  -0.259557  0  3.258429  0  0  -0.184255  0  3.513386  0  0  -0.200978  0  3.536015  0  0  -0.307383  -0.173227  0  3.496794  0
N  N38  1  0.45560236  0.38307910  0.70901990  1  0  -0.27374  0  3.084254  0  0  -0.242018  0  3.345844  0  0  -0.250115  0  3.361176  0  0  -0.296643  -0.236358  0  3.33624  0
N  N39  1  0.54441227  0.11690980  0.20900967  1  0  -0.273447  0  3.084129  0  0  -0.24169  0  3.345705  0  0  -0.249785  0  3.361055  0  0  -0.296478  -0.236018  0  3.33608  0
N  N40  1  0.54442693  0.61690976  0.29099092  1  0  -0.273579  0  3.084131  0  0  -0.24185  0  3.345721  0  0  -0.249941  0  3.361069  0  0  -0.296589  -0.236184  0  3.336095  0
N  N41  1  0.45558188  0.88309789  0.79098777  1  0  -0.273533  0  3.084137  0  0  -0.241781  0  3.345708  0  0  -0.249879  0  3.361065  0  0  -0.296551  -0.236113  0  3.336094  0
Cl  Cl42  1  0.00359971  0.12277894  0.41966049  1  0  -0.530142  0  1.025503  0  0  -0.461925  0  1.317628  0  0  -0.480611  0  1.297009  0  0  -0.291908  -0.449604  0  1.330622  0
Cl  Cl43  1  0.99639194  0.37722508  0.91965672  1  0  -0.530148  0  1.025526  0  0  -0.461928  0  1.317638  0  0  -0.480633  0  1.297021  0  0  -0.291911  -0.449606  0  1.33063  0
Cl  Cl44  1  0.99637323  0.87722394  0.58033877  1  0  -0.530177  0  1.025519  0  0  -0.461922  0  1.317555  0  0  -0.480611  0  1.296938  0  0  -0.291905  -0.449603  0  1.330547  0
Cl  Cl45  1  0.00360947  0.62277472  0.08033707  1  0  -0.530161  0  1.025488  0  0  -0.461895  0  1.317541  0  0  -0.480582  0  1.296925  0  0  -0.291917  -0.449575  0  1.330529  0
