# generated using pymatgen
data_CdH14C17S(NO)4
_symmetry_space_group_name_H-M   'P 1'
_cell_length_a   8.98554736
_cell_length_b   9.60918623
_cell_length_c   11.35120495
_cell_angle_alpha   85.43666821
_cell_angle_beta   80.65791555
_cell_angle_gamma   68.91014317
_symmetry_Int_Tables_number   1
_chemical_formula_structural   CdH14C17S(NO)4
_chemical_formula_sum   'Cd2 H28 C34 S2 N8 O8'
_cell_volume   902.08914701
_cell_formula_units_Z   2
loop_
 _symmetry_equiv_pos_site_id
 _symmetry_equiv_pos_as_xyz
  1  'x, y, z'
loop_
 _atom_site_type_symbol
 _atom_site_label
 _atom_site_symmetry_multiplicity
 _atom_site_fract_x
 _atom_site_fract_y
 _atom_site_fract_z
 _atom_site_occupancy
 _atom_site_hle17_bader_spin_density
 _atom_site_hle17_ddec_charge
 _atom_site_hle17_ddec_spin_density
 _atom_site_hle17_ddec_sum_bond_order
 _atom_site_hle17_magmom
 _atom_site_hse06_10hf_bader_spin_density
 _atom_site_hse06_10hf_ddec_charge
 _atom_site_hse06_10hf_ddec_spin_density
 _atom_site_hse06_10hf_ddec_sum_bond_order
 _atom_site_hse06_10hf_magmom
 _atom_site_hse06_bader_spin_density
 _atom_site_hse06_ddec_charge
 _atom_site_hse06_ddec_spin_density
 _atom_site_hse06_ddec_sum_bond_order
 _atom_site_hse06_magmom
 _atom_site_pbe_bader_spin_density
 _atom_site_pbe_cm5_charge
 _atom_site_pbe_ddec_charge
 _atom_site_pbe_ddec_spin_density
 _atom_site_pbe_ddec_sum_bond_order
 _atom_site_pbe_magmom
Cd  Cd0  1  0.10632707  0.11169651  0.89090064  1  0  1.101975  0  1.707319  0  0  0.902994  0  2.160506  0  0  0.964679  0  2.107767  0  0  0.760732  0.859324  0  2.19706  0
Cd  Cd1  1  0.89367116  0.88830124  0.10910105  1  0  1.101994  0  1.707264  0  0  0.903041  0  2.160438  0  0  0.964725  0  2.107701  0  0  0.760746  0.859371  0  2.196991  0
H  H2  1  0.89488209  0.40026552  0.04930315  1  0  0.078757  0  0.947314  0  0  0.087359  0  1.010734  0  0  0.089625  0  1.009292  0  0  0.114499  0.085552  0  1.012085  0
H  H3  1  0.10511097  0.59973999  0.95070144  1  0  0.078725  0  0.947342  0  0  0.087338  0  1.010741  0  0  0.089603  0  1.009301  0  0  0.114492  0.085536  0  1.012095  0
H  H4  1  0.91232313  0.54298076  0.21747334  1  0  0.134496  0  0.995118  0  0  0.140632  0  1.058614  0  0  0.145412  0  1.055529  0  0  0.106644  0.137088  0  1.061181  0
H  H5  1  0.08767344  0.45702141  0.78253010  1  0  0.134557  0  0.99493  0  0  0.140643  0  1.058484  0  0  0.145424  0  1.055393  0  0  0.106635  0.137078  0  1.061078  0
H  H6  1  0.37792112  0.19972573  0.24774587  1  0  0.11651  0  0.957987  0  0  0.121668  0  1.025814  0  0  0.125683  0  1.023423  0  0  0.109907  0.118787  0  1.027652  0
H  H7  1  0.62207769  0.80027657  0.75225111  1  0  0.116514  0  0.957923  0  0  0.121662  0  1.025768  0  0  0.125677  0  1.023377  0  0  0.109908  0.118777  0  1.02761  0
H  H8  1  0.34058238  0.07396615  0.07932945  1  0  0.09705  0  0.959943  0  0  0.099476  0  1.03278  0  0  0.102909  0  1.029147  0  0  0.117055  0.096903  0  1.035553  0
H  H9  1  0.65941208  0.92604174  0.92066779  1  0  0.096986  0  0.959979  0  0  0.099396  0  1.032849  0  0  0.102827  0  1.029223  0  0  0.117028  0.096821  0  1.035627  0
H  H10  1  0.40340996  0.63147483  0.61897459  1  0  0.127425  0  0.966136  0  0  0.12885  0  1.039181  0  0  0.133073  0  1.036366  0  0  0.114713  0.125807  0  1.041341  0
H  H11  1  0.59659363  0.36852074  0.38102303  1  0  0.127409  0  0.966165  0  0  0.128807  0  1.039255  0  0  0.13303  0  1.036439  0  0  0.114691  0.125763  0  1.041418  0
H  H12  1  0.36287016  0.82553779  0.76870720  1  0  0.0862  0  0.942414  0  0  0.094352  0  1.007327  0  0  0.096893  0  1.004993  0  0  0.11943  0.092568  0  1.00896  0
H  H13  1  0.63713631  0.17447120  0.23128584  1  0  0.08621  0  0.942374  0  0  0.094354  0  1.007303  0  0  0.096898  0  1.004966  0  0  0.11945  0.092566  0  1.008939  0
H  H14  1  0.89386639  0.05271540  0.70731918  1  0  0.073779  0  0.950127  0  0  0.080826  0  1.019115  0  0  0.08317  0  1.016991  0  0  0.113287  0.079221  0  1.020429  0
H  H15  1  0.10613381  0.94728013  0.29268150  1  0  0.073807  0  0.950102  0  0  0.080813  0  1.019129  0  0  0.083156  0  1.017006  0  0  0.113282  0.079207  0  1.020441  0
H  H16  1  0.91127316  0.86929363  0.55771868  1  0  0.114025  0  0.935141  0  0  0.127358  0  0.987786  0  0  0.130546  0  0.98698  0  0  0.110217  0.125141  0  0.988203  0
H  H17  1  0.08872859  0.13070078  0.44228186  1  0  0.114009  0  0.935156  0  0  0.127341  0  0.987801  0  0  0.130528  0  0.986996  0  0  0.110216  0.125124  0  0.988219  0
H  H18  1  0.48310021  0.30584738  0.65860210  1  0  0.106887  0  0.936078  0  0  0.116571  0  1.00252  0  0  0.119588  0  1.000851  0  0  0.093897  0.114355  0  1.003898  0
H  H19  1  0.51690153  0.69414706  0.34139668  1  0  0.106871  0  0.936068  0  0  0.11655  0  1.002526  0  0  0.119565  0  1.000859  0  0  0.093868  0.114334  0  1.003909  0
H  H20  1  0.62845641  0.15861466  0.73028793  1  0  0.084089  0  0.94313  0  0  0.101118  0  1.001602  0  0  0.102748  0  1.001125  0  0  0.088164  0.099929  0  1.001989  0
H  H21  1  0.37154522  0.84138303  0.26971510  1  0  0.084115  0  0.94309  0  0  0.101127  0  1.001579  0  0  0.102756  0  1.001101  0  0  0.088152  0.099939  0  1.001964  0
H  H22  1  0.56901461  0.43028701  0.79500618  1  0  0.069564  0  0.945676  0  0  0.084843  0  1.010247  0  0  0.086304  0  1.01047  0  0  0.086473  0.083775  0  1.010101  0
H  H23  1  0.43099011  0.56970851  0.20499306  1  0  0.069572  0  0.945665  0  0  0.084868  0  1.010212  0  0  0.086328  0  1.010435  0  0  0.086476  0.083798  0  1.01007  0
H  H24  1  0.37755089  0.42979297  0.86271737  1  0  0.061081  0  0.934399  0  0  0.081716  0  0.991687  0  0  0.082545  0  0.992294  0  0  0.088276  0.081087  0  0.991371  0
H  H25  1  0.62244935  0.57021155  0.13727932  1  0  0.061095  0  0.934423  0  0  0.081731  0  0.991702  0  0  0.082559  0  0.992312  0  0  0.088281  0.081097  0  0.991387  0
H  H26  1  0.54044056  0.36381612  0.01997137  1  0  0.099914  0  0.928103  0  0  0.118825  0  0.983799  0  0  0.120409  0  0.98388  0  0  0.100294  0.117815  0  0.983641  0
H  H27  1  0.45955939  0.63618611  0.98002812  1  0  0.099895  0  0.928112  0  0  0.118789  0  0.983824  0  0  0.120372  0  0.983905  0  0  0.100281  0.117778  0  0.983667  0
H  H28  1  0.53768250  0.19006014  0.98252853  1  0  0.109227  0  0.948165  0  0  0.123385  0  1.011201  0  0  0.125355  0  1.01099  0  0  0.098501  0.121996  0  1.011445  0
H  H29  1  0.46230942  0.80994546  0.01747266  1  0  0.109186  0  0.948183  0  0  0.123372  0  1.011167  0  0  0.125342  0  1.010956  0  0  0.098496  0.121983  0  1.011406  0
C  C30  1  0.99954955  0.36027984  0.09656318  1  0  0.124509  0  3.713644  0  0  0.094754  0  3.968389  0  0  0.101293  0  3.987809  0  0  0.043365  0.090398  0  3.955658  0
C  C31  1  0.00044701  0.63972237  0.90343850  1  0  0.124585  0  3.713661  0  0  0.094825  0  3.968397  0  0  0.101367  0  3.987814  0  0  0.043359  0.090459  0  3.955667  0
C  C32  1  0.01051992  0.43918775  0.19020088  1  0  -0.147072  0  3.664003  0  0  -0.168697  0  3.914134  0  0  -0.175563  0  3.933489  0  0  -0.084683  -0.164471  0  3.901492  0
C  C33  1  0.98947468  0.56081664  0.80980357  1  0  -0.14715  0  3.664151  0  0  -0.168718  0  3.914207  0  0  -0.175583  0  3.93356  0  0  -0.08469  -0.164471  0  3.901573  0
C  C34  1  0.14972902  0.38409362  0.24559471  1  0  0.085655  0  3.79339  0  0  0.097895  0  4.029315  0  0  0.100714  0  4.050893  0  0  0.010327  0.096439  0  4.014369  0
C  C35  1  0.85026922  0.61590409  0.75440875  1  0  0.085563  0  3.793506  0  0  0.097846  0  4.029287  0  0  0.100663  0  4.050867  0  0  0.010296  0.096384  0  4.014348  0
C  C36  1  0.26939154  0.24927567  0.20600615  1  0  -0.138689  0  3.675852  0  0  -0.159118  0  3.924822  0  0  -0.16591  0  3.944937  0  0  -0.077558  -0.155178  0  3.911572  0
C  C37  1  0.73060490  0.75072984  0.79399712  1  0  -0.138569  0  3.675916  0  0  -0.159021  0  3.92485  0  0  -0.165813  0  3.944967  0  0  -0.077492  -0.155075  0  3.911596  0
C  C38  1  0.24821722  0.17787584  0.11190621  1  0  0.127783  0  3.698551  0  0  0.097796  0  3.951891  0  0  0.104328  0  3.970528  0  0  0.045426  0.093454  0  3.939695  0
C  C39  1  0.75178172  0.82212312  0.88809093  1  0  0.127811  0  3.698852  0  0  0.097866  0  3.952163  0  0  0.104396  0  3.970805  0  0  0.045456  0.093528  0  3.939961  0
C  C40  1  0.17393887  0.46161430  0.34228148  1  0  0.102116  0  3.734103  0  0  0.090953  0  4.022357  0  0  0.098379  0  4.037467  0  0  0.128072  0.08593  0  4.011869  0
C  C41  1  0.82606234  0.53838450  0.65772155  1  0  0.102122  0  3.734185  0  0  0.090996  0  4.022341  0  0  0.098423  0  4.037453  0  0  0.128046  0.085961  0  4.011875  0
C  C42  1  0.17953566  0.61931311  0.49218312  1  0  0.072026  0  3.754618  0  0  0.064383  0  4.040377  0  0  0.069806  0  4.058138  0  0  0.119421  0.06065  0  4.02828  0
C  C43  1  0.82046994  0.38068909  0.50781566  1  0  0.072093  0  3.754671  0  0  0.064451  0  4.04037  0  0  0.069876  0  4.05813  0  0  0.119457  0.060713  0  4.028277  0
C  C44  1  0.15989592  0.73363592  0.57669704  1  0  0.087045  0  3.801079  0  0  0.100511  0  4.033606  0  0  0.102962  0  4.056812  0  0  0.012057  0.09879  0  4.017705  0
C  C45  1  0.84011077  0.26635733  0.42330383  1  0  0.086857  0  3.801387  0  0  0.100394  0  4.033777  0  0  0.102845  0  4.056984  0  0  0.011985  0.098682  0  4.01787  0
C  C46  1  0.28845089  0.72237087  0.63721332  1  0  -0.129073  0  3.655658  0  0  -0.147938  0  3.899849  0  0  -0.154179  0  3.919491  0  0  -0.07042  -0.143545  0  3.886571  0
C  C47  1  0.71154735  0.27762681  0.36279102  1  0  -0.129008  0  3.655451  0  0  -0.147865  0  3.899602  0  0  -0.154107  0  3.919244  0  0  -0.070376  -0.143477  0  3.886329  0
C  C48  1  0.26668237  0.82982865  0.71947622  1  0  0.135415  0  3.691678  0  0  0.105484  0  3.940482  0  0  0.112225  0  3.958641  0  0  0.052441  0.100964  0  3.928093  0
C  C49  1  0.73331967  0.17016804  0.28052153  1  0  0.13548  0  3.691501  0  0  0.105547  0  3.940315  0  0  0.112286  0  3.958474  0  0  0.052465  0.101027  0  3.927927  0
C  C50  1  0.00466809  0.95763432  0.68505553  1  0  0.129921  0  3.730249  0  0  0.097618  0  3.990652  0  0  0.104559  0  4.009602  0  0  0.045578  0.093119  0  3.977192  0
C  C51  1  0.99533365  0.04236015  0.31494236  1  0  0.129943  0  3.729982  0  0  0.097672  0  3.990388  0  0  0.104612  0  4.009337  0  0  0.045621  0.09317  0  3.976926  0
C  C52  1  0.01547723  0.85527944  0.60129691  1  0  -0.163538  0  3.725423  0  0  -0.18372  0  3.976569  0  0  -0.191053  0  3.998688  0  0  -0.084405  -0.178679  0  3.96061  0
C  C53  1  0.98452398  0.14471942  0.39870348  1  0  -0.16346  0  3.725472  0  0  -0.183662  0  3.976578  0  0  -0.190994  0  3.998698  0  0  -0.084392  -0.178624  0  3.96062  0
C  C54  1  0.38172500  0.17539581  0.78585917  1  0  0.685414  0  3.866334  0  0  0.645426  0  4.154314  0  0  0.678694  0  4.149202  0  0  0.190771  0.6229  0  4.156723  0
C  C55  1  0.61827676  0.82459850  0.21414578  1  0  0.6853  0  3.86646  0  0  0.645361  0  4.154374  0  0  0.678627  0  4.149262  0  0  0.190773  0.622836  0  4.15678  0
C  C56  1  0.50845175  0.24636952  0.74394682  1  0  -0.254288  0  3.64077  0  0  -0.288874  0  3.887338  0  0  -0.294902  0  3.895422  0  0  -0.168533  -0.284779  0  3.881859  0
C  C57  1  0.49154833  0.75362933  0.25605458  1  0  -0.254221  0  3.640725  0  0  -0.288827  0  3.887309  0  0  -0.294843  0  3.895378  0  0  -0.168474  -0.284739  0  3.881833  0
C  C58  1  0.50372153  0.35755603  0.83673271  1  0  -0.052118  0  3.658688  0  0  -0.092225  0  3.917561  0  0  -0.092049  0  3.930595  0  0  -0.162205  -0.092211  0  3.908575  0
C  C59  1  0.49627812  0.64244400  0.16326605  1  0  -0.052191  0  3.658656  0  0  -0.09231  0  3.917523  0  0  -0.092138  0  3.930556  0  0  -0.162226  -0.092285  0  3.908533  0
C  C60  1  0.57841662  0.28221012  0.94804123  1  0  -0.270719  0  3.662672  0  0  -0.308291  0  3.912282  0  0  -0.314448  0  3.921028  0  0  -0.168919  -0.304113  0  3.906133  0
C  C61  1  0.42157995  0.71779211  0.05195956  1  0  -0.270581  0  3.662708  0  0  -0.308132  0  3.912238  0  0  -0.314287  0  3.920988  0  0  -0.168879  -0.303953  0  3.906089  0
C  C62  1  0.76172754  0.22552766  0.92709146  1  0  0.692333  0  3.852606  0  0  0.648145  0  4.147073  0  0  0.682202  0  4.140601  0  0  0.195556  0.624886  0  4.150401  0
C  C63  1  0.23826914  0.77447131  0.07290595  1  0  0.692035  0  3.852954  0  0  0.64785  0  4.1474  0  0  0.681905  0  4.140934  0  0  0.19543  0.624578  0  4.150741  0
S  S64  1  0.04673839  0.63535156  0.39320054  1  0  0.161109  0  2.537297  0  0  0.159109  0  2.869916  0  0  0.160025  0  2.872253  0  0  0.15504  0.158084  0  2.868426  0
S  S65  1  0.95326734  0.36464726  0.60680016  1  0  0.161092  0  2.537201  0  0  0.159045  0  2.869831  0  0  0.15996  0  2.872168  0  0  0.155019  0.158022  0  2.868349  0
N  N66  1  0.11623703  0.23306558  0.05695025  1  0  -0.323015  0  3.254778  0  0  -0.244793  0  3.516113  0  0  -0.265054  0  3.536266  0  0  -0.32961  -0.231093  0  3.502813  0
N  N67  1  0.88375560  0.76694110  0.94305168  1  0  -0.323045  0  3.254733  0  0  -0.244903  0  3.516175  0  0  -0.265164  0  3.536323  0  0  -0.329626  -0.231205  0  3.50288  0
N  N68  1  0.30147294  0.40380111  0.39913422  1  0  -0.208312  0  3.033542  0  0  -0.188074  0  3.322893  0  0  -0.196148  0  3.337232  0  0  -0.199409  -0.182273  0  3.312784  0
N  N69  1  0.69853391  0.59619776  0.60086369  1  0  -0.20828  0  3.03354  0  0  -0.188059  0  3.322872  0  0  -0.196133  0  3.337212  0  0  -0.199351  -0.182248  0  3.312758  0
N  N70  1  0.30530922  0.49254957  0.48321346  1  0  -0.174746  0  3.023298  0  0  -0.156821  0  3.31491  0  0  -0.163412  0  3.329273  0  0  -0.190257  -0.152096  0  3.304966  0
N  N71  1  0.69470215  0.50744932  0.51678213  1  0  -0.174762  0  3.023283  0  0  -0.156868  0  3.314944  0  0  -0.163458  0  3.329302  0  0  -0.190289  -0.152145  0  3.304999  0
N  N72  1  0.12727347  0.94553527  0.74366702  1  0  -0.320837  0  3.248153  0  0  -0.24593  0  3.515116  0  0  -0.265339  0  3.533574  0  0  -0.325117  -0.232472  0  3.502575  0
N  N73  1  0.87272844  0.05446476  0.25633057  1  0  -0.320924  0  3.248263  0  0  -0.246016  0  3.515229  0  0  -0.265424  0  3.533685  0  0  -0.325167  -0.23255  0  3.50268  0
O  O74  1  0.23808081  0.24904060  0.76353170  1  0  -0.676042  0  2.007582  0  0  -0.613396  0  2.254437  0  0  -0.643556  0  2.245378  0  0  -0.347271  -0.592132  0  2.25987  0
O  O75  1  0.76191898  0.75095594  0.23647339  1  0  -0.675966  0  2.007738  0  0  -0.613361  0  2.254582  0  0  -0.643516  0  2.245518  0  0  -0.347286  -0.592105  0  2.260016  0
O  O76  1  0.41654796  0.05334949  0.84548044  1  0  -0.657571  0  1.91447  0  0  -0.597821  0  2.145276  0  0  -0.624991  0  2.13711  0  0  -0.333799  -0.578797  0  2.150137  0
O  O77  1  0.58345243  0.94665148  0.15452523  1  0  -0.657547  0  1.914318  0  0  -0.597805  0  2.145098  0  0  -0.62498  0  2.136936  0  0  -0.333795  -0.578779  0  2.149949  0
O  O78  1  0.83397762  0.30379045  0.86452212  1  0  -0.657454  0  1.962272  0  0  -0.600898  0  2.206045  0  0  -0.629129  0  2.199676  0  0  -0.334194  -0.58108  0  2.20989  0
O  O79  1  0.16602138  0.69621722  0.13548249  1  0  -0.657322  0  1.962379  0  0  -0.600798  0  2.206165  0  0  -0.629026  0  2.199797  0  0  -0.334158  -0.580974  0  2.210015  0
O  O80  1  0.84107022  0.10010584  0.97403914  1  0  -0.690881  0  2.06854  0  0  -0.615463  0  2.341001  0  0  -0.6484  0  2.330557  0  0  -0.343762  -0.592042  0  2.347365  0
O  O81  1  0.15893049  0.89988557  0.02594759  1  0  -0.690749  0  2.068614  0  0  -0.615329  0  2.341066  0  0  -0.64827  0  2.330632  0  0  -0.343712  -0.591902  0  2.34743  0
