# generated using pymatgen
data_CdH48C30(N2O3)3
_symmetry_space_group_name_H-M   'P 1'
_cell_length_a   6.55560047
_cell_length_b   12.25754814
_cell_length_c   11.69583333
_cell_angle_alpha   115.31105564
_cell_angle_beta   88.69945846
_cell_angle_gamma   100.83571352
_symmetry_Int_Tables_number   1
_chemical_formula_structural   CdH48C30(N2O3)3
_chemical_formula_sum   'Cd1 H48 C30 N6 O9'
_cell_volume   832.69173285
_cell_formula_units_Z   1
loop_
 _symmetry_equiv_pos_site_id
 _symmetry_equiv_pos_as_xyz
  1  'x, y, z'
loop_
 _atom_site_type_symbol
 _atom_site_label
 _atom_site_symmetry_multiplicity
 _atom_site_fract_x
 _atom_site_fract_y
 _atom_site_fract_z
 _atom_site_occupancy
 _atom_site_hle17_bader_spin_density
 _atom_site_hle17_ddec_charge
 _atom_site_hle17_ddec_spin_density
 _atom_site_hle17_ddec_sum_bond_order
 _atom_site_hle17_magmom
 _atom_site_hse06_10hf_bader_spin_density
 _atom_site_hse06_10hf_ddec_charge
 _atom_site_hse06_10hf_ddec_spin_density
 _atom_site_hse06_10hf_ddec_sum_bond_order
 _atom_site_hse06_10hf_magmom
 _atom_site_hse06_bader_spin_density
 _atom_site_hse06_ddec_charge
 _atom_site_hse06_ddec_spin_density
 _atom_site_hse06_ddec_sum_bond_order
 _atom_site_hse06_magmom
 _atom_site_pbe_bader_spin_density
 _atom_site_pbe_cm5_charge
 _atom_site_pbe_ddec_charge
 _atom_site_pbe_ddec_spin_density
 _atom_site_pbe_ddec_sum_bond_order
 _atom_site_pbe_magmom
Cd  Cd0  1  0.45752381  0.46057969  0.71183287  1  0  1.119128  0  1.65953  0  0  0.929678  0  2.097817  0  0  0.988775  0  2.045449  0  0  0.767961  0.887776  0  2.133467  0
H  H1  1  0.49672787  0.65382771  0.43103206  1  0  0.070275  0  0.964288  0  0  0.085002  0  1.030068  0  0  0.086667  0  1.029106  0  0  0.087153  0.083761  0  1.030874  0
H  H2  1  0.69409337  0.78496336  0.50296668  1  0  0.073297  0  0.948503  0  0  0.092229  0  1.008117  0  0  0.093392  0  1.008045  0  0  0.088261  0.091341  0  1.008315  0
H  H3  1  0.59766044  0.61921776  0.22906181  1  0  0.080387  0  0.944911  0  0  0.09642  0  1.00763  0  0  0.097857  0  1.007104  0  0  0.092817  0.095326  0  1.008109  0
H  H4  1  0.76616977  0.76298707  0.29458204  1  0  0.066422  0  0.98784  0  0  0.078535  0  1.061674  0  0  0.079837  0  1.061533  0  0  0.085839  0.077603  0  1.061781  0
H  H5  1  0.05625246  0.67408112  0.31670003  1  0  0.07574  0  0.931443  0  0  0.088165  0  0.988268  0  0  0.089938  0  0.988101  0  0  0.101012  0.086853  0  0.988525  0
H  H6  1  0.08252984  0.75081432  0.51840384  1  0  0.10373  0  0.950044  0  0  0.127303  0  1.00838  0  0  0.128944  0  1.008121  0  0  0.089594  0.126106  0  1.008598  0
H  H7  1  0.07107516  0.65162209  0.59457317  1  0  0.118546  0  0.947172  0  0  0.1393  0  1.006717  0  0  0.141117  0  1.006652  0  0  0.092194  0.137935  0  1.006872  0
H  H8  1  0.92346419  0.77062807  0.64689527  1  0  0.103164  0  0.960973  0  0  0.121207  0  1.029751  0  0  0.123015  0  1.029233  0  0  0.086958  0.119868  0  1.030162  0
H  H9  1  0.09765403  0.40882005  0.26288527  1  0  0.09751  0  0.947447  0  0  0.119335  0  1.008492  0  0  0.120475  0  1.008791  0  0  0.083866  0.118496  0  1.008277  0
H  H10  1  0.02973946  0.42848765  0.41768121  1  0  0.111014  0  0.980556  0  0  0.128269  0  1.046566  0  0  0.129754  0  1.047574  0  0  0.087164  0.127187  0  1.045924  0
H  H11  1  0.19519877  0.54954876  0.39642893  1  0  0.096797  0  0.977037  0  0  0.116998  0  1.043596  0  0  0.118301  0  1.043513  0  0  0.083453  0.115978  0  1.043793  0
H  H12  1  0.73116568  0.35397429  0.17582944  1  0  0.096668  0  0.976674  0  0  0.116407  0  1.042399  0  0  0.117908  0  1.042108  0  0  0.084058  0.11528  0  1.042672  0
H  H13  1  0.54295571  0.43938574  0.26018996  1  0  0.106086  0  0.95062  0  0  0.129741  0  1.008944  0  0  0.1308  0  1.009502  0  0  0.090151  0.128912  0  1.008648  0
H  H14  1  0.66042508  0.35553044  0.32390625  1  0  0.098737  0  0.983195  0  0  0.117387  0  1.05104  0  0  0.119328  0  1.050376  0  0  0.08305  0.115986  0  1.051513  0
H  H15  1  0.66979164  0.26039580  0.95754451  1  0  0.069063  0  0.957041  0  0  0.079279  0  1.019882  0  0  0.08108  0  1.01924  0  0  0.098158  0.077945  0  1.020531  0
H  H16  1  0.30449415  0.07638280  0.05152193  1  0  0.071468  0  0.948645  0  0  0.09331  0  1.004278  0  0  0.093858  0  1.005128  0  0  0.090335  0.092867  0  1.003766  0
H  H17  1  0.16078281  0.01779756  0.90535952  1  0  0.065424  0  0.959735  0  0  0.079247  0  1.028144  0  0  0.080425  0  1.02784  0  0  0.087174  0.078164  0  1.028857  0
H  H18  1  0.35672331  0.27770288  0.06234463  1  0  0.070938  0  0.941441  0  0  0.090609  0  0.99991  0  0  0.091492  0  1.000005  0  0  0.088723  0.089944  0  0.999855  0
H  H19  1  0.20199584  0.21746674  0.91965355  1  0  0.07949  0  0.953715  0  0  0.093757  0  1.019651  0  0  0.095888  0  1.018117  0  0  0.089537  0.092218  0  1.020762  0
H  H20  1  0.62338073  0.00217981  0.04612351  1  0  0.100419  0  0.970865  0  0  0.118201  0  1.039121  0  0  0.11999  0  1.038928  0  0  0.087096  0.116968  0  1.039175  0
H  H21  1  0.72405747  0.14468770  0.04184837  1  0  0.109961  0  0.952166  0  0  0.134027  0  1.008353  0  0  0.135601  0  1.008216  0  0  0.093158  0.132865  0  1.008486  0
H  H22  1  0.80906538  0.00925294  0.93521968  1  0  0.104776  0  0.964376  0  0  0.123875  0  1.029195  0  0  0.12538  0  1.029421  0  0  0.088873  0.122618  0  1.029362  0
H  H23  1  0.41450904  0.09197519  0.63343021  1  0  0.098557  0  0.969733  0  0  0.121056  0  1.031714  0  0  0.122373  0  1.031996  0  0  0.085878  0.120053  0  1.031582  0
H  H24  1  0.22938731  0.03505071  0.71598610  1  0  0.108121  0  0.951699  0  0  0.133619  0  1.007416  0  0  0.13458  0  1.008271  0  0  0.090809  0.132839  0  1.00694  0
H  H25  1  0.40180632  0.94113156  0.62074013  1  0  0.09967  0  0.964151  0  0  0.120409  0  1.02813  0  0  0.121953  0  1.028078  0  0  0.086033  0.119295  0  1.028145  0
H  H26  1  0.78949083  0.99257867  0.68893206  1  0  0.103507  0  0.970144  0  0  0.120509  0  1.039336  0  0  0.122815  0  1.037785  0  0  0.083557  0.118815  0  1.040476  0
H  H27  1  0.89030665  0.12666314  0.82956851  1  0  0.099129  0  0.969724  0  0  0.12166  0  1.032199  0  0  0.122722  0  1.032307  0  0  0.086873  0.120843  0  1.032266  0
H  H28  1  0.80073307  0.14277750  0.69836493  1  0  0.098904  0  0.970436  0  0  0.118126  0  1.038432  0  0  0.119328  0  1.038789  0  0  0.083843  0.117267  0  1.038162  0
H  H29  1  0.41272025  0.63029756  0.03374330  1  0  0.105288  0  0.964  0  0  0.113834  0  1.028717  0  0  0.116495  0  1.024966  0  0  0.135019  0.111815  0  1.031533  0
H  H30  1  0.90569891  0.71111802  0.82735386  1  0  0.114708  0  0.941228  0  0  0.124213  0  1.005908  0  0  0.12693  0  1.00213  0  0  0.144992  0.122224  0  1.008517  0
H  H31  1  0.97416622  0.98037095  0.12981492  1  0  0.079816  0  0.931437  0  0  0.090295  0  1.006194  0  0  0.091677  0  1.004566  0  0  0.108512  0.089263  0  1.007398  0
H  H32  1  0.12407461  0.88931731  0.00940071  1  0  0.086855  0  0.981378  0  0  0.099634  0  1.049043  0  0  0.101251  0  1.048192  0  0  0.111607  0.098449  0  1.04966  0
H  H33  1  0.15335316  0.77100815  0.14178780  1  0  0.072305  0  0.959259  0  0  0.088814  0  1.023757  0  0  0.089124  0  1.025111  0  0  0.091051  0.088518  0  1.022873  0
H  H34  1  0.03061763  0.87726355  0.26277126  1  0  0.066684  0  0.949101  0  0  0.086228  0  1.010146  0  0  0.086998  0  1.010297  0  0  0.091507  0.08555  0  1.010198  0
H  H35  1  0.45135276  0.93016417  0.15886183  1  0  0.056865  0  0.975479  0  0  0.072815  0  1.041667  0  0  0.073461  0  1.042455  0  0  0.083675  0.072287  0  1.041222  0
H  H36  1  0.32386929  0.04824143  0.26023508  1  0  0.047919  0  0.974579  0  0  0.066132  0  1.040611  0  0  0.066234  0  1.041685  0  0  0.081855  0.065943  0  1.040004  0
H  H37  1  0.33003204  0.97613132  0.42746111  1  0  0.056394  0  0.948087  0  0  0.078284  0  1.003829  0  0  0.078733  0  1.004577  0  0  0.086078  0.077891  0  1.003364  0
H  H38  1  0.42356380  0.84473941  0.32362939  1  0  0.073821  0  0.925214  0  0  0.09605  0  0.979738  0  0  0.096331  0  0.980811  0  0  0.09427  0.095737  0  0.979155  0
H  H39  1  0.75448384  0.97007948  0.31120063  1  0  0.073863  0  0.967609  0  0  0.084381  0  1.043812  0  0  0.086055  0  1.042559  0  0  0.092598  0.083118  0  1.044773  0
H  H40  1  0.71104150  0.99369767  0.46927494  1  0  0.070418  0  0.939871  0  0  0.090363  0  0.999353  0  0  0.09055  0  1.000681  0  0  0.092412  0.090121  0  0.998489  0
H  H41  1  0.63206768  0.16687847  0.35483176  1  0  0.073918  0  0.927733  0  0  0.09139  0  0.990643  0  0  0.091846  0  0.990141  0  0  0.113506  0.091036  0  0.991009  0
H  H42  1  0.60805657  0.19431486  0.51590890  1  0  0.080318  0  0.919505  0  0  0.096621  0  0.985603  0  0  0.096884  0  0.985642  0  0  0.116324  0.096398  0  0.985583  0
H  H43  1  0.36049375  0.26683269  0.37578125  1  0  0.082414  0  0.949342  0  0  0.093729  0  1.010912  0  0  0.095262  0  1.009069  0  0  0.132345  0.092505  0  1.01232  0
H  H44  1  0.93149596  0.32674617  0.65889939  1  0  0.128895  0  0.938903  0  0  0.136537  0  1.004077  0  0  0.1396  0  1.000052  0  0  0.144921  0.134264  0  1.006912  0
H  H45  1  0.79604300  0.44732177  0.96424358  1  0  0.400501  0  0.868077  0  0  0.369625  0  0.948133  0  0  0.382261  0  0.934129  0  0  0.30595  0.360681  0  0.95802  0
H  H46  1  0.53680854  0.73650952  0.67997391  1  0  0.406296  0  0.896019  0  0  0.371247  0  0.979606  0  0  0.384498  0  0.961192  0  0  0.301324  0.36196  0  0.989692  0
H  H47  1  0.22194880  0.65295021  0.81538915  1  0  0.419518  0  0.879393  0  0  0.38479  0  0.950301  0  0  0.395809  0  0.934168  0  0  0.290813  0.376979  0  0.961723  0
H  H48  1  0.13300560  0.56565282  0.88069279  1  0  0.419138  0  0.837143  0  0  0.392344  0  0.90965  0  0  0.401874  0  0.898367  0  0  0.306668  0.385525  0  0.917727  0
C  C49  1  0.66497853  0.55058622  0.54569611  1  0  0.652094  0  3.777293  0  0  0.604729  0  4.064504  0  0  0.63775  0  4.060239  0  0  0.213017  0.58228  0  4.066625  0
C  C50  1  0.79235644  0.61330678  0.47089174  1  0  -0.017369  0  3.480589  0  0  0.014578  0  3.703359  0  0  0.008792  0  3.721164  0  0  -0.008977  0.018481  0  3.6911  0
C  C51  1  0.66397463  0.68841841  0.43251726  1  0  -0.14635  0  3.626835  0  0  -0.192696  0  3.881522  0  0  -0.193104  0  3.893741  0  0  -0.170148  -0.192319  0  3.873148  0
C  C52  1  0.72614470  0.67489836  0.30047222  1  0  -0.124139  0  3.664341  0  0  -0.174706  0  3.927313  0  0  -0.175032  0  3.940264  0  0  -0.172958  -0.174232  0  3.918252  0
C  C53  1  0.91075526  0.60811253  0.27165563  1  0  -0.17904  0  3.586193  0  0  -0.179299  0  3.812072  0  0  -0.186963  0  3.82723  0  0  -0.085516  -0.174025  0  3.801585  0
C  C54  1  0.86574553  0.52214964  0.34097492  1  0  0.179541  0  3.479526  0  0  0.205659  0  3.707105  0  0  0.20688  0  3.727337  0  0  -0.003679  0.204847  0  3.693214  0
C  C55  1  0.94828500  0.54834727  0.13171613  1  0  0.689563  0  3.735783  0  0  0.641466  0  4.039155  0  0  0.674506  0  4.029852  0  0  0.235596  0.618969  0  4.044942  0
C  C56  1  0.97913962  0.70105385  0.56316805  1  0  -0.322874  0  3.654617  0  0  -0.406261  0  3.893548  0  0  -0.408825  0  3.903831  0  0  -0.242173  -0.404203  0  3.88645  0
C  C57  1  0.05868678  0.47497146  0.35542368  1  0  -0.343623  0  3.678873  0  0  -0.427201  0  3.920809  0  0  -0.430593  0  3.932044  0  0  -0.251147  -0.42461  0  3.913051  0
C  C58  1  0.68852062  0.41159477  0.27092414  1  0  -0.343934  0  3.664994  0  0  -0.427508  0  3.906414  0  0  -0.430631  0  3.916701  0  0  -0.250238  -0.425054  0  3.899239  0
C  C59  1  0.52967303  0.30599851  0.82783388  1  0  0.670266  0  3.834118  0  0  0.621908  0  4.129384  0  0  0.655748  0  4.123624  0  0  0.201405  0.598968  0  4.132402  0
C  C60  1  0.53001246  0.22136610  0.89227470  1  0  -0.171466  0  3.585124  0  0  -0.171479  0  3.810051  0  0  -0.178599  0  3.824337  0  0  -0.089965  -0.166739  0  3.800384  0
C  C61  1  0.55133135  0.08787840  0.79874116  1  0  0.173431  0  3.490238  0  0  0.204205  0  3.712301  0  0  0.205135  0  3.732662  0  0  -0.005668  0.203594  0  3.698424  0
C  C62  1  0.49303125  0.01962017  0.88647305  1  0  -0.024195  0  3.51189  0  0  0.002824  0  3.736826  0  0  -0.003099  0  3.755071  0  0  -0.009201  0.006814  0  3.724277  0
C  C63  1  0.30834543  0.07522711  0.95726864  1  0  -0.146393  0  3.635398  0  0  -0.194069  0  3.891055  0  0  -0.194542  0  3.904311  0  0  -0.166281  -0.193535  0  3.882041  0
C  C64  1  0.33661961  0.20598334  0.96442112  1  0  -0.111984  0  3.638426  0  0  -0.159592  0  3.898272  0  0  -0.159481  0  3.910206  0  0  -0.168446  -0.159467  0  3.889932  0
C  C65  1  0.43795769  0.87935010  0.81453027  1  0  0.67338  0  3.714577  0  0  0.623916  0  4.012227  0  0  0.656498  0  4.004537  0  0  0.243485  0.601771  0  4.016826  0
C  C66  1  0.67422425  0.04552996  0.98262020  1  0  -0.31554  0  3.654371  0  0  -0.398882  0  3.892789  0  0  -0.401474  0  3.903127  0  0  -0.239771  -0.396715  0  3.885648  0
C  C67  1  0.38939575  0.03546222  0.68607375  1  0  -0.343319  0  3.658406  0  0  -0.427783  0  3.89365  0  0  -0.430901  0  3.90421  0  0  -0.24764  -0.425318  0  3.886348  0
C  C68  1  0.77034602  0.08640389  0.75104490  1  0  -0.341548  0  3.678856  0  0  -0.428295  0  3.922587  0  0  -0.430809  0  3.932288  0  0  -0.251003  -0.426323  0  3.915946  0
C  C69  1  0.55424646  0.67450638  0.00824703  1  0  0.189121  0  3.704785  0  0  0.135219  0  3.993041  0  0  0.146996  0  4.005749  0  0  0.143347  0.127597  0  3.984187  0
C  C70  1  0.80271564  0.71226249  0.90136845  1  0  0.169624  0  3.637819  0  0  0.092822  0  3.90348  0  0  0.108022  0  3.914497  0  0  0.159263  0.083182  0  3.895712  0
C  C71  1  0.02204837  0.89077303  0.08531691  1  0  -0.034044  0  3.638059  0  0  -0.112186  0  3.904145  0  0  -0.108706  0  3.914482  0  0  -0.057088  -0.114131  0  3.896753  0
C  C72  1  0.13134143  0.86683395  0.18371435  1  0  -0.122289  0  3.676139  0  0  -0.164517  0  3.942256  0  0  -0.166089  0  3.956444  0  0  -0.166201  -0.163107  0  3.932239  0
C  C73  1  0.34175279  0.95326966  0.23424257  1  0  -0.11123  0  3.701522  0  0  -0.150265  0  3.958633  0  0  -0.151751  0  3.974581  0  0  -0.173156  -0.149068  0  3.947599  0
C  C74  1  0.43075379  0.94280657  0.34814065  1  0  -0.101062  0  3.683078  0  0  -0.13875  0  3.941309  0  0  -0.13979  0  3.956334  0  0  -0.16353  -0.137873  0  3.93086  0
C  C75  1  0.65684080  0.00955146  0.39029007  1  0  -0.136488  0  3.688333  0  0  -0.181236  0  3.957631  0  0  -0.182729  0  3.971223  0  0  -0.166165  -0.17987  0  3.94804  0
C  C76  1  0.68918347  0.14790485  0.43065416  1  0  -0.000427  0  3.624512  0  0  -0.080056  0  3.89159  0  0  -0.075459  0  3.902278  0  0  -0.044705  -0.082847  0  3.884031  0
C  C77  1  0.21916621  0.25871010  0.42386827  1  0  0.192098  0  3.755532  0  0  0.140047  0  4.046434  0  0  0.151708  0  4.060277  0  0  0.143526  0.132535  0  4.036698  0
C  C78  1  0.00627165  0.29196536  0.56981289  1  0  0.196541  0  3.593653  0  0  0.119184  0  3.855524  0  0  0.134807  0  3.865366  0  0  0.172706  0.109298  0  3.848498  0
N  N79  1  0.62320985  0.63409300  0.88876537  1  0  -0.422507  0  3.230698  0  0  -0.349714  0  3.522473  0  0  -0.372967  0  3.536849  0  0  -0.352947  -0.333913  0  3.512091  0
N  N80  1  0.68077845  0.77281431  0.09265084  1  0  -0.255787  0  2.881292  0  0  -0.244797  0  3.149841  0  0  -0.253802  0  3.164756  0  0  -0.211865  -0.238555  0  3.139854  0
N  N81  1  0.83852560  0.79526415  0.02336972  1  0  0.04236  0  3.561938  0  0  0.159152  0  3.755876  0  0  0.147877  0  3.781442  0  0  -0.136181  0.165302  0  3.740829  0
N  N82  1  0.90790182  0.20792913  0.45878362  1  0  0.042289  0  3.552901  0  0  0.164078  0  3.741126  0  0  0.153287  0  3.764833  0  0  -0.132594  0.169867  0  3.727341  0
N  N83  1  0.04145415  0.18518783  0.36390547  1  0  -0.280229  0  2.842916  0  0  -0.277045  0  3.105649  0  0  -0.28539  0  3.118764  0  0  -0.227452  -0.271213  0  3.096883  0
N  N84  1  0.20547632  0.32568554  0.55039429  1  0  -0.411682  0  3.193121  0  0  -0.33999  0  3.483857  0  0  -0.363462  0  3.497867  0  0  -0.348044  -0.323996  0  3.473624  0
O  O85  1  0.70382316  0.45425868  0.54799233  1  0  -0.619312  0  1.938945  0  0  -0.561532  0  2.178972  0  0  -0.589183  0  2.171209  0  0  -0.317362  -0.542271  0  2.183642  0
O  O86  1  0.52141439  0.60296387  0.61262640  1  0  -0.656673  0  2.048431  0  0  -0.587019  0  2.285808  0  0  -0.616689  0  2.275845  0  0  -0.329196  -0.566291  0  2.291334  0
O  O87  1  0.77395651  0.48767252  0.05844799  1  0  -0.553121  0  2.142343  0  0  -0.495093  0  2.360758  0  0  -0.519311  0  2.348408  0  0  -0.325769  -0.478247  0  2.368857  0
O  O88  1  0.12114885  0.55757307  0.08824184  1  0  -0.587986  0  1.896149  0  0  -0.549657  0  2.110497  0  0  -0.568964  0  2.099381  0  0  -0.308296  -0.536425  0  2.117944  0
O  O89  1  0.70536828  0.36414993  0.81311103  1  0  -0.679037  0  1.939675  0  0  -0.623683  0  2.173655  0  0  -0.650023  0  2.162159  0  0  -0.340556  -0.605162  0  2.180933  0
O  O90  1  0.35720735  0.31664136  0.79017660  1  0  -0.620104  0  1.95791  0  0  -0.555288  0  2.193792  0  0  -0.585072  0  2.185138  0  0  -0.326815  -0.534569  0  2.198993  0
O  O91  1  0.56994863  0.83305210  0.72855201  1  0  -0.565188  0  2.146293  0  0  -0.509544  0  2.375057  0  0  -0.534189  0  2.35979  0  0  -0.323789  -0.492428  0  2.383107  0
O  O92  1  0.28923778  0.81506298  0.83912385  1  0  -0.593113  0  1.968943  0  0  -0.537583  0  2.184914  0  0  -0.560393  0  2.176779  0  0  -0.292581  -0.521808  0  2.190117  0
O  O93  1  0.16599162  0.56631822  0.79906522  1  0  -0.801119  0  1.844276  0  0  -0.74505  0  2.036383  0  0  -0.76545  0  2.007354  0  0  -0.574245  -0.730564  0  2.056571  0
