# generated using pymatgen
data_CdH10(C5O2)3
_symmetry_space_group_name_H-M   'P 1'
_cell_length_a   7.03124906
_cell_length_b   12.42986550
_cell_length_c   15.52952818
_cell_angle_alpha   89.99981556
_cell_angle_beta   103.07144694
_cell_angle_gamma   90.00044520
_symmetry_Int_Tables_number   1
_chemical_formula_structural   CdH10(C5O2)3
_chemical_formula_sum   'Cd4 H40 C60 O24'
_cell_volume   1322.07386549
_cell_formula_units_Z   4
loop_
 _symmetry_equiv_pos_site_id
 _symmetry_equiv_pos_as_xyz
  1  'x, y, z'
loop_
 _atom_site_type_symbol
 _atom_site_label
 _atom_site_symmetry_multiplicity
 _atom_site_fract_x
 _atom_site_fract_y
 _atom_site_fract_z
 _atom_site_occupancy
 _atom_site_hle17_bader_spin_density
 _atom_site_hle17_ddec_charge
 _atom_site_hle17_ddec_spin_density
 _atom_site_hle17_ddec_sum_bond_order
 _atom_site_hle17_magmom
 _atom_site_hse06_10hf_bader_spin_density
 _atom_site_hse06_10hf_ddec_charge
 _atom_site_hse06_10hf_ddec_spin_density
 _atom_site_hse06_10hf_ddec_sum_bond_order
 _atom_site_hse06_10hf_magmom
 _atom_site_hse06_bader_spin_density
 _atom_site_hse06_ddec_charge
 _atom_site_hse06_ddec_spin_density
 _atom_site_hse06_ddec_sum_bond_order
 _atom_site_hse06_magmom
 _atom_site_pbe_bader_spin_density
 _atom_site_pbe_cm5_charge
 _atom_site_pbe_ddec_charge
 _atom_site_pbe_ddec_spin_density
 _atom_site_pbe_ddec_sum_bond_order
 _atom_site_pbe_magmom
Cd  Cd0  1  0.48388269  0.19300715  0.79969509  1  0  1.277734  0  1.580339  0  0  1.107742  0  2.021349  0  0  1.16875  0  1.95991  0  0  0.787936  1.06372  0  2.063696  0
Cd  Cd1  1  0.68475604  0.80727289  0.20027128  1  0  1.277796  0  1.579852  0  0  1.107674  0  2.021408  0  0  1.168738  0  1.959844  0  0  0.787651  1.063618  0  2.063858  0
Cd  Cd2  1  0.18475020  0.69273154  0.20027167  1  0  1.277767  0  1.579825  0  0  1.107685  0  2.021418  0  0  1.168748  0  1.959854  0  0  0.787653  1.063633  0  2.063872  0
Cd  Cd3  1  0.98388123  0.30699016  0.79969201  1  0  1.277769  0  1.580224  0  0  1.107818  0  2.021236  0  0  1.168823  0  1.959794  0  0  0.787981  1.0638  0  2.063581  0
H  H4  1  0.79679827  0.12699564  0.11008627  1  0  0.113377  0  0.972108  0  0  0.116643  0  1.042646  0  0  0.120746  0  1.03953  0  0  0.105365  0.113647  0  1.045055  0
H  H5  1  0.68807822  0.87278709  0.88993694  1  0  0.11199  0  0.97178  0  0  0.116453  0  1.041457  0  0  0.120616  0  1.038164  0  0  0.104914  0.113421  0  1.043904  0
H  H6  1  0.18807443  0.62721617  0.88993449  1  0  0.112045  0  0.971718  0  0  0.116543  0  1.041345  0  0  0.120687  0  1.038076  0  0  0.104946  0.113513  0  1.043789  0
H  H7  1  0.29679482  0.37301089  0.11009096  1  0  0.113411  0  0.972043  0  0  0.11667  0  1.042584  0  0  0.120775  0  1.039462  0  0  0.105343  0.113674  0  1.044989  0
H  H8  1  0.08060705  0.11289150  0.23643244  1  0  0.079374  0  0.972792  0  0  0.090101  0  1.036391  0  0  0.092186  0  1.036412  0  0  0.097076  0.08855  0  1.036555  0
H  H9  1  0.84563452  0.88700908  0.76359212  1  0  0.079843  0  0.972851  0  0  0.09033  0  1.036489  0  0  0.092409  0  1.036535  0  0  0.097305  0.088809  0  1.036613  0
H  H10  1  0.34563931  0.61299457  0.76359123  1  0  0.079858  0  0.972811  0  0  0.090346  0  1.036445  0  0  0.092422  0  1.03649  0  0  0.097314  0.088824  0  1.036568  0
H  H11  1  0.58061249  0.38711438  0.23643373  1  0  0.079435  0  0.972642  0  0  0.090166  0  1.036251  0  0  0.092253  0  1.036267  0  0  0.097089  0.088612  0  1.036417  0
H  H12  1  0.46736642  0.10972212  0.05613987  1  0  0.117814  0  0.961467  0  0  0.124245  0  1.026679  0  0  0.128558  0  1.023303  0  0  0.108586  0.121092  0  1.029254  0
H  H13  1  0.41247160  0.89051223  0.94382956  1  0  0.118444  0  0.961455  0  0  0.124831  0  1.02658  0  0  0.129212  0  1.023213  0  0  0.108657  0.121611  0  1.029197  0
H  H14  1  0.91247188  0.60949017  0.94383103  1  0  0.118408  0  0.961476  0  0  0.124794  0  1.026604  0  0  0.129175  0  1.023232  0  0  0.108613  0.121572  0  1.029224  0
H  H15  1  0.96736461  0.39027491  0.05613719  1  0  0.117849  0  0.961419  0  0  0.124279  0  1.026634  0  0  0.128597  0  1.023247  0  0  0.108592  0.12113  0  1.029201  0
H  H16  1  0.18265004  0.12882291  0.93053960  1  0  0.102607  0  0.962598  0  0  0.11014  0  1.028676  0  0  0.113282  0  1.026991  0  0  0.102753  0.107857  0  1.029983  0
H  H17  1  0.25354357  0.87111764  0.06945134  1  0  0.102289  0  0.962583  0  0  0.110111  0  1.028328  0  0  0.113188  0  1.026708  0  0  0.103029  0.107814  0  1.029683  0
H  H18  1  0.75353827  0.62888360  0.06945283  1  0  0.102308  0  0.962508  0  0  0.110141  0  1.028236  0  0  0.113212  0  1.026626  0  0  0.103037  0.107841  0  1.029596  0
H  H19  1  0.68264213  0.37117255  0.93053828  1  0  0.10256  0  0.962587  0  0  0.110143  0  1.028626  0  0  0.113287  0  1.026931  0  0  0.10273  0.107852  0  1.029944  0
H  H20  1  0.51847029  0.25169581  0.35381549  1  0  0.097028  0  0.952089  0  0  0.107193  0  1.013739  0  0  0.110156  0  1.01305  0  0  0.102604  0.105064  0  1.014338  0
H  H21  1  0.16745653  0.74855421  0.64609389  1  0  0.096976  0  0.95142  0  0  0.107238  0  1.013029  0  0  0.11018  0  1.01238  0  0  0.102386  0.105129  0  1.013614  0
H  H22  1  0.66745432  0.75143948  0.64609926  1  0  0.096988  0  0.951474  0  0  0.107193  0  1.013134  0  0  0.110134  0  1.012489  0  0  0.102412  0.105082  0  1.013723  0
H  H23  1  0.01847104  0.24830772  0.35381191  1  0  0.097049  0  0.952082  0  0  0.107238  0  1.013711  0  0  0.110203  0  1.013021  0  0  0.102629  0.105107  0  1.01431  0
H  H24  1  0.44610290  0.24536382  0.50361018  1  0  0.096291  0  0.940649  0  0  0.108488  0  0.997194  0  0  0.111421  0  0.995863  0  0  0.105572  0.10634  0  0.998246  0
H  H25  1  0.94477635  0.75450961  0.49637450  1  0  0.096654  0  0.941176  0  0  0.108742  0  0.997846  0  0  0.111631  0  0.996593  0  0  0.105594  0.106653  0  0.998807  0
H  H26  1  0.44478436  0.74548590  0.49637812  1  0  0.096745  0  0.941063  0  0  0.108859  0  0.997695  0  0  0.111746  0  0.996445  0  0  0.105672  0.106766  0  0.998662  0
H  H27  1  0.94610366  0.25462889  0.50360746  1  0  0.096281  0  0.940589  0  0  0.108441  0  0.997165  0  0  0.111391  0  0.995816  0  0  0.105539  0.106296  0  0.998216  0
H  H28  1  0.31278460  0.07838495  0.55530152  1  0  0.104894  0  0.962264  0  0  0.114128  0  1.021025  0  0  0.117048  0  1.020225  0  0  0.100765  0.111998  0  1.021767  0
H  H29  1  0.75849826  0.92114265  0.44481173  1  0  0.105852  0  0.961433  0  0  0.114906  0  1.020481  0  0  0.117919  0  1.019557  0  0  0.10128  0.112719  0  1.021285  0
H  H30  1  0.25850405  0.57884824  0.44481039  1  0  0.105852  0  0.961432  0  0  0.114921  0  1.020461  0  0  0.117938  0  1.019529  0  0  0.101257  0.112732  0  1.021268  0
H  H31  1  0.81277444  0.42160616  0.55530048  1  0  0.104955  0  0.962186  0  0  0.114194  0  1.020938  0  0  0.117113  0  1.020137  0  0  0.100815  0.112064  0  1.021675  0
H  H32  1  0.25436343  0.91692025  0.45734823  1  0  0.095794  0  0.967022  0  0  0.103693  0  1.033103  0  0  0.106577  0  1.032055  0  0  0.102216  0.101621  0  1.033913  0
H  H33  1  0.79697751  0.08259283  0.54278242  1  0  0.096372  0  0.966604  0  0  0.104757  0  1.032144  0  0  0.107583  0  1.031158  0  0  0.102717  0.102711  0  1.032913  0
H  H34  1  0.29699072  0.41739988  0.54278613  1  0  0.0964  0  0.9666  0  0  0.104726  0  1.032192  0  0  0.107551  0  1.031205  0  0  0.102735  0.102681  0  1.032956  0
H  H35  1  0.75436482  0.58307379  0.45734860  1  0  0.095769  0  0.967169  0  0  0.103652  0  1.033263  0  0  0.106534  0  1.032218  0  0  0.1022  0.101576  0  1.034079  0
H  H36  1  0.67075565  0.08005965  0.69052770  1  0  0.422425  0  0.860838  0  0  0.391807  0  0.934406  0  0  0.401134  0  0.921029  0  0  0.299473  0.385136  0  0.943967  0
H  H37  1  0.98000391  0.92147165  0.30918968  1  0  0.421853  0  0.86065  0  0  0.391329  0  0.934267  0  0  0.400581  0  0.921028  0  0  0.299704  0.384731  0  0.943688  0
H  H38  1  0.48000385  0.57854569  0.30919417  1  0  0.421904  0  0.86066  0  0  0.391375  0  0.934233  0  0  0.40063  0  0.92099  0  0  0.299734  0.384779  0  0.943654  0
H  H39  1  0.17074846  0.41994639  0.69052480  1  0  0.42247  0  0.860867  0  0  0.391891  0  0.934284  0  0  0.401214  0  0.920916  0  0  0.299523  0.38522  0  0.943848  0
H  H40  1  0.52324717  0.99433626  0.72069179  1  0  0.42508  0  0.87048  0  0  0.392679  0  0.936167  0  0  0.403954  0  0.919749  0  0  0.296405  0.384639  0  0.947872  0
H  H41  1  0.80129841  0.00645257  0.27912243  1  0  0.425427  0  0.870069  0  0  0.393162  0  0.935515  0  0  0.404397  0  0.919115  0  0  0.296311  0.385155  0  0.947201  0
H  H42  1  0.30130972  0.49355651  0.27912446  1  0  0.425472  0  0.869998  0  0  0.393246  0  0.935375  0  0  0.40448  0  0.918976  0  0  0.296392  0.385245  0  0.94705  0
H  H43  1  0.02323884  0.50566536  0.72069112  1  0  0.425062  0  0.870498  0  0  0.392734  0  0.936078  0  0  0.404007  0  0.919665  0  0  0.29644  0.38469  0  0.94779  0
C  C44  1  0.79892303  0.14377854  0.93705382  1  0  0.652721  0  3.889207  0  0  0.59977  0  4.180743  0  0  0.635124  0  4.175243  0  0  0.207722  0.575712  0  4.183564  0
C  C45  1  0.86304321  0.85624029  0.06300636  1  0  0.651502  0  3.888574  0  0  0.598505  0  4.180456  0  0  0.63385  0  4.174928  0  0  0.207534  0.574463  0  4.183272  0
C  C46  1  0.36304839  0.64376064  0.06300930  1  0  0.65154  0  3.888834  0  0  0.598608  0  4.180595  0  0  0.633953  0  4.175061  0  0  0.207568  0.57457  0  4.183401  0
C  C47  1  0.29891791  0.35622303  0.93705193  1  0  0.65288  0  3.88888  0  0  0.599918  0  4.180467  0  0  0.635267  0  4.174961  0  0  0.207782  0.575838  0  4.183321  0
C  C48  1  0.97184530  0.13154253  0.01220883  1  0  -0.042244  0  3.726232  0  0  -0.020304  0  3.957249  0  0  -0.026851  0  3.97921  0  0  -0.004968  -0.016056  0  3.942465  0
C  C49  1  0.96093202  0.86844069  0.98783993  1  0  -0.038939  0  3.720361  0  0  -0.017096  0  3.952095  0  0  -0.023624  0  3.974051  0  0  -0.003875  -0.012873  0  3.937298  0
C  C50  1  0.46092682  0.63155933  0.98784055  1  0  -0.039007  0  3.720358  0  0  -0.017177  0  3.952107  0  0  -0.023707  0  3.974054  0  0  -0.003911  -0.012953  0  3.937307  0
C  C51  1  0.47184035  0.36846114  0.01220694  1  0  -0.042382  0  3.726164  0  0  -0.020508  0  3.957309  0  0  -0.027054  0  3.979269  0  0  -0.005016  -0.016247  0  3.942517  0
C  C52  1  0.94364524  0.12472403  0.09854657  1  0  -0.063203  0  3.701856  0  0  -0.086845  0  3.954855  0  0  -0.08801  0  3.975137  0  0  -0.079798  -0.085927  0  3.941088  0
C  C53  1  0.84642557  0.87519129  0.90149333  1  0  -0.064403  0  3.698788  0  0  -0.089353  0  3.952129  0  0  -0.090568  0  3.972599  0  0  -0.080387  -0.088377  0  3.93834  0
C  C54  1  0.34642467  0.62481421  0.90149440  1  0  -0.064453  0  3.698783  0  0  -0.089438  0  3.952122  0  0  -0.090637  0  3.972612  0  0  -0.080382  -0.08847  0  3.938341  0
C  C55  1  0.44364329  0.37528157  0.09854561  1  0  -0.063241  0  3.701759  0  0  -0.086843  0  3.954769  0  0  -0.088009  0  3.975055  0  0  -0.079777  -0.085927  0  3.941016  0
C  C56  1  0.10371007  0.11565278  0.16941402  1  0  -0.066359  0  3.704779  0  0  -0.091522  0  3.958707  0  0  -0.093492  0  3.981915  0  0  -0.082609  -0.090063  0  3.942903  0
C  C57  1  0.93561209  0.88429390  0.83061120  1  0  -0.06551  0  3.703761  0  0  -0.090311  0  3.957577  0  0  -0.092283  0  3.980761  0  0  -0.081993  -0.088901  0  3.941798  0
C  C58  1  0.43561252  0.61570825  0.83061243  1  0  -0.06555  0  3.703791  0  0  -0.090319  0  3.957658  0  0  -0.092287  0  3.980834  0  0  -0.082062  -0.088905  0  3.941873  0
C  C59  1  0.60371255  0.38435267  0.16941309  1  0  -0.066472  0  3.704646  0  0  -0.091644  0  3.95855  0  0  -0.093615  0  3.981758  0  0  -0.082633  -0.090181  0  3.942749  0
C  C60  1  0.29434778  0.11064673  0.15539992  1  0  -0.03065  0  3.745152  0  0  -0.013821  0  3.981408  0  0  -0.020992  0  4.006416  0  0  -0.014066  -0.009054  0  3.964663  0
C  C61  1  0.14019434  0.88942897  0.84461156  1  0  -0.031477  0  3.744473  0  0  -0.014431  0  3.979489  0  0  -0.021511  0  4.004578  0  0  -0.014644  -0.009642  0  3.962575  0
C  C62  1  0.64019609  0.61056622  0.84461318  1  0  -0.03138  0  3.744383  0  0  -0.014461  0  3.979493  0  0  -0.02154  0  4.004578  0  0  -0.014612  -0.009671  0  3.962578  0
C  C63  1  0.79435179  0.38935800  0.15539849  1  0  -0.030537  0  3.745486  0  0  -0.013725  0  3.981685  0  0  -0.020895  0  4.006694  0  0  -0.014041  -0.008971  0  3.964976  0
C  C64  1  0.32154074  0.11611927  0.06860213  1  0  -0.049273  0  3.659787  0  0  -0.072938  0  3.909162  0  0  -0.073538  0  3.928567  0  0  -0.071049  -0.072437  0  3.896029  0
C  C65  1  0.25421414  0.88398409  0.93137896  1  0  -0.049697  0  3.659163  0  0  -0.073564  0  3.908561  0  0  -0.074279  0  3.927914  0  0  -0.070612  -0.073004  0  3.895473  0
C  C66  1  0.75421305  0.61601365  0.93138092  1  0  -0.049617  0  3.659022  0  0  -0.073436  0  3.908436  0  0  -0.07415  0  3.927789  0  0  -0.07053  -0.072883  0  3.895351  0
C  C67  1  0.82154176  0.38388432  0.06860169  1  0  -0.049454  0  3.659918  0  0  -0.07312  0  3.909303  0  0  -0.073722  0  3.928716  0  0  -0.071093  -0.072607  0  3.896148  0
C  C68  1  0.16160269  0.12724186  0.99786678  1  0  -0.061052  0  3.69983  0  0  -0.082474  0  3.946323  0  0  -0.08407  0  3.967749  0  0  -0.077722  -0.081295  0  3.931879  0
C  C69  1  0.16504107  0.87278695  0.00215022  1  0  -0.060306  0  3.69614  0  0  -0.081853  0  3.942818  0  0  -0.083352  0  3.964192  0  0  -0.077748  -0.080708  0  3.92843  0
C  C70  1  0.66503575  0.62721257  0.00215107  1  0  -0.060325  0  3.696049  0  0  -0.081897  0  3.942757  0  0  -0.08339  0  3.964132  0  0  -0.077791  -0.080744  0  3.928368  0
C  C71  1  0.66160064  0.37276290  0.99786541  1  0  -0.060826  0  3.699549  0  0  -0.082276  0  3.946064  0  0  -0.083872  0  3.967493  0  0  -0.077652  -0.081089  0  3.931595  0
C  C72  1  0.46535556  0.09870233  0.23051587  1  0  0.425686  0  3.686753  0  0  0.398278  0  3.954627  0  0  0.42306  0  3.953527  0  0  0.174819  0.381166  0  3.955327  0
C  C73  1  0.23600109  0.90148336  0.76947603  1  0  0.425121  0  3.685735  0  0  0.399057  0  3.951561  0  0  0.423565  0  3.950862  0  0  0.174149  0.382078  0  3.952125  0
C  C74  1  0.73600269  0.59851415  0.76947702  1  0  0.424955  0  3.685926  0  0  0.398998  0  3.951662  0  0  0.423509  0  3.950961  0  0  0.174147  0.382018  0  3.952225  0
C  C75  1  0.96535535  0.40130283  0.23051397  1  0  0.425485  0  3.687163  0  0  0.398223  0  3.954883  0  0  0.423003  0  3.953786  0  0  0.174744  0.381095  0  3.955624  0
C  C76  1  0.42849326  0.08804467  0.32177585  1  0  -0.027584  0  3.738889  0  0  -0.018012  0  3.972819  0  0  -0.020144  0  3.993622  0  0  -0.008552  -0.016406  0  3.958737  0
C  C77  1  0.10779976  0.91192184  0.67824727  1  0  -0.027765  0  3.738043  0  0  -0.018131  0  3.97156  0  0  -0.020209  0  3.992424  0  0  -0.008401  -0.016572  0  3.957455  0
C  C78  1  0.60780122  0.58806986  0.67824956  1  0  -0.027677  0  3.737899  0  0  -0.018087  0  3.971363  0  0  -0.020166  0  3.992226  0  0  -0.008416  -0.016529  0  3.957256  0
C  C79  1  0.92850049  0.41196077  0.32177404  1  0  -0.027336  0  3.738845  0  0  -0.017885  0  3.972841  0  0  -0.020019  0  3.993646  0  0  -0.008499  -0.016279  0  3.958766  0
C  C80  1  0.46184157  0.17824593  0.37708635  1  0  -0.095378  0  3.732731  0  0  -0.117682  0  3.985444  0  0  -0.120623  0  4.006251  0  0  -0.084516  -0.115656  0  3.971211  0
C  C81  1  0.08672299  0.82178255  0.62288719  1  0  -0.095315  0  3.730386  0  0  -0.117826  0  3.983122  0  0  -0.120719  0  4.00384  0  0  -0.084136  -0.115837  0  3.968959  0
C  C82  1  0.58672418  0.67820767  0.62288922  1  0  -0.095225  0  3.730045  0  0  -0.117689  0  3.982821  0  0  -0.120582  0  4.003538  0  0  -0.084078  -0.115703  0  3.968661  0
C  C83  1  0.96184323  0.32175943  0.37708356  1  0  -0.095645  0  3.73284  0  0  -0.117966  0  3.985607  0  0  -0.120911  0  4.006423  0  0  -0.084666  -0.115928  0  3.971362  0
C  C84  1  0.41934735  0.17490372  0.46068722  1  0  -0.045565  0  3.740466  0  0  -0.06075  0  3.992166  0  0  -0.061003  0  4.011619  0  0  -0.079495  -0.060361  0  3.978798  0
C  C85  1  0.96056289  0.82496004  0.53930938  1  0  -0.045759  0  3.740539  0  0  -0.06063  0  3.992057  0  0  -0.060847  0  4.011494  0  0  -0.079082  -0.060296  0  3.978695  0
C  C86  1  0.46056703  0.67502893  0.53931020  1  0  -0.045864  0  3.740385  0  0  -0.06076  0  3.99194  0  0  -0.060973  0  4.011373  0  0  -0.079166  -0.060423  0  3.97858  0
C  C87  1  0.91934759  0.32509307  0.46068492  1  0  -0.045423  0  3.740339  0  0  -0.060535  0  3.991973  0  0  -0.060802  0  4.011433  0  0  -0.079389  -0.060149  0  3.978601  0
C  C88  1  0.34261057  0.08145357  0.48960384  1  0  -0.062455  0  3.739643  0  0  -0.075202  0  3.987876  0  0  -0.077928  0  4.0086  0  0  -0.087513  -0.073392  0  3.973773  0
C  C89  1  0.85417044  0.91820544  0.51045937  1  0  -0.063494  0  3.73952  0  0  -0.07651  0  3.988592  0  0  -0.079293  0  4.009211  0  0  -0.088233  -0.074658  0  3.974552  0
C  C90  1  0.35417627  0.58178157  0.51045931  1  0  -0.0636  0  3.739803  0  0  -0.07663  0  3.988857  0  0  -0.079417  0  4.009478  0  0  -0.088294  -0.074782  0  3.974823  0
C  C91  1  0.84260913  0.41854116  0.48960370  1  0  -0.062574  0  3.739463  0  0  -0.075325  0  3.987675  0  0  -0.078053  0  4.008405  0  0  -0.087561  -0.07351  0  3.973561  0
C  C92  1  0.31158239  0.99092202  0.43526867  1  0  -0.072683  0  3.747513  0  0  -0.095841  0  3.994986  0  0  -0.095622  0  4.015209  0  0  -0.083835  -0.095798  0  3.981268  0
C  C93  1  0.87676452  0.00871445  0.56480120  1  0  -0.072977  0  3.746017  0  0  -0.096254  0  3.993972  0  0  -0.096007  0  4.014289  0  0  -0.084028  -0.096212  0  3.980152  0
C  C94  1  0.37676849  0.49127691  0.56480441  1  0  -0.072983  0  3.746338  0  0  -0.096219  0  3.994264  0  0  -0.095972  0  4.014583  0  0  -0.084061  -0.096183  0  3.980444  0
C  C95  1  0.81158134  0.50907477  0.43527026  1  0  -0.072644  0  3.747544  0  0  -0.095793  0  3.995027  0  0  -0.095574  0  4.01525  0  0  -0.083805  -0.095747  0  3.981301  0
C  C96  1  0.35484192  0.99307999  0.35149196  1  0  -0.112886  0  3.765717  0  0  -0.094685  0  3.998019  0  0  -0.102438  0  4.019605  0  0  -0.022016  -0.089742  0  3.983595  0
C  C97  1  0.00371002  0.00666570  0.64857741  1  0  -0.111637  0  3.765152  0  0  -0.094049  0  3.998483  0  0  -0.101774  0  4.020007  0  0  -0.021315  -0.089091  0  3.984065  0
C  C98  1  0.50371103  0.49332692  0.64858056  1  0  -0.111653  0  3.765569  0  0  -0.093998  0  3.998827  0  0  -0.101724  0  4.020353  0  0  -0.021269  -0.089034  0  3.984394  0
C  C99  1  0.85484668  0.50692135  0.35149286  1  0  -0.112831  0  3.765643  0  0  -0.094594  0  3.997979  0  0  -0.102345  0  4.019563  0  0  -0.021999  -0.089652  0  3.983558  0
C  C100  1  0.32713260  0.89418919  0.29488224  1  0  0.655012  0  3.913623  0  0  0.602951  0  4.204579  0  0  0.638609  0  4.197297  0  0  0.206864  0.578713  0  4.208566  0
C  C101  1  0.03173617  0.10548650  0.70521320  1  0  0.655956  0  3.910133  0  0  0.603727  0  4.201523  0  0  0.639377  0  4.194182  0  0  0.207459  0.579467  0  4.205572  0
C  C102  1  0.53173003  0.39451163  0.70521650  1  0  0.655939  0  3.91019  0  0  0.603671  0  4.201622  0  0  0.639319  0  4.194283  0  0  0.207467  0.579422  0  4.205656  0
C  C103  1  0.82712992  0.60581145  0.29488406  1  0  0.654735  0  3.913673  0  0  0.602671  0  4.204655  0  0  0.638327  0  4.19738  0  0  0.206697  0.578436  0  4.208636  0
O  O104  1  0.82404455  0.17987165  0.86209150  1  0  -0.73267  0  2.15373  0  0  -0.651768  0  2.430582  0  0  -0.687485  0  2.418174  0  0  -0.345167  -0.626352  0  2.437771  0
O  O105  1  0.96289849  0.82006700  0.13797075  1  0  -0.732231  0  2.153915  0  0  -0.651047  0  2.430564  0  0  -0.686952  0  2.418487  0  0  -0.344504  -0.625596  0  2.437736  0
O  O106  1  0.46290416  0.67993326  0.13797236  1  0  -0.732257  0  2.154146  0  0  -0.651092  0  2.430762  0  0  -0.687001  0  2.418701  0  0  -0.344514  -0.625652  0  2.437962  0
O  O107  1  0.32403895  0.32012792  0.86209095  1  0  -0.732746  0  2.153646  0  0  -0.651793  0  2.430444  0  0  -0.687536  0  2.418097  0  0  -0.345142  -0.62637  0  2.437641  0
O  O108  1  0.62927782  0.12061057  0.94554772  1  0  -0.592769  0  1.938333  0  0  -0.530764  0  2.170308  0  0  -0.559651  0  2.162974  0  0  -0.296751  -0.510516  0  2.17472  0
O  O109  1  0.68494692  0.87956198  0.05443636  1  0  -0.593552  0  1.937224  0  0  -0.531805  0  2.169919  0  0  -0.5606  0  2.162397  0  0  -0.297448  -0.511539  0  2.174339  0
O  O110  1  0.18495034  0.62044305  0.05444239  1  0  -0.593571  0  1.937317  0  0  -0.531848  0  2.170003  0  0  -0.560644  0  2.162478  0  0  -0.297456  -0.511595  0  2.174447  0
O  O111  1  0.12927885  0.37939506  0.94554513  1  0  -0.592804  0  1.93831  0  0  -0.530802  0  2.170296  0  0  -0.559687  0  2.162963  0  0  -0.2968  -0.510552  0  2.174724  0
O  O112  1  0.63620893  0.10622815  0.22131138  1  0  -0.487033  0  1.977373  0  0  -0.432749  0  2.18765  0  0  -0.451693  0  2.18124  0  0  -0.253016  -0.419798  0  2.1921  0
O  O113  1  0.41607843  0.89426805  0.77860856  1  0  -0.487059  0  1.975766  0  0  -0.433809  0  2.185921  0  0  -0.452682  0  2.179679  0  0  -0.253525  -0.420882  0  2.190283  0
O  O114  1  0.91608158  0.60573182  0.77861162  1  0  -0.487019  0  1.97594  0  0  -0.433788  0  2.186005  0  0  -0.452663  0  2.179763  0  0  -0.253511  -0.420864  0  2.190371  0
O  O115  1  0.13620285  0.39377482  0.22130802  1  0  -0.487015  0  1.977493  0  0  -0.432773  0  2.187689  0  0  -0.451717  0  2.181279  0  0  -0.25298  -0.419819  0  2.192149  0
O  O116  1  0.40997311  0.89027554  0.23001062  1  0  -0.666043  0  2.065348  0  0  -0.596866  0  2.323269  0  0  -0.628406  0  2.312941  0  0  -0.319761  -0.574223  0  2.329283  0
O  O117  1  0.17938197  0.10981015  0.77004881  1  0  -0.666881  0  2.065417  0  0  -0.597145  0  2.322841  0  0  -0.628693  0  2.312528  0  0  -0.319475  -0.574566  0  2.328988  0
O  O118  1  0.67937577  0.39018997  0.77005083  1  0  -0.666744  0  2.065401  0  0  -0.597031  0  2.32287  0  0  -0.62858  0  2.312557  0  0  -0.319411  -0.574459  0  2.329013  0
O  O119  1  0.90996464  0.60973055  0.23000991  1  0  -0.665827  0  2.065307  0  0  -0.596773  0  2.323364  0  0  -0.628308  0  2.313028  0  0  -0.319689  -0.57413  0  2.329377  0
O  O120  1  0.21748841  0.81982126  0.31365846  1  0  -0.637378  0  1.959683  0  0  -0.567284  0  2.191613  0  0  -0.59662  0  2.180517  0  0  -0.319475  -0.546654  0  2.198486  0
O  O121  1  0.90262049  0.17952785  0.68648798  1  0  -0.637692  0  1.959145  0  0  -0.567695  0  2.191579  0  0  -0.596989  0  2.180288  0  0  -0.319662  -0.547084  0  2.1986  0
O  O122  1  0.40261926  0.32046715  0.68649560  1  0  -0.637791  0  1.959139  0  0  -0.567773  0  2.191554  0  0  -0.597065  0  2.180266  0  0  -0.319736  -0.54715  0  2.198534  0
O  O123  1  0.71748234  0.68017723  0.31366103  1  0  -0.637325  0  1.959593  0  0  -0.567155  0  2.191437  0  0  -0.59649  0  2.180348  0  0  -0.319421  -0.546522  0  2.198304  0
O  O124  1  0.53717162  0.06760869  0.69741108  1  0  -0.821417  0  1.905544  0  0  -0.759211  0  2.102005  0  0  -0.782902  0  2.069905  0  0  -0.569131  -0.742341  0  2.124364  0
O  O125  1  0.83944179  0.93322289  0.30228594  1  0  -0.820582  0  1.905692  0  0  -0.758494  0  2.103257  0  0  -0.782029  0  2.071135  0  0  -0.568362  -0.741761  0  2.125646  0
O  O126  1  0.33944157  0.56678502  0.30228853  1  0  -0.820667  0  1.905722  0  0  -0.758618  0  2.10321  0  0  -0.782155  0  2.071084  0  0  -0.568452  -0.741883  0  2.125595  0
O  O127  1  0.03716751  0.43239272  0.69741233  1  0  -0.821413  0  1.905665  0  0  -0.759337  0  2.102028  0  0  -0.783006  0  2.069894  0  0  -0.569209  -0.74247  0  2.124388  0
