# generated using pymatgen
data_RbH5C14N4O
_symmetry_space_group_name_H-M   'P 1'
_cell_length_a   8.50870741
_cell_length_b   9.38150426
_cell_length_c   17.74172885
_cell_angle_alpha   89.99986861
_cell_angle_beta   90.00007293
_cell_angle_gamma   108.05884271
_symmetry_Int_Tables_number   1
_chemical_formula_structural   RbH5C14N4O
_chemical_formula_sum   'Rb4 H20 C56 N16 O4'
_cell_volume   1346.45907941
_cell_formula_units_Z   4
loop_
 _symmetry_equiv_pos_site_id
 _symmetry_equiv_pos_as_xyz
  1  'x, y, z'
loop_
 _atom_site_type_symbol
 _atom_site_label
 _atom_site_symmetry_multiplicity
 _atom_site_fract_x
 _atom_site_fract_y
 _atom_site_fract_z
 _atom_site_occupancy
 _atom_site_hle17_bader_spin_density
 _atom_site_hle17_ddec_charge
 _atom_site_hle17_ddec_spin_density
 _atom_site_hle17_ddec_sum_bond_order
 _atom_site_hle17_magmom
 _atom_site_hse06_10hf_bader_spin_density
 _atom_site_hse06_10hf_ddec_charge
 _atom_site_hse06_10hf_ddec_spin_density
 _atom_site_hse06_10hf_ddec_sum_bond_order
 _atom_site_hse06_10hf_magmom
 _atom_site_hse06_bader_spin_density
 _atom_site_hse06_ddec_charge
 _atom_site_hse06_ddec_spin_density
 _atom_site_hse06_ddec_sum_bond_order
 _atom_site_hse06_magmom
 _atom_site_pbe_bader_spin_density
 _atom_site_pbe_cm5_charge
 _atom_site_pbe_ddec_charge
 _atom_site_pbe_ddec_spin_density
 _atom_site_pbe_ddec_sum_bond_order
 _atom_site_pbe_magmom
Rb  Rb0  1  0.12915901  0.77906706  0.83473502  1  0  0.928045  0  0.464595  0  0  0.875235  0  0.671155  0  0  0.887592  0  0.652073  0  0  0.820289  0.866213  0  0.684676  0
Rb  Rb1  1  0.37084065  0.22093133  0.33473568  1  0  0.928048  0  0.4646  0  0  0.875243  0  0.671168  0  0  0.887595  0  0.652095  0  0  0.820304  0.866223  0  0.684689  0
Rb  Rb2  1  0.87084090  0.22092947  0.16526475  1  0  0.928053  0  0.464596  0  0  0.875249  0  0.671155  0  0  0.887599  0  0.652087  0  0  0.8203  0.866227  0  0.684675  0
Rb  Rb3  1  0.62915685  0.77906853  0.66526521  1  0  0.928059  0  0.464585  0  0  0.875259  0  0.671133  0  0  0.887602  0  0.652077  0  0  0.820305  0.866237  0  0.684654  0
H  H4  1  0.19115575  0.43282926  0.97322569  1  0  0.107989  0  0.952515  0  0  0.11564  0  1.016235  0  0  0.118532  0  1.01461  0  0  0.109658  0.113563  0  1.01743  0
H  H5  1  0.30884713  0.56717418  0.47322928  1  0  0.107978  0  0.95245  0  0  0.115601  0  1.01621  0  0  0.118494  0  1.014584  0  0  0.109639  0.113524  0  1.017405  0
H  H6  1  0.80884682  0.56717176  0.02677069  1  0  0.107958  0  0.952342  0  0  0.115593  0  1.016106  0  0  0.118488  0  1.014474  0  0  0.109623  0.113515  0  1.017301  0
H  H7  1  0.69115496  0.43283242  0.52677499  1  0  0.107985  0  0.952475  0  0  0.115695  0  1.016128  0  0  0.118589  0  1.014497  0  0  0.109682  0.113619  0  1.017325  0
H  H8  1  0.40533611  0.47872622  0.87158344  1  0  0.093911  0  0.961572  0  0  0.103135  0  1.023567  0  0  0.104983  0  1.024509  0  0  0.101674  0.101829  0  1.023002  0
H  H9  1  0.09466975  0.52127990  0.37158639  1  0  0.094031  0  0.96146  0  0  0.103262  0  1.02345  0  0  0.10511  0  1.024392  0  0  0.101715  0.101954  0  1.022888  0
H  H10  1  0.59466219  0.52127253  0.12841069  1  0  0.093966  0  0.961585  0  0  0.10319  0  1.023571  0  0  0.105038  0  1.024512  0  0  0.101702  0.101882  0  1.023009  0
H  H11  1  0.90533581  0.47873009  0.62841563  1  0  0.093921  0  0.961584  0  0  0.103145  0  1.023579  0  0  0.104993  0  1.02452  0  0  0.101674  0.101837  0  1.023016  0
H  H12  1  0.64747564  0.70917182  0.87466199  1  0  0.095145  0  0.962675  0  0  0.103599  0  1.027586  0  0  0.106278  0  1.02599  0  0  0.108611  0.101699  0  1.028702  0
H  H13  1  0.85252648  0.29083768  0.37466143  1  0  0.095105  0  0.96272  0  0  0.103567  0  1.027631  0  0  0.106252  0  1.026017  0  0  0.108588  0.101669  0  1.028747  0
H  H14  1  0.35252216  0.29083252  0.12533721  1  0  0.095092  0  0.962725  0  0  0.103567  0  1.027613  0  0  0.106251  0  1.025999  0  0  0.108602  0.101668  0  1.028728  0
H  H15  1  0.14747518  0.70917116  0.62533777  1  0  0.095149  0  0.962737  0  0  0.103608  0  1.027638  0  0  0.106284  0  1.02605  0  0  0.108632  0.101709  0  1.028753  0
H  H16  1  0.67993777  0.89305361  0.97959642  1  0  0.093943  0  0.963463  0  0  0.103422  0  1.025039  0  0  0.105569  0  1.02527  0  0  0.103112  0.101892  0  1.024989  0
H  H17  1  0.82006187  0.10694762  0.47959493  1  0  0.093941  0  0.963528  0  0  0.10341  0  1.025099  0  0  0.105547  0  1.025357  0  0  0.103109  0.101881  0  1.025046  0
H  H18  1  0.32005512  0.10693950  0.02040391  1  0  0.093906  0  0.963396  0  0  0.10339  0  1.024986  0  0  0.105521  0  1.025262  0  0  0.103103  0.10186  0  1.024932  0
H  H19  1  0.17994263  0.89305565  0.52040427  1  0  0.093921  0  0.963454  0  0  0.103413  0  1.025021  0  0  0.105546  0  1.025289  0  0  0.103113  0.101883  0  1.024968  0
H  H20  1  0.46496833  0.85183767  0.07784661  1  0  0.091518  0  0.965858  0  0  0.09975  0  1.031881  0  0  0.102291  0  1.030814  0  0  0.103356  0.097987  0  1.032528  0
H  H21  1  0.03502826  0.14816060  0.57784665  1  0  0.091512  0  0.965831  0  0  0.099738  0  1.031856  0  0  0.102274  0  1.030801  0  0  0.103353  0.097973  0  1.032503  0
H  H22  1  0.53502842  0.14815995  0.92215372  1  0  0.091477  0  0.965883  0  0  0.099691  0  1.031913  0  0  0.102227  0  1.030858  0  0  0.103327  0.097927  0  1.032559  0
H  H23  1  0.96497314  0.85184041  0.42215311  1  0  0.09151  0  0.96583  0  0  0.099729  0  1.031873  0  0  0.102271  0  1.030804  0  0  0.103354  0.097966  0  1.032521  0
C  C24  1  0.18495007  0.61087032  0.08968993  1  0  0.392571  0  3.725379  0  0  0.382055  0  3.978306  0  0  0.401269  0  3.98222  0  0  0.175118  0.368781  0  3.97557  0
C  C25  1  0.31504771  0.38912791  0.58968929  1  0  0.392571  0  3.725549  0  0  0.382027  0  3.978544  0  0  0.401248  0  3.982456  0  0  0.175209  0.368759  0  3.975794  0
C  C26  1  0.81504512  0.38912617  0.91030927  1  0  0.392511  0  3.725496  0  0  0.382065  0  3.978347  0  0  0.401294  0  3.982248  0  0  0.17518  0.368788  0  3.975612  0
C  C27  1  0.68495102  0.61086860  0.41031160  1  0  0.392659  0  3.725376  0  0  0.382124  0  3.978351  0  0  0.401342  0  3.982263  0  0  0.175211  0.368853  0  3.975616  0
C  C28  1  0.19166767  0.73213282  0.14822192  1  0  0.031802  0  3.725438  0  0  0.017684  0  3.973975  0  0  0.029148  0  3.988857  0  0  0.028884  0.010604  0  3.963468  0
C  C29  1  0.30832597  0.26785955  0.64821917  1  0  0.032011  0  3.72531  0  0  0.017883  0  3.973894  0  0  0.029344  0  3.988778  0  0  0.028905  0.0108  0  3.963381  0
C  C30  1  0.80833106  0.26786369  0.85177897  1  0  0.031895  0  3.725444  0  0  0.01769  0  3.973978  0  0  0.029165  0  3.988844  0  0  0.028851  0.010613  0  3.963469  0
C  C31  1  0.69166960  0.73213806  0.35178115  1  0  0.031784  0  3.725382  0  0  0.017636  0  3.973937  0  0  0.029095  0  3.988823  0  0  0.028837  0.010558  0  3.963433  0
C  C32  1  0.24685301  0.70895526  0.22033330  1  0  -0.148133  0  3.940755  0  0  -0.132338  0  4.183703  0  0  -0.144842  0  4.203385  0  0  -0.020851  -0.124221  0  4.17047  0
C  C33  1  0.25314619  0.29103910  0.72033218  1  0  -0.148304  0  3.940993  0  0  -0.132457  0  4.183895  0  0  -0.144969  0  4.203589  0  0  -0.020865  -0.124337  0  4.170652  0
C  C34  1  0.75314883  0.29104351  0.77966815  1  0  -0.148183  0  3.940863  0  0  -0.132345  0  4.183771  0  0  -0.144854  0  4.203437  0  0  -0.020882  -0.124238  0  4.170555  0
C  C35  1  0.74685254  0.70895741  0.27966927  1  0  -0.148157  0  3.940768  0  0  -0.132362  0  4.183724  0  0  -0.144869  0  4.203404  0  0  -0.020881  -0.12425  0  4.170504  0
C  C36  1  0.13356039  0.84951061  0.12401901  1  0  -0.162781  0  3.936606  0  0  -0.145939  0  4.178698  0  0  -0.158915  0  4.198398  0  0  -0.022103  -0.137499  0  4.165484  0
C  C37  1  0.36644333  0.15048753  0.62401869  1  0  -0.162986  0  3.936769  0  0  -0.146196  0  4.178957  0  0  -0.159164  0  4.19865  0  0  -0.022206  -0.137758  0  4.165744  0
C  C38  1  0.86644770  0.15048934  0.87598019  1  0  -0.163066  0  3.936937  0  0  -0.146134  0  4.178938  0  0  -0.159119  0  4.198636  0  0  -0.022165  -0.137691  0  4.165718  0
C  C39  1  0.63355727  0.84951459  0.37598108  1  0  -0.162974  0  3.936723  0  0  -0.146068  0  4.178731  0  0  -0.159041  0  4.198428  0  0  -0.022158  -0.137634  0  4.165529  0
C  C40  1  0.07265370  0.84666024  0.04966773  1  0  0.292902  0  3.826727  0  0  0.276802  0  4.102487  0  0  0.288852  0  4.120921  0  0  0.185378  0.268657  0  4.090121  0
C  C41  1  0.42735068  0.15334044  0.54966969  1  0  0.292939  0  3.826778  0  0  0.276861  0  4.102542  0  0  0.28891  0  4.120977  0  0  0.185407  0.268717  0  4.090177  0
C  C42  1  0.92734621  0.15333628  0.95032866  1  0  0.292962  0  3.826862  0  0  0.276832  0  4.102597  0  0  0.288882  0  4.121034  0  0  0.185378  0.268686  0  4.090228  0
C  C43  1  0.57265345  0.84666171  0.45033232  1  0  0.292978  0  3.826717  0  0  0.276863  0  4.102445  0  0  0.288913  0  4.120876  0  0  0.185377  0.268719  0  4.090084  0
C  C44  1  0.13549243  0.97463626  0.16848923  1  0  0.326591  0  3.826856  0  0  0.310436  0  4.093766  0  0  0.324513  0  4.111452  0  0  0.19481  0.300919  0  4.081877  0
C  C45  1  0.36450310  0.02536164  0.66848906  1  0  0.326665  0  3.826911  0  0  0.310527  0  4.093813  0  0  0.324602  0  4.111493  0  0  0.194821  0.301011  0  4.081921  0
C  C46  1  0.86450816  0.02536586  0.83150715  1  0  0.326755  0  3.826777  0  0  0.31057  0  4.093665  0  0  0.324648  0  4.111347  0  0  0.194855  0.301053  0  4.081773  0
C  C47  1  0.63549675  0.97463824  0.33150845  1  0  0.326701  0  3.82682  0  0  0.310527  0  4.093702  0  0  0.324602  0  4.111388  0  0  0.194878  0.301014  0  4.081816  0
C  C48  1  0.30425665  0.58488259  0.23316755  1  0  0.299247  0  3.82235  0  0  0.281918  0  4.099127  0  0  0.29434  0  4.117802  0  0  0.187625  0.273529  0  4.086598  0
C  C49  1  0.19574262  0.41510837  0.73316680  1  0  0.299341  0  3.822565  0  0  0.281991  0  4.09935  0  0  0.294418  0  4.118023  0  0  0.18768  0.273598  0  4.086811  0
C  C50  1  0.69573941  0.41510943  0.76683391  1  0  0.299338  0  3.822096  0  0  0.281997  0  4.09887  0  0  0.294421  0  4.117543  0  0  0.187666  0.273608  0  4.086336  0
C  C51  1  0.80425846  0.58488817  0.26683465  1  0  0.299358  0  3.821991  0  0  0.282033  0  4.098769  0  0  0.294458  0  4.117441  0  0  0.187691  0.273644  0  4.08624  0
C  C52  1  0.23894957  0.79774754  0.28367037  1  0  0.289385  0  3.820721  0  0  0.275244  0  4.090651  0  0  0.287639  0  4.109506  0  0  0.181336  0.266906  0  4.077964  0
C  C53  1  0.26105405  0.20224549  0.78366992  1  0  0.289469  0  3.820648  0  0  0.27532  0  4.090571  0  0  0.287718  0  4.109423  0  0  0.181416  0.26698  0  4.077879  0
C  C54  1  0.76105617  0.20225238  0.71632940  1  0  0.289404  0  3.820755  0  0  0.275258  0  4.090672  0  0  0.287654  0  4.10952  0  0  0.181415  0.266921  0  4.077985  0
C  C55  1  0.73894474  0.79774767  0.21633210  1  0  0.289403  0  3.820842  0  0  0.275267  0  4.090756  0  0  0.287663  0  4.109606  0  0  0.181375  0.26693  0  4.07807  0
C  C56  1  0.31201080  0.64097322  0.03054295  1  0  -0.067823  0  3.804201  0  0  -0.050449  0  4.036825  0  0  -0.060412  0  4.065389  0  0  -0.022657  -0.04382  0  4.017473  0
C  C57  1  0.18798722  0.35902972  0.53054396  1  0  -0.067859  0  3.804265  0  0  -0.050495  0  4.036907  0  0  -0.06046  0  4.065475  0  0  -0.022695  -0.043866  0  4.017551  0
C  C58  1  0.68798321  0.35902325  0.96945512  1  0  -0.067867  0  3.804298  0  0  -0.050535  0  4.036931  0  0  -0.060512  0  4.06551  0  0  -0.022691  -0.043904  0  4.017574  0
C  C59  1  0.81201530  0.64097465  0.46945749  1  0  -0.067837  0  3.804243  0  0  -0.050485  0  4.036922  0  0  -0.06045  0  4.065489  0  0  -0.022698  -0.043857  0  4.017571  0
C  C60  1  0.29665427  0.53450406  0.97262200  1  0  -0.048321  0  3.692585  0  0  -0.072258  0  3.939354  0  0  -0.070202  0  3.959091  0  0  -0.070367  -0.073377  0  3.925846  0
C  C61  1  0.20334625  0.46549937  0.47262283  1  0  -0.04826  0  3.692536  0  0  -0.07215  0  3.939286  0  0  -0.070092  0  3.959015  0  0  -0.070332  -0.07327  0  3.925783  0
C  C62  1  0.70334092  0.46549242  0.02737663  1  0  -0.048259  0  3.692429  0  0  -0.072162  0  3.939174  0  0  -0.070112  0  3.958928  0  0  -0.070344  -0.07328  0  3.925666  0
C  C63  1  0.79665782  0.53450614  0.52737975  1  0  -0.048462  0  3.692576  0  0  -0.072433  0  3.939336  0  0  -0.070385  0  3.959089  0  0  -0.070412  -0.073554  0  3.925826  0
C  C64  1  0.41605117  0.56040316  0.91645106  1  0  -0.088045  0  3.765111  0  0  -0.09805  0  4.014055  0  0  -0.103436  0  4.038391  0  0  -0.08537  -0.094486  0  3.997415  0
C  C65  1  0.08394848  0.43960161  0.41645297  1  0  -0.088299  0  3.765263  0  0  -0.098333  0  4.014239  0  0  -0.103721  0  4.038576  0  0  -0.085461  -0.094766  0  3.997604  0
C  C66  1  0.58394403  0.43959333  0.08354814  1  0  -0.088173  0  3.765265  0  0  -0.098177  0  4.014219  0  0  -0.103564  0  4.038551  0  0  -0.085415  -0.094614  0  3.997585  0
C  C67  1  0.91605355  0.56040835  0.58355130  1  0  -0.088005  0  3.765172  0  0  -0.098004  0  4.01412  0  0  -0.103389  0  4.03845  0  0  -0.085387  -0.09444  0  3.997481  0
C  C68  1  0.55299301  0.69050242  0.91829639  1  0  -0.036885  0  3.715454  0  0  -0.053526  0  3.96082  0  0  -0.053191  0  3.982187  0  0  -0.065407  -0.05331  0  3.945881  0
C  C69  1  0.94701040  0.30950356  0.41829530  1  0  -0.036728  0  3.715396  0  0  -0.053384  0  3.960755  0  0  -0.053042  0  3.982114  0  0  -0.065384  -0.053171  0  3.945823  0
C  C70  1  0.44700523  0.30949968  0.08170450  1  0  -0.036819  0  3.71545  0  0  -0.053481  0  3.960838  0  0  -0.053139  0  3.982199  0  0  -0.065418  -0.053267  0  3.945904  0
C  C71  1  0.05299286  0.69050306  0.58170559  1  0  -0.03688  0  3.715551  0  0  -0.053527  0  3.960929  0  0  -0.053189  0  3.982285  0  0  -0.065439  -0.05331  0  3.945988  0
C  C72  1  0.57048769  0.79494367  0.97644906  1  0  -0.073235  0  3.74684  0  0  -0.082233  0  3.991781  0  0  -0.086966  0  4.015014  0  0  -0.083275  -0.07911  0  3.975854  0
C  C73  1  0.92951388  0.20505983  0.47644978  1  0  -0.07328  0  3.746983  0  0  -0.082236  0  3.991872  0  0  -0.086971  0  4.015103  0  0  -0.083226  -0.079112  0  3.975948  0
C  C74  1  0.42950900  0.20505730  0.02355014  1  0  -0.073155  0  3.746673  0  0  -0.082164  0  3.991625  0  0  -0.086902  0  4.014849  0  0  -0.083213  -0.079039  0  3.975699  0
C  C75  1  0.07048790  0.79494230  0.52355111  1  0  -0.073214  0  3.746977  0  0  -0.082225  0  3.991914  0  0  -0.08696  0  4.015139  0  0  -0.083229  -0.0791  0  3.975986  0
C  C76  1  0.44972465  0.77114264  0.03216452  1  0  -0.068248  0  3.729323  0  0  -0.091956  0  3.97645  0  0  -0.092085  0  3.999483  0  0  -0.073976  -0.091505  0  3.960572  0
C  C77  1  0.05027734  0.22885809  0.53216391  1  0  -0.068154  0  3.729396  0  0  -0.091853  0  3.976506  0  0  -0.091984  0  3.999538  0  0  -0.073937  -0.091401  0  3.960626  0
C  C78  1  0.55027246  0.22885609  0.96783412  1  0  -0.068106  0  3.729347  0  0  -0.091776  0  3.976456  0  0  -0.091901  0  3.999484  0  0  -0.073891  -0.091326  0  3.960576  0
C  C79  1  0.94972487  0.77114181  0.46783642  1  0  -0.068159  0  3.729492  0  0  -0.091841  0  3.976594  0  0  -0.091968  0  3.999624  0  0  -0.073949  -0.09139  0  3.960716  0
N  N80  1  0.35077465  0.48129064  0.24332447  1  0  -0.469138  0  2.625383  0  0  -0.448684  0  2.870861  0  0  -0.459534  0  2.881266  0  0  -0.382899  -0.441383  0  2.863949  0
N  N81  1  0.14922774  0.51870254  0.74332413  1  0  -0.469197  0  2.625409  0  0  -0.448738  0  2.870905  0  0  -0.459587  0  2.881308  0  0  -0.382936  -0.441436  0  2.863989  0
N  N82  1  0.64922017  0.51870472  0.75667642  1  0  -0.469216  0  2.62506  0  0  -0.448759  0  2.870548  0  0  -0.459606  0  2.880953  0  0  -0.38292  -0.441456  0  2.863631  0
N  N83  1  0.85077806  0.48129403  0.25667619  1  0  -0.469229  0  2.625046  0  0  -0.448775  0  2.87054  0  0  -0.459626  0  2.880943  0  0  -0.382934  -0.441474  0  2.863629  0
N  N84  1  0.13963302  0.08159969  0.20363629  1  0  -0.521023  0  2.648139  0  0  -0.493661  0  2.88599  0  0  -0.506022  0  2.895403  0  0  -0.435883  -0.485299  0  2.879752  0
N  N85  1  0.36036486  0.91840143  0.70363504  1  0  -0.521022  0  2.648146  0  0  -0.493657  0  2.885975  0  0  -0.506015  0  2.895385  0  0  -0.435868  -0.485296  0  2.879735  0
N  N86  1  0.86036801  0.91840019  0.79636403  1  0  -0.521058  0  2.648018  0  0  -0.493696  0  2.885881  0  0  -0.506054  0  2.895293  0  0  -0.43589  -0.485332  0  2.879642  0
N  N87  1  0.63963487  0.08160515  0.29636472  1  0  -0.521004  0  2.648062  0  0  -0.493636  0  2.885903  0  0  -0.505996  0  2.895318  0  0  -0.435881  -0.485274  0  2.879666  0
N  N88  1  0.23045215  0.87033718  0.33636981  1  0  -0.445236  0  2.599712  0  0  -0.422249  0  2.830501  0  0  -0.433734  0  2.84302  0  0  -0.354308  -0.414514  0  2.822105  0
N  N89  1  0.26955105  0.12966122  0.83637058  1  0  -0.445276  0  2.599683  0  0  -0.422287  0  2.830472  0  0  -0.433771  0  2.842989  0  0  -0.354376  -0.414553  0  2.822075  0
N  N90  1  0.76954962  0.12966494  0.66362996  1  0  -0.445224  0  2.599758  0  0  -0.422241  0  2.830555  0  0  -0.433723  0  2.843073  0  0  -0.354346  -0.414506  0  2.822155  0
N  N91  1  0.73044886  0.87033530  0.16363200  1  0  -0.445235  0  2.599864  0  0  -0.422255  0  2.83066  0  0  -0.433739  0  2.843174  0  0  -0.354317  -0.414519  0  2.822262  0
N  N92  1  0.02334231  0.84120777  0.98775668  1  0  -0.446886  0  2.610586  0  0  -0.426502  0  2.852095  0  0  -0.437319  0  2.863092  0  0  -0.382436  -0.419181  0  2.844767  0
N  N93  1  0.47666220  0.15879340  0.48775578  1  0  -0.446878  0  2.610524  0  0  -0.426515  0  2.852061  0  0  -0.437333  0  2.863061  0  0  -0.382435  -0.419196  0  2.844734  0
N  N94  1  0.97665475  0.15879432  0.01224309  1  0  -0.446861  0  2.61051  0  0  -0.42647  0  2.852018  0  0  -0.437288  0  2.863019  0  0  -0.38241  -0.41915  0  2.844689  0
N  N95  1  0.52334279  0.84120429  0.51224454  1  0  -0.446901  0  2.61056  0  0  -0.426513  0  2.852067  0  0  -0.437329  0  2.863064  0  0  -0.382423  -0.419192  0  2.84474  0
O  O96  1  0.07104516  0.49204904  0.09505472  1  0  -0.467301  0  1.969551  0  0  -0.427099  0  2.186978  0  0  -0.44436  0  2.185275  0  0  -0.300338  -0.414896  0  2.187966  0
O  O97  1  0.42895269  0.50794581  0.59505683  1  0  -0.46735  0  1.969815  0  0  -0.427135  0  2.187248  0  0  -0.444396  0  2.185544  0  0  -0.300414  -0.414933  0  2.188236  0
O  O98  1  0.92895797  0.50794304  0.90494279  1  0  -0.467328  0  1.969737  0  0  -0.427133  0  2.187109  0  0  -0.444405  0  2.185403  0  0  -0.300415  -0.41493  0  2.188099  0
O  O99  1  0.57104598  0.49205405  0.40494237  1  0  -0.467385  0  1.969794  0  0  -0.427166  0  2.187211  0  0  -0.444428  0  2.185508  0  0  -0.300421  -0.414963  0  2.188204  0
