# generated using pymatgen
data_ZnH9C10I3NO4
_symmetry_space_group_name_H-M   'P 1'
_cell_length_a   9.48888185
_cell_length_b   10.91166002
_cell_length_c   11.22569234
_cell_angle_alpha   83.82496498
_cell_angle_beta   100.30114776
_cell_angle_gamma   98.97088383
_symmetry_Int_Tables_number   1
_chemical_formula_structural   ZnH9C10I3NO4
_chemical_formula_sum   'Zn2 H18 C20 I6 N2 O8'
_cell_volume   1125.77582144
_cell_formula_units_Z   2
loop_
 _symmetry_equiv_pos_site_id
 _symmetry_equiv_pos_as_xyz
  1  'x, y, z'
loop_
 _atom_site_type_symbol
 _atom_site_label
 _atom_site_symmetry_multiplicity
 _atom_site_fract_x
 _atom_site_fract_y
 _atom_site_fract_z
 _atom_site_occupancy
 _atom_site_pbe_bader_charge
 _atom_site_pbe_bader_spin_density
 _atom_site_pbe_cm5_charge
 _atom_site_pbe_ddec_charge
 _atom_site_pbe_ddec_spin_density
 _atom_site_pbe_ddec_sum_bond_order
 _atom_site_pbe_magmom
Zn  Zn0  1  0.34282331  0.47991283  0.47040552  1  1.292061  0  0.675186  0.875835  0  2.41243  0
Zn  Zn1  1  0.64864492  0.52160999  0.52644261  1  1.293334  0  0.673377  0.870302  0  2.372014  0
H  H2  1  0.70311748  0.50154220  0.91963864  1  0.095987  0  0.107081  0.121492  0  0.984414  0
H  H3  1  0.28131963  0.90185856  0.41277901  1  0.068146  0  0.103957  0.105484  0  0.983328  0
H  H4  1  0.25779936  0.08806033  0.47288111  1  0.087367  0  0.100696  0.107433  0  0.98375  0
H  H5  1  0.69890090  0.89276244  0.62564573  1  0.111837  0  0.101109  0.11082  0  0.988817  0
H  H6  1  0.71318151  0.09934393  0.57008816  1  0.072554  0  0.101352  0.101362  0  0.97844  0
H  H7  1  0.55344596  0.06284333  0.16189361  1  0.014973  0  0.074691  0.102165  0  1.033048  0
H  H8  1  0.69447347  0.96935022  0.20409214  1  -0.011024  0  0.081595  0.112554  0  0.993904  0
H  H9  1  0.54283825  0.92182902  0.09379444  1  0.052361  0  0.072638  0.103233  0  1.052925  0
H  H10  1  0.52119004  0.79659833  0.28853424  1  0.052864  0  0.085869  0.092502  0  1.006233  0
H  H11  1  0.38144594  0.88992474  0.25262404  1  -0.016498  0  0.082328  0.076811  0  0.993231  0
H  H12  1  0.37114240  0.43452578  0.88338638  1  0.065499  0  0.101754  0.125928  0  1.000242  0
H  H13  1  0.12890489  0.34200845  0.61545993  1  0.161015  0  0.129128  0.102343  0  0.988811  0
H  H14  1  0.06106007  0.51740621  0.40332006  1  0.42992  0  0.306536  0.274378  0  0.944595  0
H  H15  1  0.85485619  0.33728360  0.61119502  1  0.146616  0  0.118998  0.089255  0  1.029391  0
H  H16  1  0.66694972  0.94969415  0.42403020  1  0.002621  0  0.101054  0.077482  0  0.961652  0
H  H17  1  0.93161040  0.59148865  0.50434304  1  0.414767  0  0.285517  0.255851  0  0.990292  0
H  H18  1  0.60496700  0.15150517  0.36728417  1  0.0647  0  0.088375  0.09453  0  1.024424  0
H  H19  1  0.41877415  0.09739793  0.32750565  1  0.037636  0  0.100312  0.111456  0  0.961466  0
C  C20  1  0.49947996  0.51927166  0.26661211  1  1.629407  0  0.20213  0.610839  0  4.228372  0
C  C21  1  0.91952368  0.41691883  0.56896774  1  0.707595  0  0.113014  0.183031  0  3.823948  0
C  C22  1  0.49786585  0.73768855  0.50424194  1  1.608223  0  0.212464  0.584577  0  4.149328  0
C  C23  1  0.49060892  0.47354957  0.73049317  1  1.590381  0  0.202661  0.626456  0  4.195021  0
C  C24  1  0.48885341  0.25784986  0.50913375  1  1.606504  0  0.211217  0.589114  0  4.129595  0
C  C25  1  0.54895377  0.94998077  0.40178251  1  0.022199  0  -0.078389  0.002313  0  3.759797  0
C  C26  1  0.51572831  0.08440928  0.39537901  1  -0.038591  0  -0.155385  -0.214434  0  3.827807  0
C  C27  1  0.33422508  0.90835236  0.50736493  1  -0.114874  0  -0.094779  -0.025633  0  3.618954  0
C  C28  1  0.59553200  0.92522834  0.62546856  1  -0.172737  0  -0.111075  -0.067131  0  3.687445  0
C  C29  1  0.48835658  0.87493398  0.51565574  1  0.036625  0  -0.019934  -0.035103  0  3.736902  0
C  C30  1  0.49949643  0.89345955  0.27949541  1  0.004148  0  -0.171071  -0.140299  0  3.946174  0
C  C31  1  0.48899288  0.11614043  0.52135161  1  0.01775  0  -0.023248  -0.003292  0  3.780305  0
C  C32  1  0.57639894  0.96627499  0.17956051  1  -0.041099  0  -0.250664  -0.348144  0  3.956766  0
C  C33  1  0.33986307  0.04417093  0.53682283  1  -0.12857  0  -0.101758  -0.048217  0  3.661314  0
C  C34  1  0.61595772  0.06888719  0.61147565  1  -0.126734  0  -0.101389  -0.040207  0  3.661244  0
C  C35  1  0.59667722  0.48111196  0.94746424  1  -0.054307  0  -0.092497  -0.068596  0  4.033547  0
C  C36  1  0.47979260  0.45877226  0.86139014  1  0.040262  0  -0.098067  -0.215219  0  3.906819  0
C  C37  1  0.59146577  0.47854449  0.07632213  1  -0.167315  0  -0.046298  0.050363  0  3.91533  0
C  C38  1  0.50531781  0.53110817  0.13273327  1  -0.18526  0  -0.056748  -0.123999  0  3.800961  0
C  C39  1  0.06635508  0.40397959  0.55070710  1  0.664929  0  0.116178  0.184536  0  3.830579  0
I  I40  1  0.68988403  0.16002744  0.78006577  1  0.038761  0  0.027259  -0.068492  0  1.53709  0
I  I41  1  0.16980074  0.77871986  0.59044215  1  0.025046  0  0.018687  -0.087963  0  1.58997  0
I  I42  1  0.27378089  0.08028910  0.70702353  1  0.007175  0  0.003648  -0.093591  0  1.54356  0
I  I43  1  0.74807030  0.37019305  0.17974537  1  0.095336  0  0.08157  -0.002799  0  1.384323  0
I  I44  1  0.35570123  0.64681164  0.03587574  1  0.160874  0  0.132112  0.073736  0  1.58059  0
I  I45  1  0.54090533  0.82755849  0.79579222  1  0.032737  0  0.008773  -0.093611  0  1.743072  0
N  N46  1  0.12523797  0.46277176  0.46297212  1  -1.189452  0  -0.449108  -0.403937  0  3.282021  0
N  N47  1  0.86404609  0.51788777  0.53872613  1  -1.176866  0  -0.444608  -0.382749  0  3.252676  0
O  O48  1  0.37601558  0.48025920  0.29520880  1  -1.150332  0  -0.318073  -0.531374  0  2.316749  0
O  O49  1  0.61651211  0.55090044  0.33738705  1  -1.159836  0  -0.312551  -0.541253  0  2.335308  0
O  O50  1  0.38323711  0.67115692  0.45851624  1  -1.18221  0  -0.316336  -0.544967  0  2.40791  0
O  O51  1  0.62240862  0.70404812  0.53463946  1  -1.16589  0  -0.312974  -0.528528  0  2.318056  0
O  O52  1  0.37086381  0.47479761  0.65775183  1  -1.165159  0  -0.318456  -0.564294  0  2.340688  0
O  O53  1  0.61547018  0.48569356  0.70023924  1  -1.160159  0  -0.319661  -0.548179  0  2.345989  0
O  O54  1  0.36628227  0.29498040  0.49212822  1  -1.163944  0  -0.312627  -0.530145  0  2.376998  0
O  O55  1  0.61015667  0.32600357  0.50966141  1  -1.181354  0  -0.315566  -0.564023  0  2.374011  0
