# generated using pymatgen
data_Cu3H17C30N3O13
_symmetry_space_group_name_H-M   'P 1'
_cell_length_a   10.14448267
_cell_length_b   10.86271952
_cell_length_c   13.72640000
_cell_angle_alpha   91.29995177
_cell_angle_beta   90.46599692
_cell_angle_gamma   112.30707723
_symmetry_Int_Tables_number   1
_chemical_formula_structural   Cu3H17C30N3O13
_chemical_formula_sum   'Cu6 H34 C60 N6 O26'
_cell_volume   1398.81517452
_cell_formula_units_Z   2
loop_
 _symmetry_equiv_pos_site_id
 _symmetry_equiv_pos_as_xyz
  1  'x, y, z'
loop_
 _atom_site_type_symbol
 _atom_site_label
 _atom_site_symmetry_multiplicity
 _atom_site_fract_x
 _atom_site_fract_y
 _atom_site_fract_z
 _atom_site_occupancy
 _atom_site_pbe_cm5_charge
 _atom_site_pbe_ddec_charge
 _atom_site_pbe_ddec_spin_density
 _atom_site_pbe_ddec_sum_bond_order
 _atom_site_pbe_magmom
Cu  Cu0  1  0.85003568  0.44326315  0.50664846  1  0.730332  0.827129  -0.741725  2.230535  -0.571
Cu  Cu1  1  0.14999221  0.55678825  0.49338417  1  0.730953  0.827448  -0.741484  2.23164  -0.57
Cu  Cu2  1  0.87148393  0.11950168  0.18843632  1  0.721733  0.825297  -0.722784  2.214022  -0.554
Cu  Cu3  1  0.12745009  0.88026701  0.81131001  1  0.721125  0.825676  0.737503  2.213186  0.569
Cu  Cu4  1  0.18418621  0.23883116  0.15338059  1  0.718677  0.857559  0.732804  2.148538  0.569
Cu  Cu5  1  0.81581951  0.76117545  0.84681357  1  0.721369  0.861577  0.750912  2.152096  0.583
H  H6  1  0.39499767  0.25443058  0.26577404  1  0.281096  0.371731  0.000109  0.981866  0.0
H  H7  1  0.60605264  0.74584181  0.73378133  1  0.281831  0.372919  0.000131  0.980419  0.0
H  H8  1  0.44119102  0.20009091  0.16915365  1  0.315367  0.399087  2.1e-05  0.882392  0.0
H  H9  1  0.55993108  0.79934233  0.83098520  1  0.315596  0.398606  9e-06  0.883804  0.0
H  H10  1  0.62567726  0.53062032  0.56704064  1  0.124507  0.101952  -0.001024  0.991066  -0.002
H  H11  1  0.37423957  0.46948284  0.43308697  1  0.124569  0.102283  -0.001028  0.990709  -0.002
H  H12  1  0.45251710  0.48557102  0.70207688  1  0.113267  0.144626  -0.000407  1.04281  -0.001
H  H13  1  0.54747554  0.51457793  0.29805201  1  0.113094  0.14405  -0.00041  1.043292  -0.001
H  H14  1  0.63392798  0.21310619  0.81387619  1  0.112534  0.123809  -0.000356  1.006982  0.0
H  H15  1  0.36594105  0.78676304  0.18607791  1  0.112454  0.123754  -0.000335  1.007091  0.0
H  H16  1  0.79018882  0.26154693  0.66913030  1  0.116921  0.089998  -0.000798  1.02316  -0.001
H  H17  1  0.20957198  0.73839796  0.33080192  1  0.117194  0.090341  -0.000777  1.022855  -0.001
H  H18  1  0.41492051  0.51254227  0.86060823  1  0.113357  0.136893  0.000538  1.009308  0.001
H  H19  1  0.58480120  0.48739864  0.13958523  1  0.113362  0.137083  0.000569  1.00938  0.001
H  H20  1  0.26420112  0.45898999  0.00933750  1  0.120149  0.097211  0.001085  1.009282  0.002
H  H21  1  0.73555447  0.54077971  0.99081083  1  0.119967  0.096933  0.001119  1.008975  0.002
H  H22  1  0.27880776  0.08406329  0.02248438  1  0.120997  0.100788  0.001229  1.048981  0.002
H  H23  1  0.72110284  0.91585970  0.97757001  1  0.120962  0.100747  0.001232  1.048597  0.002
H  H24  1  0.42863012  0.11908858  0.87815322  1  0.113513  0.118151  0.0006  1.006842  0.001
H  H25  1  0.57114092  0.88076274  0.12190342  1  0.113405  0.117769  0.000429  1.007132  0.001
H  H26  1  0.87346112  0.74628079  0.28409321  1  0.107138  0.11531  2.9e-05  1.007196  0.0
H  H27  1  0.12659030  0.25403937  0.71609811  1  0.106967  0.115315  0.000254  1.007257  0.0
H  H28  1  0.14316269  0.59398558  0.04328388  1  0.108038  0.114768  -6.2e-05  1.007131  0.0
H  H29  1  0.85673087  0.40607976  0.95689245  1  0.108085  0.114631  0.00019  1.007597  0.0
H  H30  1  0.69047203  0.24154072  0.28147749  1  0.121412  0.102884  -0.000679  1.022905  -0.001
H  H31  1  0.30918277  0.75818716  0.71851795  1  0.121331  0.102971  0.000812  1.022728  0.002
H  H32  1  0.52177776  0.19608728  0.41556511  1  0.113277  0.128455  -0.000336  1.03166  0.0
H  H33  1  0.47827471  0.80343554  0.58455799  1  0.113272  0.128527  0.000318  1.031751  0.0
H  H34  1  0.61092107  0.84375355  0.47206236  1  0.110192  0.12107  -0.000287  1.024888  0.0
H  H35  1  0.38960405  0.15588673  0.52768613  1  0.11002  0.121128  0.000309  1.024761  0.0
H  H36  1  0.77380894  0.90342874  0.33256150  1  0.117968  0.094798  -0.000588  1.014541  -0.001
H  H37  1  0.22647263  0.09657986  0.66703551  1  0.117535  0.094159  0.000603  1.01403  0.001
H  H38  1  0.15224986  0.93100322  0.38907617  1  0.108591  0.116375  -0.000198  0.999111  0.0
H  H39  1  0.84774384  0.06902230  0.61067750  1  0.108929  0.116859  -0.000195  0.99906  0.0
C  C40  1  0.62100337  0.45884565  0.62238774  1  0.05346  0.107864  -0.001564  3.908523  -0.001
C  C41  1  0.37892739  0.54125054  0.37772526  1  0.05297  0.106239  -0.001575  3.909397  -0.001
C  C42  1  0.52739349  0.43544801  0.69932492  1  -0.072937  -0.151683  -0.004333  3.865506  -0.005
C  C43  1  0.47257315  0.56466611  0.30080682  1  -0.072418  -0.150582  -0.004483  3.866021  -0.005
C  C44  1  0.52935819  0.34576749  0.77075673  1  0.018201  0.111066  0.001838  3.95722  0.002
C  C45  1  0.47052375  0.65422319  0.22930964  1  0.018325  0.111244  0.001951  3.957742  0.002
C  C46  1  0.62464901  0.28093696  0.75946210  1  -0.076875  -0.163646  -0.003405  3.931069  -0.004
C  C47  1  0.37521642  0.71903978  0.24057405  1  -0.076615  -0.163289  -0.00345  3.930813  -0.004
C  C48  1  0.71374449  0.30847859  0.68013017  1  0.045509  0.100585  -0.000212  3.941796  0.0
C  C49  1  0.28606573  0.69149815  0.31987796  1  0.04521  0.100016  -0.000177  3.940854  0.0
C  C50  1  0.43601810  0.32018985  0.85589818  1  0.016978  0.104009  -0.00286  3.951847  -0.003
C  C51  1  0.56378262  0.67972716  0.14413797  1  0.016493  0.103397  -0.003107  3.953331  -0.003
C  C52  1  0.38577541  0.41543384  0.89344526  1  -0.072039  -0.154857  0.005024  3.893627  0.006
C  C53  1  0.61401575  0.58447422  0.10667444  1  -0.071367  -0.153784  0.005352  3.893595  0.006
C  C54  1  0.30238373  0.38703415  0.97617205  1  0.050317  0.095032  0.001044  3.925391  0.001
C  C55  1  0.69740642  0.61279627  0.02395718  1  0.05014  0.094788  0.000822  3.92508  0.0
C  C56  1  0.31167388  0.17749359  0.98475390  1  0.049018  0.101333  0.000591  3.910195  0.0
C  C57  1  0.68813221  0.82239057  0.01529917  1  0.048422  0.100167  0.000529  3.911101  0.0
C  C58  1  0.39624949  0.19893621  0.90338459  1  -0.0708  -0.144006  0.005219  3.920696  0.006
C  C59  1  0.60352245  0.80094398  0.09663542  1  -0.070455  -0.143405  0.005244  3.922101  0.006
C  C60  1  0.92951505  0.58330857  0.23547320  1  -0.005691  -0.027862  -0.000727  3.9372  -0.001
C  C61  1  0.07001577  0.41668410  0.76452625  1  -0.005251  -0.026959  -0.003776  3.936916  -0.004
C  C62  1  0.93229236  0.71251671  0.23086463  1  -0.081889  -0.12754  -0.001331  3.961234  -0.001
C  C63  1  0.06742575  0.28758744  0.76919114  1  -0.081679  -0.127464  -0.000929  3.962651  -0.001
C  C64  1  0.01168536  0.80043432  0.16087472  1  -0.007787  -0.040297  -0.000265  3.92432  0.0
C  C65  1  0.98815057  0.19968079  0.83922784  1  -0.008486  -0.042133  0.008939  3.924753  0.01
C  C66  1  0.08596019  0.75606788  0.09132295  1  -0.002392  -0.015708  0.001898  3.908331  0.002
C  C67  1  0.91384370  0.24396361  0.90881143  1  -0.002002  -0.014555  -0.006048  3.907017  -0.006
C  C68  1  0.08390204  0.62718823  0.09653841  1  -0.079348  -0.126636  0.001149  3.96046  0.001
C  C69  1  0.91592112  0.37283729  0.90362512  1  -0.079521  -0.126253  0.000626  3.961183  0.001
C  C70  1  0.00819258  0.54079762  0.16837251  1  -0.006711  -0.040347  -0.000794  3.942249  -0.001
C  C71  1  0.99136611  0.45916419  0.83167901  1  -0.006831  -0.041063  0.00927  3.943064  0.011
C  C72  1  0.85477260  0.50278404  0.32008454  1  0.202507  0.583354  -0.001359  4.212918  0.002
C  C73  1  0.14507478  0.49731315  0.68002651  1  0.202859  0.583152  -0.000944  4.213597  0.002
C  C74  1  0.01779516  0.94074353  0.16466533  1  0.221512  0.609011  -0.001502  4.119347  -0.001
C  C75  1  0.98209526  0.05943529  0.83532797  1  0.221911  0.610016  0.003246  4.119611  0.0
C  C76  1  0.15940596  0.83410681  0.00464191  1  0.196896  0.578368  0.002315  4.230892  -0.001
C  C77  1  0.84067297  0.16609191  0.99562972  1  0.196823  0.576927  -0.002133  4.230445  0.001
C  C78  1  0.01401805  0.40513609  0.17200483  1  0.225092  0.607954  -0.001001  4.115384  -0.001
C  C79  1  0.98562157  0.59479685  0.82788201  1  0.225278  0.608991  0.003124  4.116271  -0.001
C  C80  1  0.66843836  0.15343996  0.32476712  1  0.047371  0.098899  -0.001475  3.915303  -0.001
C  C81  1  0.33154099  0.84634665  0.67523497  1  0.047493  0.099905  0.001401  3.915503  0.001
C  C82  1  0.57428293  0.12710579  0.40154267  1  -0.075753  -0.157917  -0.003684  3.906995  -0.004
C  C83  1  0.42578298  0.87243794  0.59850512  1  -0.075934  -0.158517  0.003394  3.906767  0.004
C  C84  1  0.54882304  0.01441386  0.45807592  1  0.017498  0.111368  0.001392  3.924229  0.002
C  C85  1  0.45138602  0.98509403  0.54192765  1  0.017168  0.110987  -0.001498  3.923981  -0.002
C  C86  1  0.62157919  0.93174880  0.43136666  1  -0.076741  -0.158733  -0.002967  3.918642  -0.004
C  C87  1  0.37872679  0.06790045  0.56846008  1  -0.076932  -0.159525  0.003109  3.91897  0.004
C  C88  1  0.71469771  0.96465979  0.35392854  1  0.045253  0.095813  -0.000681  3.937852  0.0
C  C89  1  0.28556354  0.03521641  0.64587214  1  0.045375  0.097065  0.000523  3.938068  0.0
C  C90  1  0.99794634  0.73267124  0.50278688  1  0.222487  0.60009  -0.003413  4.118946  0.001
C  C91  1  0.00222388  0.26745382  0.49713282  1  0.222043  0.599499  -0.003388  4.120404  0.001
C  C92  1  0.99764885  0.87035848  0.50256590  1  -0.007982  -0.043052  -0.010513  3.944468  -0.012
C  C93  1  0.00255449  0.12980441  0.49732555  1  -0.007993  -0.042953  -0.010579  3.943455  -0.012
C  C94  1  0.08506911  0.96165756  0.43746261  1  -0.078478  -0.121404  -0.000361  3.961111  0.0
C  C95  1  0.91509793  0.03850333  0.56240673  1  -0.078879  -0.12181  -0.000271  3.961142  0.0
C  C96  1  0.91187204  0.90913555  0.56595608  1  -0.002381  -0.028732  0.004892  3.931374  0.006
C  C97  1  0.08840795  0.09109701  0.43392178  1  -0.002564  -0.02874  0.004772  3.927979  0.005
C  C98  1  0.81822352  0.82023446  0.64104896  1  0.221454  0.611225  0.002532  4.167434  0.001
C  C99  1  0.18208449  0.18009366  0.35874408  1  0.221273  0.610736  0.002357  4.166836  0.001
N  N100  1  0.71297917  0.39672568  0.61300581  1  -0.356593  -0.245099  -0.048285  3.638671  -0.06
N  N101  1  0.28684003  0.60326102  0.38700401  1  -0.356608  -0.243959  -0.048503  3.639514  -0.06
N  N102  1  0.26633928  0.27021615  0.02127913  1  -0.345804  -0.218598  0.062896  3.601875  0.08
N  N103  1  0.73339082  0.72958540  0.97884048  1  -0.345572  -0.218847  0.06582  3.60196  0.083
N  N104  1  0.73914563  0.07418163  0.30120170  1  -0.34834  -0.248541  -0.042261  3.608171  -0.053
N  N105  1  0.26100580  0.92578815  0.69873405  1  -0.348113  -0.250794  0.043659  3.60585  0.055
O  O106  1  0.93984932  0.47532205  0.37945930  1  -0.338406  -0.581866  -0.067193  2.435107  -0.093
O  O107  1  0.06026742  0.52496726  0.62053953  1  -0.338675  -0.582129  -0.066862  2.436748  -0.092
O  O108  1  0.72585450  0.47529418  0.33457552  1  -0.306904  -0.535893  -0.004565  2.152883  -0.007
O  O109  1  0.27403925  0.52471342  0.66578117  1  -0.306961  -0.536031  -0.00486  2.152992  -0.007
O  O110  1  0.42073403  0.27480808  0.19544789  1  -0.579692  -0.770856  0.013079  2.047868  0.018
O  O111  1  0.58090446  0.72513382  0.80422820  1  -0.57919  -0.769525  0.014554  2.052897  0.02
O  O112  1  0.90352014  0.95269768  0.19375261  1  -0.314783  -0.541143  -0.056369  2.422752  -0.077
O  O113  1  0.09617717  0.04728504  0.80603785  1  -0.315112  -0.540948  0.058852  2.424257  0.082
O  O114  1  0.13432291  0.03260639  0.14275978  1  -0.304016  -0.538705  0.035759  2.337936  0.049
O  O115  1  0.86559444  0.96739623  0.85711614  1  -0.304514  -0.540025  0.039195  2.336724  0.055
O  O116  1  0.07117927  0.86116068  0.94763190  1  -0.335775  -0.581869  0.067495  2.409076  0.094
O  O117  1  0.92923028  0.13926202  0.05252698  1  -0.33478  -0.579332  -0.067945  2.408494  -0.092
O  O118  1  0.28730513  0.85800516  0.98951864  1  -0.330695  -0.543701  0.003752  2.049672  0.005
O  O119  1  0.71288787  0.14228017  0.01111804  1  -0.330004  -0.542838  -0.004243  2.050015  -0.006
O  O120  1  0.13378905  0.39979460  0.15091011  1  -0.306328  -0.533795  0.053218  2.371424  0.075
O  O121  1  0.86596976  0.60057932  0.84882727  1  -0.306516  -0.533752  0.056162  2.373158  0.079
O  O122  1  0.89871288  0.31020367  0.19383486  1  -0.303783  -0.512476  -0.052004  2.374776  -0.071
O  O123  1  0.10075684  0.68971633  0.80585257  1  -0.304148  -0.51322  0.053094  2.376881  0.074
O  O124  1  0.87929524  0.63793791  0.51689217  1  -0.299943  -0.511597  -0.053635  2.346379  -0.074
O  O125  1  0.12089249  0.36218417  0.48308296  1  -0.299697  -0.511199  -0.053689  2.347009  -0.074
O  O126  1  0.11868605  0.72558674  0.48643590  1  -0.309192  -0.529873  -0.061242  2.397378  -0.085
O  O127  1  0.88150695  0.27454827  0.51352201  1  -0.309105  -0.529799  -0.061021  2.397296  -0.085
O  O128  1  0.88460565  0.79226082  0.71207801  1  -0.327363  -0.580398  0.054516  2.437997  0.075
O  O129  1  0.11549691  0.20801057  0.28777980  1  -0.328661  -0.580973  0.050658  2.439932  0.069
O  O130  1  0.68583639  0.78821638  0.63206677  1  -0.298373  -0.529378  0.002813  2.191849  0.004
O  O131  1  0.31449855  0.21229193  0.36778650  1  -0.298047  -0.529154  0.002074  2.190623  0.003
