# generated using pymatgen
data_ZnH17C23INO6
_symmetry_space_group_name_H-M   'P 1'
_cell_length_a   10.84933008
_cell_length_b   18.21532515
_cell_length_c   19.63359231
_cell_angle_alpha   90.09107652
_cell_angle_beta   90.08025378
_cell_angle_gamma   90.19703094
_symmetry_Int_Tables_number   1
_chemical_formula_structural   ZnH17C23INO6
_chemical_formula_sum   'Zn2 H34 C46 I2 N2 O12'
_cell_volume   3880.03884079
_cell_formula_units_Z   2
loop_
 _symmetry_equiv_pos_site_id
 _symmetry_equiv_pos_as_xyz
  1  'x, y, z'
loop_
 _atom_site_type_symbol
 _atom_site_label
 _atom_site_symmetry_multiplicity
 _atom_site_fract_x
 _atom_site_fract_y
 _atom_site_fract_z
 _atom_site_occupancy
 _atom_site_pbe_bader_charge
 _atom_site_pbe_bader_spin_density
 _atom_site_pbe_cm5_charge
 _atom_site_pbe_ddec_charge
 _atom_site_pbe_ddec_spin_density
 _atom_site_pbe_ddec_sum_bond_order
 _atom_site_pbe_magmom
Zn  Zn0  1  0.49998176  0.42397042  0.49978021  1  1.277374  0  0.670197  0.81231  0  2.452489  0
Zn  Zn1  1  0.49931031  0.57441262  0.50152746  1  1.269757  0  0.661072  0.81098  0  2.426704  0
H  H2  1  0.88233342  0.38113628  0.47292493  1  0.029888  0  0.098804  0.0462  0  0.964449  0
H  H3  1  0.91069662  0.60401402  0.54107868  1  0.037468  0  0.095571  0.032962  0  0.969257  0
H  H4  1  0.48246291  0.61557769  0.84486611  1  0.078923  0  0.10615  0.111897  0  0.988209  0
H  H5  1  0.53567486  0.38124811  0.84485741  1  0.083064  0  0.106704  0.112411  0  0.987284  0
H  H6  1  0.48183077  0.61455452  0.71736863  1  0.07205  0  0.104846  0.110292  0  0.999369  0
H  H7  1  0.53426189  0.38160180  0.71731610  1  0.074183  0  0.107828  0.113639  0  0.992212  0
H  H8  1  0.35316110  0.31032202  0.43448504  1  0.134503  0  0.12743  0.113115  0  0.980446  0
H  H9  1  0.35133648  0.68779883  0.43457952  1  0.153378  0  0.128215  0.115516  0  0.980239  0
H  H10  1  0.65914432  0.16767064  0.56211352  1  0.090495  0  0.11753  0.126437  0  0.979447  0
H  H11  1  0.64873431  0.83285577  0.56784571  1  0.099319  0  0.115918  0.1248  0  0.981386  0
H  H12  1  0.66099340  0.30583272  0.55950638  1  0.165415  0  0.133823  0.115885  0  0.97205  0
H  H13  1  0.64852716  0.69467283  0.56661509  1  0.128977  0  0.130591  0.107026  0  0.97002  0
H  H14  1  0.68985040  0.06665738  0.46927046  1  0.060091  0  0.108605  0.109899  0  0.988004  0
H  H15  1  0.68725684  0.93044573  0.47022008  1  0.074136  0  0.106859  0.107474  0  0.990306  0
H  H16  1  0.30615889  0.93297904  0.53156584  1  0.072242  0  0.101542  0.108977  0  0.995693  0
H  H17  1  0.30903366  0.06865514  0.53110498  1  0.088523  0  0.102048  0.110143  0  0.99567  0
H  H18  1  0.11155385  0.38469331  0.54111890  1  0.036888  0  0.094431  0.110761  0  0.993089  0
H  H19  1  0.08880185  0.50250388  0.60874050  1  0.04531  0  0.102826  0.117632  0  0.960846  0
H  H20  1  0.09244706  0.38918290  0.45187371  1  0.029154  0  0.08751  0.090299  0  0.986421  0
H  H21  1  0.11863003  0.58858670  0.56979001  1  0.041008  0  0.093749  0.101582  0  0.981742  0
H  H22  1  0.90335756  0.48385953  0.39170520  1  0.033565  0  0.096563  0.098135  0  0.970682  0
H  H23  1  0.88228914  0.57553564  0.41839487  1  0.014299  0  0.093054  0.09349  0  0.977947  0
H  H24  1  0.11492599  0.51223797  0.38983380  1  0.042538  0  0.092972  0.094677  0  0.973338  0
H  H25  1  0.09471234  0.59310687  0.43808280  1  0.043557  0  0.087628  0.086645  0  0.994541  0
H  H26  1  0.56095951  0.61249456  0.28517014  1  0.074794  0  0.100503  0.104438  0  1.005462  0
H  H27  1  0.43197997  0.38992695  0.28412604  1  0.100663  0  0.099994  0.103089  0  1.008302  0
H  H28  1  0.56547024  0.61264655  0.15815974  1  0.060658  0  0.099387  0.099062  0  1.00685  0
H  H29  1  0.43748867  0.38848284  0.15723330  1  0.027067  0  0.099816  0.099844  0  1.00621  0
H  H30  1  0.33857650  0.43322212  0.06277314  1  0.070256  0  0.104985  0.128475  0  0.999344  0
H  H31  1  0.67043773  0.56654003  0.06497149  1  0.061529  0  0.104883  0.128019  0  0.99921  0
H  H32  1  0.33460594  0.42886422  0.88382167  1  0.577169  0  0.317557  0.347014  0  0.920883  0
H  H33  1  0.68387064  0.56769479  0.88612004  1  0.613844  0  0.31805  0.347531  0  0.919991  0
H  H34  1  0.88642422  0.42832202  0.60795606  1  0.613116  0  0.291635  0.334187  0  0.986197  0
H  H35  1  0.78783187  0.54531098  0.61579425  1  0.589969  0  0.307446  0.347498  0  0.931736  0
C  C36  1  0.50676705  0.49840345  0.63359674  1  1.585674  0  0.208604  0.579738  0  4.190601  0
C  C37  1  0.07006464  0.53463987  0.43551414  1  -0.025197  0  -0.160593  -0.181975  0  3.880742  0
C  C38  1  0.53421075  0.56378046  0.25638731  1  -0.001304  0  -0.088235  -0.091023  0  4.001064  0
C  C39  1  0.46041920  0.43847340  0.25577765  1  -0.016804  0  -0.08808  -0.089401  0  4.000145  0
C  C40  1  0.53727158  0.56333045  0.18554611  1  -0.061568  0  -0.094004  -0.137162  0  3.988451  0
C  C41  1  0.46300106  0.43818309  0.18499940  1  -0.04094  0  -0.093567  -0.137181  0  3.988947  0
C  C42  1  0.50157135  0.50056204  0.14850926  1  -0.046276  0  -0.002612  0.081177  0  3.983427  0
C  C43  1  0.49593128  0.50128610  0.29226636  1  0.06665  0  -0.023882  -0.041151  0  3.981564  0
C  C44  1  0.41382051  0.46112395  0.03672852  1  0.067747  0  -0.121227  -0.28931  0  3.977246  0
C  C45  1  0.59663706  0.53808728  0.03795962  1  0.046635  0  -0.121659  -0.288838  0  3.977343  0
C  C46  1  0.41628106  0.46045424  0.96572196  1  0.365571  0  0.076419  0.298858  0  4.107272  0
C  C47  1  0.59802850  0.53746605  0.96693152  1  0.427412  0  0.076403  0.2982  0  4.108081  0
C  C48  1  0.50818710  0.49863145  0.92924124  1  0.059576  0  -0.05266  -0.231368  0  4.053929  0
C  C49  1  0.50416567  0.49996208  0.07326702  1  -0.060049  0  -0.009003  0.106194  0  4.067934  0
C  C50  1  0.49544762  0.56428740  0.81700554  1  -0.047416  0  -0.095498  -0.155759  0  4.003615  0
C  C51  1  0.52270095  0.43242731  0.81697160  1  -0.059348  0  -0.094494  -0.15547  0  3.998281  0
C  C52  1  0.73866700  0.49816390  0.49946361  1  1.533677  0  0.217542  0.592755  0  4.128136  0
C  C53  1  0.49458683  0.56400489  0.74608598  1  -0.022432  0  -0.084144  -0.083582  0  3.986487  0
C  C54  1  0.52258897  0.43235274  0.74599157  1  -0.023867  0  -0.08028  -0.077685  0  3.974925  0
C  C55  1  0.50819105  0.49809752  0.71002466  1  -0.044085  0  -0.016963  -0.028035  0  3.958082  0
C  C56  1  0.50920874  0.49843432  0.85379198  1  -0.076197  0  -0.014102  0.078836  0  4.06807  0
C  C57  1  0.41878032  0.27620678  0.46202624  1  0.526524  0  0.054372  0.070368  0  3.908337  0
C  C58  1  0.41535175  0.72243104  0.46313882  1  0.535594  0  0.055399  0.071702  0  3.900882  0
C  C59  1  0.41361997  0.19974573  0.45930762  1  -0.208445  0  -0.040898  -0.033814  0  3.870034  0
C  C60  1  0.41034070  0.79893642  0.46021451  1  -0.229344  0  -0.041129  -0.035256  0  3.869371  0
C  C61  1  0.49964805  0.15804954  0.49648568  1  0.012231  0  0.011855  0.080769  0  3.977982  0
C  C62  1  0.49449384  0.84131516  0.49848883  1  -0.056026  0  0.012715  0.084518  0  3.975976  0
C  C63  1  0.59031305  0.19744281  0.53264942  1  0.031498  0  -0.074751  -0.166908  0  3.940394  0
C  C64  1  0.58186097  0.80257072  0.53715104  1  0.02796  0  -0.076689  -0.170099  0  3.953417  0
C  C65  1  0.59133605  0.27367489  0.53234939  1  0.41305  0  0.065247  0.107707  0  3.896294  0
C  C66  1  0.58196626  0.72641422  0.53736121  1  0.424292  0  0.058815  0.09907  0  3.930145  0
C  C67  1  0.60586764  0.03732941  0.48332423  1  -0.096401  0  -0.084759  -0.118848  0  3.979488  0
C  C68  1  0.60437586  0.96082962  0.48379585  1  0.003088  0  -0.086164  -0.120532  0  3.983558  0
C  C69  1  0.49584378  0.92242708  0.49943431  1  0.049685  0  -0.012214  0.060925  0  4.018676  0
C  C70  1  0.49885422  0.07696577  0.49862204  1  -0.007447  0  -0.011228  0.06342  0  4.012693  0
C  C71  1  0.49401097  0.50087923  0.36836603  1  1.505962  0  0.210488  0.591419  0  4.169986  0
C  C72  1  0.38991444  0.96215260  0.51707684  1  -0.117261  0  -0.090626  -0.118899  0  3.996029  0
C  C73  1  0.39150634  0.03843363  0.51676404  1  0.081757  0  -0.090016  -0.11747  0  3.992192  0
C  C74  1  0.26051783  0.49774868  0.50137361  1  1.545923  0  0.221257  0.593018  0  4.093704  0
C  C75  1  0.92729379  0.41667241  0.51090616  1  0.493238  0  -0.00606  0.211836  0  3.817493  0
C  C76  1  0.93112423  0.54708274  0.55625589  1  0.433763  0  -0.00419  0.205238  0  3.82668  0
C  C77  1  0.06875618  0.41656292  0.50014017  1  -0.039308  0  -0.171867  -0.266533  0  3.876148  0
C  C78  1  0.07063640  0.53587225  0.56316607  1  -0.022927  0  -0.159328  -0.245591  0  3.835679  0
C  C79  1  0.92872583  0.52383145  0.43139422  1  -0.043542  0  -0.153036  -0.161956  0  3.870852  0
C  C80  1  0.87917096  0.49549936  0.50051992  1  0.053559  0  -0.028307  -0.126563  0  3.811773  0
C  C81  1  0.11987013  0.49532483  0.49950317  1  0.043402  0  -0.016285  0.039104  0  3.805173  0
I  I82  1  0.28040273  0.15361773  0.39376788  1  0.129248  0  0.081818  -0.026018  0  1.333524  0
I  I83  1  0.28030255  0.84473297  0.39308519  1  0.134133  0  0.084065  -0.021915  0  1.330026  0
N  N84  1  0.50523044  0.31184250  0.49819059  1  -1.235239  0  -0.314929  -0.17601  0  3.52181  0
N  N85  1  0.49932363  0.68736128  0.50116683  1  -1.204972  0  -0.314005  -0.175967  0  3.517836  0
O  O86  1  0.53483929  0.43892589  0.60325666  1  -1.170799  0  -0.316453  -0.547572  0  2.311417  0
O  O87  1  0.47807863  0.55877584  0.60495140  1  -1.165201  0  -0.322037  -0.550702  0  2.320174  0
O  O88  1  0.68158218  0.44205096  0.47780644  1  -1.159889  0  -0.309605  -0.531116  0  2.351379  0
O  O89  1  0.68772481  0.55751720  0.52008016  1  -1.191928  0  -0.323009  -0.579605  0  2.329996  0
O  O90  1  0.46158860  0.44141199  0.39756719  1  -1.178462  0  -0.322843  -0.555489  0  2.319155  0
O  O91  1  0.52548502  0.56006459  0.39902118  1  -1.170742  0  -0.325399  -0.554585  0  2.311045  0
O  O92  1  0.31668780  0.43912146  0.51769060  1  -1.165784  0  -0.317411  -0.540122  0  2.334594  0
O  O93  1  0.31198757  0.55897649  0.48762564  1  -1.181601  0  -0.320898  -0.555873  0  2.32242  0
O  O94  1  0.32374914  0.42303170  0.93296178  1  -1.109193  0  -0.364668  -0.446559  0  2.241422  0
O  O95  1  0.69198796  0.57459021  0.93532212  1  -1.146697  0  -0.364777  -0.446757  0  2.240984  0
O  O96  1  0.89244902  0.38694655  0.57598932  1  -1.131817  0  -0.437565  -0.540179  0  2.1536  0
O  O97  1  0.87510089  0.53342150  0.62190619  1  -1.104505  0  -0.409567  -0.518317  0  2.17795  0
