# generated using pymatgen
data_CsBH24C16(N2O3)2
_symmetry_space_group_name_H-M   'P 1'
_cell_length_a   10.12934951
_cell_length_b   10.41789089
_cell_length_c   10.41788467
_cell_angle_alpha   97.20847603
_cell_angle_beta   91.52462780
_cell_angle_gamma   91.52466285
_symmetry_Int_Tables_number   1
_chemical_formula_structural   CsBH24C16(N2O3)2
_chemical_formula_sum   'Cs2 B2 H48 C32 N8 O12'
_cell_volume   1089.79000753
_cell_formula_units_Z   2
loop_
 _symmetry_equiv_pos_site_id
 _symmetry_equiv_pos_as_xyz
  1  'x, y, z'
loop_
 _atom_site_type_symbol
 _atom_site_label
 _atom_site_symmetry_multiplicity
 _atom_site_fract_x
 _atom_site_fract_y
 _atom_site_fract_z
 _atom_site_occupancy
 _atom_site_hle17_bader_spin_density
 _atom_site_hle17_ddec_charge
 _atom_site_hle17_ddec_spin_density
 _atom_site_hle17_ddec_sum_bond_order
 _atom_site_hle17_magmom
 _atom_site_hse06_10hf_bader_spin_density
 _atom_site_hse06_10hf_ddec_charge
 _atom_site_hse06_10hf_ddec_spin_density
 _atom_site_hse06_10hf_ddec_sum_bond_order
 _atom_site_hse06_10hf_magmom
 _atom_site_hse06_bader_spin_density
 _atom_site_hse06_ddec_charge
 _atom_site_hse06_ddec_spin_density
 _atom_site_hse06_ddec_sum_bond_order
 _atom_site_hse06_magmom
 _atom_site_pbe_bader_spin_density
 _atom_site_pbe_cm5_charge
 _atom_site_pbe_ddec_charge
 _atom_site_pbe_ddec_spin_density
 _atom_site_pbe_ddec_sum_bond_order
 _atom_site_pbe_magmom
Cs  Cs0  1  0.74999886  0.24367324  0.75632723  1  0  0.898372  0  0.651215  0  0  0.812272  0  0.908823  0  0  0.830238  0  0.885713  0  0  0.966123  0.798715  0  0.925558  0
Cs  Cs1  1  0.25000030  0.75632648  0.24367370  1  0  0.898369  0  0.651223  0  0  0.812276  0  0.908811  0  0  0.830231  0  0.885694  0  0  0.966118  0.798714  0  0.925552  0
B  B2  1  0.74999986  0.96895245  0.03104821  1  0  0.247458  0  3.527193  0  0  0.166122  0  3.747835  0  0  0.179604  0  3.742441  0  0  -0.187786  0.156665  0  3.752373  0
B  B3  1  0.24999928  0.03104631  0.96895258  1  0  0.24748  0  3.527166  0  0  0.166113  0  3.747886  0  0  0.179582  0  3.742521  0  0  -0.187806  0.156654  0  3.752425  0
H  H4  1  0.63306829  0.64033984  0.79836597  1  0  0.051475  0  0.939266  0  0  0.066199  0  1.004045  0  0  0.06633  0  1.004089  0  0  0.099179  0.065856  0  1.004277  0
H  H5  1  0.86693267  0.20163430  0.35966030  1  0  0.051506  0  0.939242  0  0  0.066223  0  1.004031  0  0  0.066354  0  1.004075  0  0  0.099166  0.065866  0  1.004277  0
H  H6  1  0.36693285  0.35965989  0.20163404  1  0  0.051467  0  0.93926  0  0  0.066192  0  1.004049  0  0  0.066324  0  1.004092  0  0  0.099162  0.065843  0  1.004287  0
H  H7  1  0.13306847  0.79836542  0.64034067  1  0  0.051459  0  0.939234  0  0  0.066193  0  1.004028  0  0  0.066324  0  1.004072  0  0  0.099161  0.065849  0  1.004261  0
H  H8  1  0.53659751  0.64742132  0.94036817  1  0  0.060016  0  0.934162  0  0  0.071866  0  1.003173  0  0  0.071967  0  1.003348  0  0  0.10219  0.071648  0  1.003087  0
H  H9  1  0.96340224  0.05963201  0.35257899  1  0  0.060018  0  0.934162  0  0  0.071868  0  1.003177  0  0  0.07197  0  1.003352  0  0  0.102189  0.071652  0  1.003088  0
H  H10  1  0.46340168  0.35257938  0.05963095  1  0  0.060008  0  0.934152  0  0  0.071872  0  1.003157  0  0  0.071972  0  1.003333  0  0  0.102192  0.071655  0  1.00307  0
H  H11  1  0.03659792  0.94036772  0.64742196  1  0  0.059999  0  0.934154  0  0  0.071865  0  1.003167  0  0  0.071965  0  1.003344  0  0  0.102185  0.071648  0  1.003081  0
H  H12  1  0.43286826  0.42858134  0.84911175  1  0  0.057605  0  0.938486  0  0  0.069559  0  1.008528  0  0  0.07013  0  1.008136  0  0  0.103852  0.069085  0  1.008915  0
H  H13  1  0.06713197  0.15088784  0.57141885  1  0  0.057605  0  0.938468  0  0  0.069556  0  1.008512  0  0  0.070126  0  1.008121  0  0  0.103837  0.069079  0  1.008899  0
H  H14  1  0.56713192  0.57141936  0.15088836  1  0  0.057608  0  0.938483  0  0  0.069563  0  1.008523  0  0  0.070135  0  1.008129  0  0  0.103848  0.069087  0  1.00891  0
H  H15  1  0.93286818  0.84911189  0.42858210  1  0  0.057624  0  0.938487  0  0  0.069571  0  1.008525  0  0  0.070142  0  1.008134  0  0  0.103866  0.069094  0  1.00891  0
H  H16  1  0.39351722  0.56167861  0.76387548  1  0  0.050489  0  0.927796  0  0  0.063454  0  0.997262  0  0  0.063836  0  0.996186  0  0  0.097947  0.063198  0  0.997903  0
H  H17  1  0.10648376  0.23612460  0.43832163  1  0  0.050498  0  0.927775  0  0  0.063452  0  0.997255  0  0  0.063836  0  0.996175  0  0  0.097933  0.063193  0  0.997898  0
H  H18  1  0.60648296  0.43832208  0.23612464  1  0  0.050503  0  0.927798  0  0  0.063464  0  0.997268  0  0  0.063843  0  0.996197  0  0  0.097947  0.063205  0  0.997911  0
H  H19  1  0.89351639  0.76387513  0.56167835  1  0  0.050504  0  0.927805  0  0  0.063453  0  0.997281  0  0  0.063836  0  0.996202  0  0  0.097937  0.063193  0  0.997923  0
H  H20  1  0.34988163  0.42108731  0.56801314  1  0  0.040427  0  0.94545  0  0  0.054319  0  1.014266  0  0  0.055092  0  1.012577  0  0  0.096209  0.053678  0  1.015523  0
H  H21  1  0.15011872  0.43198655  0.57891279  1  0  0.04049  0  0.945447  0  0  0.054385  0  1.014253  0  0  0.05516  0  1.012564  0  0  0.096232  0.053744  0  1.015511  0
H  H22  1  0.65011951  0.57891242  0.43198687  1  0  0.040482  0  0.945444  0  0  0.054375  0  1.014253  0  0  0.055148  0  1.012565  0  0  0.096217  0.053733  0  1.015511  0
H  H23  1  0.84988042  0.56801220  0.42108800  1  0  0.040507  0  0.945443  0  0  0.0544  0  1.014243  0  0  0.055172  0  1.012558  0  0  0.09623  0.053759  0  1.015502  0
H  H24  1  0.37910080  0.28690856  0.65617267  1  0  0.048879  0  0.927813  0  0  0.063918  0  0.99509  0  0  0.064315  0  0.994875  0  0  0.100367  0.06341  0  0.995512  0
H  H25  1  0.12089924  0.34382771  0.71309271  1  0  0.0489  0  0.927797  0  0  0.063944  0  0.995065  0  0  0.064341  0  0.994852  0  0  0.10037  0.063439  0  0.995485  0
H  H26  1  0.62090037  0.71309214  0.34382747  1  0  0.048904  0  0.927818  0  0  0.063947  0  0.995084  0  0  0.064345  0  0.994869  0  0  0.100375  0.063439  0  0.995505  0
H  H27  1  0.87909992  0.65617201  0.28690821  1  0  0.048915  0  0.927805  0  0  0.063949  0  0.995075  0  0  0.064348  0  0.99486  0  0  0.100379  0.063441  0  0.995498  0
H  H28  1  0.39986126  0.24535561  0.41195098  1  0  0.055252  0  0.94197  0  0  0.06709  0  1.01443  0  0  0.067662  0  1.013125  0  0  0.098779  0.066674  0  1.015317  0
H  H29  1  0.10013933  0.58804911  0.75464418  1  0  0.055237  0  0.941959  0  0  0.067084  0  1.01443  0  0  0.067657  0  1.013126  0  0  0.098775  0.066667  0  1.015318  0
H  H30  1  0.60013988  0.75464412  0.58804807  1  0  0.055298  0  0.941919  0  0  0.067108  0  1.014399  0  0  0.067679  0  1.013097  0  0  0.098785  0.066693  0  1.015287  0
H  H31  1  0.89985989  0.41195256  0.24535412  1  0  0.055257  0  0.941925  0  0  0.067089  0  1.014395  0  0  0.067659  0  1.013092  0  0  0.098778  0.066674  0  1.015281  0
H  H32  1  0.54071880  0.35369273  0.42708908  1  0  0.055872  0  0.933734  0  0  0.069898  0  0.999557  0  0  0.070643  0  0.998613  0  0  0.101707  0.06921  0  1.000448  0
H  H33  1  0.95928051  0.57291069  0.64630784  1  0  0.055877  0  0.933732  0  0  0.069918  0  0.999553  0  0  0.070662  0  0.998612  0  0  0.101715  0.069228  0  1.000444  0
H  H34  1  0.45928039  0.64630797  0.57291005  1  0  0.055876  0  0.933755  0  0  0.069891  0  0.999587  0  0  0.070638  0  0.998642  0  0  0.10171  0.069203  0  1.000479  0
H  H35  1  0.04071865  0.42708904  0.35369116  1  0  0.055886  0  0.933728  0  0  0.069914  0  0.999552  0  0  0.070658  0  0.998607  0  0  0.101721  0.069225  0  1.000444  0
H  H36  1  0.65540621  0.17721937  0.33304108  1  0  0.045304  0  0.948889  0  0  0.059437  0  1.0165  0  0  0.059371  0  1.016822  0  0  0.095249  0.05934  0  1.016373  0
H  H37  1  0.84459482  0.66695906  0.82278117  1  0  0.045324  0  0.948889  0  0  0.059448  0  1.016498  0  0  0.059392  0  1.01681  0  0  0.095256  0.059353  0  1.016366  0
H  H38  1  0.34459493  0.82278036  0.66695893  1  0  0.045309  0  0.948871  0  0  0.059442  0  1.016484  0  0  0.059377  0  1.016801  0  0  0.095254  0.059345  0  1.016356  0
H  H39  1  0.15540536  0.33304164  0.17721990  1  0  0.045318  0  0.948893  0  0  0.059428  0  1.016519  0  0  0.059369  0  1.016834  0  0  0.095241  0.059331  0  1.016392  0
H  H40  1  0.53106969  0.05459029  0.34103587  1  0  0.059692  0  0.933519  0  0  0.072729  0  1.001649  0  0  0.073086  0  1.001708  0  0  0.102175  0.072548  0  1.001503  0
H  H41  1  0.96893104  0.65896392  0.94541038  1  0  0.059678  0  0.933536  0  0  0.072708  0  1.001665  0  0  0.073067  0  1.001724  0  0  0.102167  0.072527  0  1.001519  0
H  H42  1  0.46893142  0.94540847  0.65896306  1  0  0.059674  0  0.933519  0  0  0.072716  0  1.001649  0  0  0.073071  0  1.001709  0  0  0.102183  0.072534  0  1.001504  0
H  H43  1  0.03106911  0.34103581  0.05459057  1  0  0.059674  0  0.933539  0  0  0.072708  0  1.001658  0  0  0.073065  0  1.00172  0  0  0.10218  0.072526  0  1.001513  0
H  H44  1  0.82917450  0.49416519  0.04127266  1  0  0.076554  0  0.927676  0  0  0.090635  0  0.9915  0  0  0.090939  0  0.991132  0  0  0.113281  0.09026  0  0.992006  0
H  H45  1  0.67082648  0.95872735  0.50583473  1  0  0.076544  0  0.927675  0  0  0.090622  0  0.991501  0  0  0.090925  0  0.991133  0  0  0.113287  0.09025  0  0.992006  0
H  H46  1  0.17082667  0.50583551  0.95872651  1  0  0.07652  0  0.927683  0  0  0.090612  0  0.991513  0  0  0.090917  0  0.991144  0  0  0.11328  0.090242  0  0.992015  0
H  H47  1  0.32917367  0.04127237  0.49416622  1  0  0.076554  0  0.927707  0  0  0.090629  0  0.991541  0  0  0.090936  0  0.991173  0  0  0.11329  0.090257  0  0.992045  0
H  H48  1  0.75801679  0.64952879  0.04735248  1  0  0.042696  0  0.943589  0  0  0.055721  0  1.015698  0  0  0.055189  0  1.016264  0  0  0.095866  0.055859  0  1.01556  0
H  H49  1  0.74198340  0.95264842  0.35047222  1  0  0.042684  0  0.943588  0  0  0.055713  0  1.015685  0  0  0.055181  0  1.016248  0  0  0.09588  0.055849  0  1.015557  0
H  H50  1  0.24198340  0.35047191  0.95264763  1  0  0.042661  0  0.943585  0  0  0.055702  0  1.015697  0  0  0.055169  0  1.016261  0  0  0.095873  0.055837  0  1.015571  0
H  H51  1  0.25801678  0.04735227  0.64952981  1  0  0.042681  0  0.943605  0  0  0.055729  0  1.015682  0  0  0.055199  0  1.016248  0  0  0.095878  0.055868  0  1.015544  0
C  C52  1  0.74590859  0.93005080  0.87876949  1  0  0.07768  0  3.579704  0  0  0.093731  0  3.849757  0  0  0.09603  0  3.866695  0  0  0.194495  0.09233  0  3.838084  0
C  C53  1  0.75409189  0.12123092  0.06995006  1  0  0.077722  0  3.57971  0  0  0.093776  0  3.849761  0  0  0.096075  0  3.866696  0  0  0.194518  0.092376  0  3.838085  0
C  C54  1  0.25409061  0.06994990  0.12123060  1  0  0.077703  0  3.579684  0  0  0.093764  0  3.849742  0  0  0.096067  0  3.866678  0  0  0.194522  0.092363  0  3.838069  0
C  C55  1  0.24590727  0.87876881  0.93005086  1  0  0.077761  0  3.579685  0  0  0.093821  0  3.849749  0  0  0.096124  0  3.866685  0  0  0.194515  0.09242  0  3.838076  0
C  C56  1  0.62265604  0.90790454  0.08839365  1  0  0.094723  0  3.564402  0  0  0.111849  0  3.832649  0  0  0.114819  0  3.848841  0  0  0.207076  0.10997  0  3.821609  0
C  C57  1  0.87734428  0.91160584  0.09209568  1  0  0.094678  0  3.564319  0  0  0.111804  0  3.832563  0  0  0.114775  0  3.848753  0  0  0.207029  0.109926  0  3.821523  0
C  C58  1  0.37734214  0.09209519  0.91160629  1  0  0.094623  0  3.564358  0  0  0.111756  0  3.832615  0  0  0.114727  0  3.84881  0  0  0.207009  0.109877  0  3.821576  0
C  C59  1  0.12265486  0.08839293  0.90790320  1  0  0.094629  0  3.564353  0  0  0.111761  0  3.832615  0  0  0.114731  0  3.848809  0  0  0.207034  0.109883  0  3.821576  0
C  C60  1  0.58163901  0.58135477  0.86360318  1  0  0.056786  0  3.660339  0  0  -0.001868  0  3.929953  0  0  0.004427  0  3.936202  0  0  -0.076673  -0.005996  0  3.925611  0
C  C61  1  0.91836181  0.13639674  0.41864549  1  0  0.056782  0  3.660367  0  0  -0.001893  0  3.929989  0  0  0.004401  0  3.936239  0  0  -0.076655  -0.006011  0  3.925642  0
C  C62  1  0.41836117  0.41864593  0.13639693  1  0  0.056837  0  3.660304  0  0  -0.001847  0  3.929952  0  0  0.00445  0  3.936199  0  0  -0.076654  -0.00597  0  3.925605  0
C  C63  1  0.08163835  0.86360299  0.58135545  1  0  0.056869  0  3.660249  0  0  -0.001862  0  3.929939  0  0  0.004432  0  3.936189  0  0  -0.076655  -0.005992  0  3.925591  0
C  C64  1  0.47420130  0.49878538  0.78879197  1  0  0.057592  0  3.668412  0  0  -0.001168  0  3.943947  0  0  0.005362  0  3.949547  0  0  -0.076238  -0.005701  0  3.94012  0
C  C65  1  0.02579938  0.21120870  0.50121590  1  0  0.057547  0  3.668421  0  0  -0.001198  0  3.943949  0  0  0.005334  0  3.949548  0  0  -0.076222  -0.005724  0  3.940109  0
C  C66  1  0.52579888  0.50121532  0.21120910  1  0  0.057539  0  3.668426  0  0  -0.001211  0  3.943969  0  0  0.005321  0  3.949567  0  0  -0.076233  -0.005741  0  3.940134  0
C  C67  1  0.97420078  0.78879103  0.49878505  1  0  0.057521  0  3.668465  0  0  -0.001203  0  3.943971  0  0  0.00533  0  3.949572  0  0  -0.076247  -0.005723  0  3.940125  0
C  C68  1  0.42640750  0.35631200  0.59813328  1  0  0.061213  0  3.691682  0  0  -0.000768  0  3.968931  0  0  0.005516  0  3.975466  0  0  -0.076748  -0.004875  0  3.964296  0
C  C69  1  0.07359280  0.40186669  0.64368835  1  0  0.061102  0  3.691702  0  0  -0.00088  0  3.96898  0  0  0.005403  0  3.97552  0  0  -0.076753  -0.004991  0  3.964346  0
C  C70  1  0.57359265  0.64368773  0.40186574  1  0  0.06106  0  3.691802  0  0  -0.000924  0  3.969044  0  0  0.005361  0  3.975579  0  0  -0.076758  -0.005031  0  3.964412  0
C  C71  1  0.92640733  0.59813207  0.35631151  1  0  0.06109  0  3.691727  0  0  -0.000883  0  3.968957  0  0  0.0054  0  3.975493  0  0  -0.07676  -0.004991  0  3.964325  0
C  C72  1  0.48244849  0.28544416  0.47776915  1  0  0.054334  0  3.673952  0  0  -0.004098  0  3.94669  0  0  0.002301  0  3.952262  0  0  -0.076803  -0.008477  0  3.942821  0
C  C73  1  0.01755194  0.52223063  0.71455545  1  0  0.05439  0  3.673867  0  0  -0.00409  0  3.946675  0  0  0.002304  0  3.952256  0  0  -0.076799  -0.008466  0  3.942801  0
C  C74  1  0.51755169  0.71455654  0.52223097  1  0  0.054314  0  3.673973  0  0  -0.004082  0  3.946676  0  0  0.002314  0  3.952254  0  0  -0.076806  -0.008464  0  3.942814  0
C  C75  1  0.98244821  0.47776911  0.28544357  1  0  0.054351  0  3.673882  0  0  -0.004092  0  3.946627  0  0  0.00231  0  3.952195  0  0  -0.076807  -0.00847  0  3.942758  0
C  C76  1  0.61248784  0.11068424  0.39655774  1  0  0.043734  0  3.671477  0  0  -0.016045  0  3.94405  0  0  -0.010036  0  3.950587  0  0  -0.080575  -0.02009  0  3.939318  0
C  C77  1  0.88751327  0.60344247  0.88931535  1  0  0.043733  0  3.671505  0  0  -0.016013  0  3.944033  0  0  -0.010016  0  3.950584  0  0  -0.080577  -0.02006  0  3.9393  0
C  C78  1  0.38751231  0.88931550  0.60344225  1  0  0.043781  0  3.671433  0  0  -0.016004  0  3.944013  0  0  -0.009992  0  3.950553  0  0  -0.080584  -0.020051  0  3.93928  0
C  C79  1  0.11248691  0.39655823  0.11068476  1  0  0.043772  0  3.671537  0  0  -0.015951  0  3.944067  0  0  -0.009952  0  3.950613  0  0  -0.080542  -0.019997  0  3.939335  0
C  C80  1  0.78593297  0.56326106  0.98196059  1  0  0.053008  0  3.669919  0  0  -0.006798  0  3.944431  0  0  0.000215  0  3.949938  0  0  -0.077663  -0.011467  0  3.940698  0
C  C81  1  0.71406784  0.01803909  0.43673885  1  0  0.053085  0  3.669884  0  0  -0.006716  0  3.944383  0  0  0.000303  0  3.949879  0  0  -0.077658  -0.011392  0  3.940656  0
C  C82  1  0.21406620  0.43673867  0.01803937  1  0  0.053119  0  3.669836  0  0  -0.006741  0  3.944424  0  0  0.000276  0  3.949919  0  0  -0.077669  -0.011418  0  3.940696  0
C  C83  1  0.28593331  0.98196063  0.56326211  1  0  0.05299  0  3.669928  0  0  -0.006825  0  3.944426  0  0  0.000179  0  3.949938  0  0  -0.07769  -0.011496  0  3.940694  0
N  N84  1  0.74178734  0.89709117  0.76747535  1  0  -0.352349  0  2.664172  0  0  -0.336499  0  2.897138  0  0  -0.343985  0  2.910541  0  0  -0.313275  -0.331186  0  2.887755  0
N  N85  1  0.75821236  0.23252438  0.10290843  1  0  -0.352397  0  2.664197  0  0  -0.336546  0  2.897155  0  0  -0.344032  0  2.910556  0  0  -0.313309  -0.331232  0  2.88777  0
N  N86  1  0.25821182  0.10290856  0.23252461  1  0  -0.352377  0  2.664158  0  0  -0.336527  0  2.897116  0  0  -0.344013  0  2.910514  0  0  -0.313302  -0.331213  0  2.887733  0
N  N87  1  0.24178779  0.76747535  0.89709155  1  0  -0.352425  0  2.664171  0  0  -0.33658  0  2.897131  0  0  -0.344064  0  2.910528  0  0  -0.313306  -0.331266  0  2.887749  0
N  N88  1  0.53051457  0.86126554  0.13126712  1  0  -0.369864  0  2.682159  0  0  -0.352704  0  2.920764  0  0  -0.361344  0  2.935089  0  0  -0.346817  -0.346681  0  2.911053  0
N  N89  1  0.96948572  0.86873283  0.13873517  1  0  -0.369822  0  2.682094  0  0  -0.352659  0  2.920689  0  0  -0.361299  0  2.935013  0  0  -0.346772  -0.346636  0  2.910979  0
N  N90  1  0.46948564  0.13873613  0.86873312  1  0  -0.36977  0  2.682067  0  0  -0.352611  0  2.920665  0  0  -0.361249  0  2.934991  0  0  -0.346743  -0.346588  0  2.910955  0
N  N91  1  0.03051441  0.13126594  0.86126373  1  0  -0.369776  0  2.682138  0  0  -0.352617  0  2.920742  0  0  -0.361253  0  2.935069  0  0  -0.346774  -0.346593  0  2.911032  0
O  O92  1  0.67108708  0.49805661  0.91938922  1  0  -0.333804  0  2.276327  0  0  -0.261842  0  2.527853  0  0  -0.277723  0  2.529619  0  0  -0.297525  -0.25066  0  2.52624  0
O  O93  1  0.82891343  0.08061184  0.50194412  1  0  -0.333853  0  2.276352  0  0  -0.261862  0  2.527866  0  0  -0.277745  0  2.52963  0  0  -0.29754  -0.250676  0  2.526252  0
O  O94  1  0.32891310  0.50194409  0.08061185  1  0  -0.333848  0  2.276285  0  0  -0.261866  0  2.527844  0  0  -0.277749  0  2.529602  0  0  -0.297536  -0.250682  0  2.526232  0
O  O95  1  0.17108675  0.91938886  0.49805695  1  0  -0.333809  0  2.276291  0  0  -0.261811  0  2.52782  0  0  -0.277691  0  2.529587  0  0  -0.297513  -0.25063  0  2.526211  0
O  O96  1  0.52715470  0.43141368  0.67395234  1  0  -0.330472  0  2.251669  0  0  -0.260538  0  2.503242  0  0  -0.276245  0  2.504626  0  0  -0.282793  -0.249453  0  2.502034  0
O  O97  1  0.97284525  0.32604705  0.56858684  1  0  -0.330446  0  2.251711  0  0  -0.260513  0  2.503283  0  0  -0.276217  0  2.504667  0  0  -0.282801  -0.249425  0  2.502071  0
O  O98  1  0.47284548  0.56858702  0.32604777  1  0  -0.33043  0  2.251735  0  0  -0.260501  0  2.503304  0  0  -0.276204  0  2.504683  0  0  -0.282814  -0.249412  0  2.502093  0
O  O99  1  0.02715490  0.67395267  0.43141411  1  0  -0.330469  0  2.251698  0  0  -0.260532  0  2.503244  0  0  -0.276237  0  2.504625  0  0  -0.282789  -0.249447  0  2.502032  0
O  O100  1  0.56370976  0.18359077  0.51027082  1  0  -0.329773  0  2.267439  0  0  -0.257298  0  2.519361  0  0  -0.272844  0  2.52081  0  0  -0.292429  -0.246193  0  2.517931  0
O  O101  1  0.93629081  0.48972847  0.81641040  1  0  -0.32979  0  2.267403  0  0  -0.257308  0  2.51933  0  0  -0.272852  0  2.520782  0  0  -0.292433  -0.246205  0  2.5179  0
O  O102  1  0.43629043  0.81640993  0.48972929  1  0  -0.32977  0  2.267462  0  0  -0.257291  0  2.519369  0  0  -0.272836  0  2.520813  0  0  -0.292429  -0.246185  0  2.517941  0
O  O103  1  0.06370835  0.51027126  0.18358956  1  0  -0.329814  0  2.267439  0  0  -0.25734  0  2.519346  0  0  -0.272884  0  2.52079  0  0  -0.292458  -0.246235  0  2.517917  0
