# generated using pymatgen
data_CuH4C4SN2
_symmetry_space_group_name_H-M   'P 1'
_cell_length_a   7.45668368
_cell_length_b   7.61643654
_cell_length_c   11.05915444
_cell_angle_alpha   101.83499488
_cell_angle_beta   90.00293367
_cell_angle_gamma   119.30695111
_symmetry_Int_Tables_number   1
_chemical_formula_structural   CuH4C4SN2
_chemical_formula_sum   'Cu4 H16 C16 S4 N8'
_cell_volume   532.32971445
_cell_formula_units_Z   4
loop_
 _symmetry_equiv_pos_site_id
 _symmetry_equiv_pos_as_xyz
  1  'x, y, z'
loop_
 _atom_site_type_symbol
 _atom_site_label
 _atom_site_symmetry_multiplicity
 _atom_site_fract_x
 _atom_site_fract_y
 _atom_site_fract_z
 _atom_site_occupancy
 _atom_site_hle17_bader_spin_density
 _atom_site_hle17_ddec_charge
 _atom_site_hle17_ddec_spin_density
 _atom_site_hle17_ddec_sum_bond_order
 _atom_site_hle17_magmom
 _atom_site_hse06_10hf_bader_spin_density
 _atom_site_hse06_10hf_ddec_charge
 _atom_site_hse06_10hf_ddec_spin_density
 _atom_site_hse06_10hf_ddec_sum_bond_order
 _atom_site_hse06_10hf_magmom
 _atom_site_hse06_bader_spin_density
 _atom_site_hse06_ddec_charge
 _atom_site_hse06_ddec_spin_density
 _atom_site_hse06_ddec_sum_bond_order
 _atom_site_hse06_magmom
 _atom_site_pbe_bader_spin_density
 _atom_site_pbe_cm5_charge
 _atom_site_pbe_ddec_charge
 _atom_site_pbe_ddec_spin_density
 _atom_site_pbe_ddec_sum_bond_order
 _atom_site_pbe_magmom
Cu  Cu0  1  0.05760412  0.35856108  0.52203758  1  0  0.421256  0  2.14599  0  0  0.337427  0  2.627963  0  0  0.330997  0  2.588971  0  0  0.497372  0.343053  0  2.654718  0
Cu  Cu1  1  0.30088995  0.35871913  0.02204859  1  0  0.421591  0  2.145092  0  0  0.337997  0  2.62709  0  0  0.331626  0  2.58809  0  0  0.49765  0.34358  0  2.653994  0
Cu  Cu2  1  0.94240013  0.64144367  0.47796319  1  0  0.421275  0  2.14594  0  0  0.337466  0  2.627902  0  0  0.330996  0  2.588898  0  0  0.49739  0.343094  0  2.654628  0
Cu  Cu3  1  0.69911256  0.64127946  0.97794946  1  0  0.421624  0  2.145026  0  0  0.338033  0  2.627  0  0  0.331605  0  2.587989  0  0  0.497685  0.343623  0  2.653901  0
H  H4  1  0.65773334  0.10865728  0.35778939  1  0  0.08778  0  0.969429  0  0  0.100619  0  1.030696  0  0  0.102701  0  1.029611  0  0  0.110404  0.099026  0  1.031778  0
H  H5  1  0.45118081  0.10927402  0.85775501  1  0  0.086826  0  0.969675  0  0  0.099855  0  1.030849  0  0  0.101937  0  1.029752  0  0  0.110276  0.098279  0  1.031938  0
H  H6  1  0.34226824  0.89134749  0.64221048  1  0  0.087712  0  0.969519  0  0  0.100583  0  1.030742  0  0  0.102665  0  1.029658  0  0  0.110402  0.098993  0  1.031824  0
H  H7  1  0.54881362  0.89072450  0.14224665  1  0  0.086839  0  0.969588  0  0  0.099893  0  1.030741  0  0  0.101975  0  1.029645  0  0  0.110287  0.098316  0  1.031829  0
H  H8  1  0.29389407  0.21571638  0.47277538  1  0  0.120853  0  0.972487  0  0  0.133896  0  1.047612  0  0  0.137923  0  1.044293  0  0  0.084866  0.131156  0  1.049736  0
H  H9  1  0.92156883  0.21530826  0.97281070  1  0  0.120534  0  0.972525  0  0  0.133494  0  1.047713  0  0  0.137478  0  1.044459  0  0  0.084728  0.130741  0  1.049919  0
H  H10  1  0.70610795  0.78429465  0.52722180  1  0  0.120861  0  0.972402  0  0  0.133879  0  1.047563  0  0  0.137908  0  1.044239  0  0  0.084857  0.131137  0  1.049695  0
H  H11  1  0.07842517  0.78468405  0.02719095  1  0  0.120574  0  0.972485  0  0  0.133501  0  1.047722  0  0  0.137486  0  1.044464  0  0  0.084732  0.13075  0  1.049921  0
H  H12  1  0.40166235  0.23650502  0.32979505  1  0  0.129416  0  0.953653  0  0  0.151922  0  1.010678  0  0  0.152158  0  1.012948  0  0  0.095518  0.151656  0  1.009343  0
H  H13  1  0.83472328  0.23630510  0.82985521  1  0  0.128757  0  0.952815  0  0  0.151466  0  1.009979  0  0  0.151639  0  1.012316  0  0  0.095315  0.151236  0  1.008627  0
H  H14  1  0.59833503  0.76349673  0.67019986  1  0  0.129412  0  0.95369  0  0  0.151954  0  1.010664  0  0  0.152193  0  1.012928  0  0  0.095546  0.151688  0  1.00933  0
H  H15  1  0.16526882  0.76368878  0.17014576  1  0  0.128718  0  0.952887  0  0  0.151404  0  1.010069  0  0  0.151578  0  1.012405  0  0  0.095294  0.151175  0  1.008708  0
H  H16  1  0.29627997  0.99815202  0.37667396  1  0  0.112192  0  0.981521  0  0  0.127646  0  1.056432  0  0  0.129089  0  1.056884  0  0  0.083849  0.126764  0  1.055699  0
H  H17  1  0.70165497  0.99786488  0.87660495  1  0  0.110964  0  0.982317  0  0  0.12655  0  1.057431  0  0  0.128024  0  1.057871  0  0  0.083574  0.125655  0  1.056722  0
H  H18  1  0.70372217  0.00185119  0.62332568  1  0  0.112161  0  0.981601  0  0  0.127624  0  1.056509  0  0  0.129064  0  1.056967  0  0  0.083865  0.126747  0  1.055775  0
H  H19  1  0.29833751  0.00212438  0.12339354  1  0  0.11096  0  0.982261  0  0  0.126548  0  1.057371  0  0  0.128015  0  1.057817  0  0  0.083581  0.125651  0  1.056659  0
C  C20  1  0.24329077  0.52798923  0.28439893  1  0  0.301001  0  3.930842  0  0  0.290991  0  4.220308  0  0  0.306125  0  4.237606  0  0  0.150601  0.279544  0  4.209462  0
C  C21  1  0.28449688  0.52790265  0.78435102  1  0  0.299431  0  3.93226  0  0  0.289421  0  4.221719  0  0  0.304545  0  4.23905  0  0  0.149506  0.27798  0  4.210865  0
C  C22  1  0.75671730  0.47201244  0.71560048  1  0  0.300864  0  3.930776  0  0  0.290855  0  4.220253  0  0  0.305986  0  4.237554  0  0  0.150559  0.279401  0  4.209421  0
C  C23  1  0.71551312  0.47209752  0.21564546  1  0  0.299284  0  3.932476  0  0  0.289265  0  4.221942  0  0  0.304387  0  4.23927  0  0  0.14942  0.277814  0  4.21109  0
C  C24  1  0.07012735  0.06323419  0.31116395  1  0  0.231987  0  3.637328  0  0  0.23708  0  3.877477  0  0  0.243649  0  3.892012  0  0  0.128233  0.232419  0  3.867981  0
C  C25  1  0.99305026  0.06316994  0.81120366  1  0  0.23082  0  3.636524  0  0  0.235998  0  3.877  0  0  0.24257  0  3.891483  0  0  0.127157  0.231316  0  3.867544  0
C  C26  1  0.92987615  0.93676905  0.68883479  1  0  0.231935  0  3.637333  0  0  0.237049  0  3.877474  0  0  0.243605  0  3.892004  0  0  0.128204  0.232393  0  3.867978  0
C  C27  1  0.00694687  0.93682862  0.18879620  1  0  0.230866  0  3.636512  0  0  0.236011  0  3.876991  0  0  0.242583  0  3.891471  0  0  0.127141  0.231335  0  3.867524  0
C  C28  1  0.75944036  0.06065109  0.30969243  1  0  0.073063  0  3.692036  0  0  0.036077  0  3.957372  0  0  0.039111  0  3.972321  0  0  0.033493  0.033739  0  3.947636  0
C  C29  1  0.30134794  0.06102015  0.80969950  1  0  0.075151  0  3.691884  0  0  0.039203  0  3.95578  0  0  0.042222  0  3.970747  0  0  0.03417  0.036811  0  3.946076  0
C  C30  1  0.24055833  0.93935058  0.69030699  1  0  0.07316  0  3.692027  0  0  0.036163  0  3.957347  0  0  0.039187  0  3.972284  0  0  0.033516  0.033818  0  3.947615  0
C  C31  1  0.69865015  0.93898300  0.19030374  1  0  0.075167  0  3.691942  0  0  0.039169  0  3.95585  0  0  0.042183  0  3.970819  0  0  0.034147  0.036774  0  3.946146  0
C  C32  1  0.27645879  0.13202768  0.37626322  1  0  -0.376747  0  3.716384  0  0  -0.459244  0  3.954454  0  0  -0.46299  0  3.960777  0  0  -0.250684  -0.456404  0  3.950056  0
C  C33  1  0.85538775  0.13176655  0.87629388  1  0  -0.373985  0  3.714814  0  0  -0.456687  0  3.952709  0  0  -0.460437  0  3.959097  0  0  -0.24999  -0.453795  0  3.94814  0
C  C34  1  0.72354357  0.86797865  0.62373597  1  0  -0.376703  0  3.716434  0  0  -0.45923  0  3.954516  0  0  -0.462975  0  3.960837  0  0  -0.250728  -0.456407  0  3.950115  0
C  C35  1  0.14460223  0.86822576  0.12370777  1  0  -0.374024  0  3.714855  0  0  -0.456677  0  3.95278  0  0  -0.460419  0  3.959168  0  0  -0.250014  -0.453806  0  3.948242  0
S  S36  1  0.26391308  0.64303623  0.42996412  1  0  -0.316422  0  2.61287  0  0  -0.283359  0  3.026246  0  0  -0.289873  0  3.00688  0  0  -0.151336  -0.277434  0  3.039473  0
S  S37  1  0.37912381  0.64302182  0.92988588  1  0  -0.315598  0  2.611613  0  0  -0.282622  0  3.025046  0  0  -0.289104  0  3.005599  0  0  -0.151345  -0.276704  0  3.038354  0
S  S38  1  0.73609307  0.35696695  0.57003733  1  0  -0.316354  0  2.61292  0  0  -0.28327  0  3.026258  0  0  -0.289789  0  3.006911  0  0  -0.151308  -0.27734  0  3.039489  0
S  S39  1  0.62087882  0.35696897  0.07011374  1  0  -0.315554  0  2.611622  0  0  -0.282563  0  3.025035  0  0  -0.289059  0  3.005621  0  0  -0.151354  -0.276629  0  3.038321  0
N  N40  1  0.23369648  0.44274475  0.18032297  1  0  -0.491249  0  3.124608  0  0  -0.444653  0  3.450948  0  0  -0.455863  0  3.453204  0  0  -0.431253  -0.43853  0  3.451379  0
N  N41  1  0.20885093  0.44260013  0.68028864  1  0  -0.49031  0  3.126071  0  0  -0.443487  0  3.451823  0  0  -0.454676  0  3.454088  0  0  -0.43037  -0.437354  0  3.452176  0
N  N42  1  0.76631225  0.55724751  0.81968138  1  0  -0.491194  0  3.12441  0  0  -0.444593  0  3.450738  0  0  -0.455788  0  3.452973  0  0  -0.431288  -0.438466  0  3.451173  0
N  N43  1  0.79115595  0.55739379  0.31970963  1  0  -0.490213  0  3.126174  0  0  -0.443369  0  3.451873  0  0  -0.454549  0  3.454126  0  0  -0.430273  -0.437226  0  3.452205  0
N  N44  1  0.94582241  0.12538228  0.37151392  1  0  -0.293542  0  3.319733  0  0  -0.229212  0  3.606051  0  0  -0.233842  0  3.610875  0  0  -0.351072  -0.225809  0  3.602271  0
N  N45  1  0.17959382  0.12550619  0.87156707  1  0  -0.293812  0  3.320839  0  0  -0.230443  0  3.608127  0  0  -0.235043  0  3.6129  0  0  -0.350663  -0.226986  0  3.604381  0
N  N46  1  0.05418129  0.87462406  0.62848528  1  0  -0.29351  0  3.319798  0  0  -0.229241  0  3.6062  0  0  -0.233833  0  3.610982  0  0  -0.351061  -0.225839  0  3.602412  0
N  N47  1  0.82039851  0.87449080  0.12843346  1  0  -0.293816  0  3.320872  0  0  -0.230388  0  3.608127  0  0  -0.234971  0  3.61287  0  0  -0.350598  -0.226932  0  3.604378  0
