# generated using pymatgen
data_CdH28C28I2(NO)2
_symmetry_space_group_name_H-M   'P 1'
_cell_length_a   6.98421238
_cell_length_b   13.94266184
_cell_length_c   14.39200000
_cell_angle_alpha   90.00000000
_cell_angle_beta   90.00000000
_cell_angle_gamma   90.00000000
_symmetry_Int_Tables_number   1
_chemical_formula_structural   CdH28C28I2(NO)2
_chemical_formula_sum   'Cd2 H56 C56 I4 N4 O4'
_cell_volume   1401.47153725
_cell_formula_units_Z   2
loop_
 _symmetry_equiv_pos_site_id
 _symmetry_equiv_pos_as_xyz
  1  'x, y, z'
loop_
 _atom_site_type_symbol
 _atom_site_label
 _atom_site_symmetry_multiplicity
 _atom_site_fract_x
 _atom_site_fract_y
 _atom_site_fract_z
 _atom_site_occupancy
 _atom_site_hle17_bader_spin_density
 _atom_site_hle17_ddec_charge
 _atom_site_hle17_ddec_spin_density
 _atom_site_hle17_ddec_sum_bond_order
 _atom_site_hle17_magmom
 _atom_site_hse06_10hf_bader_spin_density
 _atom_site_hse06_10hf_ddec_charge
 _atom_site_hse06_10hf_ddec_spin_density
 _atom_site_hse06_10hf_ddec_sum_bond_order
 _atom_site_hse06_10hf_magmom
 _atom_site_hse06_bader_spin_density
 _atom_site_hse06_ddec_charge
 _atom_site_hse06_ddec_spin_density
 _atom_site_hse06_ddec_sum_bond_order
 _atom_site_hse06_magmom
 _atom_site_pbe_bader_charge
 _atom_site_pbe_bader_spin_density
 _atom_site_pbe_cm5_charge
 _atom_site_pbe_ddec_charge
 _atom_site_pbe_ddec_spin_density
 _atom_site_pbe_ddec_sum_bond_order
 _atom_site_pbe_magmom
Cd  Cd0  1  0.70705467  0.49999922  0.99999931  1  0  0.725736  0  2.101746  0  0  0.550753  0  2.574068  0  0  0.597454  0  2.538043  0  0.865974  0  0.51599  0.518994  0  2.597815  0
Cd  Cd1  1  0.29294355  0.99999915  0.49999931  1  0  0.725756  0  2.101754  0  0  0.550779  0  2.574071  0  0  0.597474  0  2.538052  0  0.865971  0  0.515998  0.51902  0  2.597818  0
H  H2  1  0.28728078  0.59745765  0.98444761  1  0  0.068351  0  0.971087  0  0  0.074516  0  1.043598  0  0  0.077201  0  1.041078  0  0.103182  0  0.102102  0.072507  0  1.045531  0
H  H3  1  0.28727506  0.40253863  0.01555100  1  0  0.068333  0  0.971096  0  0  0.07451  0  1.043613  0  0  0.077189  0  1.041088  0  0.103118  0  0.102104  0.0725  0  1.045546  0
H  H4  1  0.71272460  0.90254000  0.48445108  1  0  0.068334  0  0.971059  0  0  0.074514  0  1.043575  0  0  0.077194  0  1.041048  0  0.10311  0  0.102093  0.072504  0  1.045508  0
H  H5  1  0.71272031  0.09745843  0.51555100  1  0  0.068393  0  0.97109  0  0  0.074571  0  1.043594  0  0  0.077253  0  1.041069  0  0.103149  0  0.102122  0.072561  0  1.045528  0
H  H6  1  0.02549464  0.61597205  0.87401959  1  0  0.090296  0  0.994779  0  0  0.097882  0  1.064604  0  0  0.101107  0  1.063322  0  0.057364  0  0.092144  0.095518  0  1.06573  0
H  H7  1  0.02549178  0.38402782  0.12598041  1  0  0.090301  0  0.994817  0  0  0.097915  0  1.064606  0  0  0.101145  0  1.063321  0  0.057352  0  0.092158  0.095552  0  1.065731  0
H  H8  1  0.97450788  0.88402632  0.37402029  1  0  0.090301  0  0.99475  0  0  0.097909  0  1.064552  0  0  0.101136  0  1.06327  0  0.057339  0  0.092153  0.095546  0  1.065678  0
H  H9  1  0.97450645  0.11597140  0.62598041  1  0  0.090296  0  0.994731  0  0  0.097887  0  1.064553  0  0  0.101112  0  1.063271  0  0.05737  0  0.092143  0.095523  0  1.06568  0
H  H10  1  0.40066651  0.50393175  0.66068232  1  0  0.114388  0  0.97623  0  0  0.1221  0  1.037884  0  0  0.125911  0  1.036243  0  0.098219  0  0.110528  0.119333  0  1.039302  0
H  H11  1  0.40066365  0.49607170  0.33931490  1  0  0.114371  0  0.976151  0  0  0.122041  0  1.037862  0  0  0.125853  0  1.036219  0  0.098264  0  0.1105  0.119269  0  1.039289  0
H  H12  1  0.59933744  0.99607235  0.16068580  1  0  0.114388  0  0.976167  0  0  0.122059  0  1.037861  0  0  0.125868  0  1.036227  0  0.098276  0  0.110499  0.119285  0  1.039292  0
H  H13  1  0.59933029  0.00392895  0.83931629  1  0  0.114355  0  0.976147  0  0  0.122047  0  1.037833  0  0  0.12586  0  1.036188  0  0.098234  0  0.110487  0.119276  0  1.039261  0
H  H14  1  0.64861143  0.48429490  0.78273624  1  0  0.068737  0  0.958391  0  0  0.074465  0  1.028629  0  0  0.077021  0  1.026796  0  0.083361  0  0.104526  0.072606  0  1.029913  0
H  H15  1  0.64860857  0.51570497  0.21725959  1  0  0.068749  0  0.958411  0  0  0.074482  0  1.028641  0  0  0.077038  0  1.026808  0  0.083418  0  0.104523  0.072621  0  1.029932  0
H  H16  1  0.35139252  0.01570575  0.28274041  1  0  0.068768  0  0.958383  0  0  0.074508  0  1.028614  0  0  0.077064  0  1.026781  0  0.083427  0  0.104534  0.072647  0  1.029903  0
H  H17  1  0.35138823  0.98429411  0.71726098  1  0  0.068775  0  0.958335  0  0  0.074506  0  1.028577  0  0  0.077062  0  1.026745  0  0.083372  0  0.104532  0.072648  0  1.029859  0
H  H18  1  0.90564113  0.69224802  0.76012298  1  0  0.087949  0  0.977151  0  0  0.103519  0  1.03711  0  0  0.105437  0  1.036585  0  0.055525  0  0.096947  0.102148  0  1.037478  0
H  H19  1  0.90564256  0.30775400  0.23987702  1  0  0.087961  0  0.977218  0  0  0.10353  0  1.037171  0  0  0.105447  0  1.036646  0  0.055528  0  0.096941  0.102158  0  1.03754  0
H  H20  1  0.09435566  0.80775322  0.26012368  1  0  0.087955  0  0.977221  0  0  0.103531  0  1.037159  0  0  0.105448  0  1.036633  0  0.055517  0  0.09696  0.10216  0  1.037528  0
H  H21  1  0.09435280  0.19224736  0.73987632  1  0  0.087946  0  0.977232  0  0  0.103517  0  1.037185  0  0  0.105434  0  1.03666  0  0.055514  0  0.096972  0.102146  0  1.037555  0
H  H22  1  0.63934768  0.78117938  0.71781684  1  0  0.103317  0  0.953711  0  0  0.126605  0  1.011762  0  0  0.127635  0  1.012113  0  0.027832  0  0.086134  0.125831  0  1.011522  0
H  H23  1  0.63934911  0.21881977  0.28218316  1  0  0.103287  0  0.953707  0  0  0.126571  0  1.011769  0  0  0.127602  0  1.012119  0  0.027826  0  0.086122  0.125797  0  1.011529  0
H  H24  1  0.36065198  0.71882113  0.21781754  1  0  0.103305  0  0.953705  0  0  0.126585  0  1.011769  0  0  0.127618  0  1.012117  0  0.02782  0  0.086124  0.125813  0  1.011529  0
H  H25  1  0.36065341  0.28117945  0.78218177  1  0  0.103299  0  0.953702  0  0  0.126585  0  1.011767  0  0  0.127616  0  1.012116  0  0.027809  0  0.08613  0.12581  0  1.011527  0
H  H26  1  0.45798292  0.71569332  0.65839286  1  0  0.103869  0  0.969339  0  0  0.1225  0  1.035495  0  0  0.1236  0  1.036016  0  0.050734  0  0.080337  0.121675  0  1.035155  0
H  H27  1  0.45798435  0.28430654  0.34160714  1  0  0.103877  0  0.969327  0  0  0.122506  0  1.035487  0  0  0.123607  0  1.036008  0  0.050763  0  0.080348  0.121681  0  1.035147  0
H  H28  1  0.54201674  0.78430791  0.15839425  1  0  0.103853  0  0.969345  0  0  0.122485  0  1.035503  0  0  0.123583  0  1.036026  0  0.050734  0  0.080334  0.12166  0  1.035164  0
H  H29  1  0.54201530  0.21569196  0.84160575  1  0  0.103851  0  0.969351  0  0  0.122492  0  1.035504  0  0  0.123584  0  1.036032  0  0.050744  0  0.080336  0.121666  0  1.035164  0
H  H30  1  0.60735410  0.79394452  0.59626251  1  0  0.096722  0  0.970254  0  0  0.114519  0  1.041216  0  0  0.115276  0  1.04142  0  0.034634  0  0.080341  0.113906  0  1.041139  0
H  H31  1  0.60735696  0.20605606  0.40373819  1  0  0.096709  0  0.970227  0  0  0.114507  0  1.041199  0  0  0.115264  0  1.041403  0  0.034643  0  0.080329  0.113897  0  1.041118  0
H  H32  1  0.39264556  0.70605671  0.09626320  1  0  0.096699  0  0.970267  0  0  0.114506  0  1.041218  0  0  0.115261  0  1.041427  0  0.034671  0  0.080336  0.113896  0  1.041138  0
H  H33  1  0.39264556  0.29394387  0.90373680  1  0  0.09667  0  0.970133  0  0  0.114474  0  1.041104  0  0  0.115227  0  1.041314  0  0.034672  0  0.080328  0.113862  0  1.041025  0
H  H34  1  0.59548590  0.58074061  0.42399111  1  0  0.103042  0  0.972145  0  0  0.123379  0  1.03405  0  0  0.124654  0  1.03436  0  0.031425  0  0.088275  0.122444  0  1.033843  0
H  H35  1  0.59548304  0.41925854  0.57600750  1  0  0.103076  0  0.972144  0  0  0.123423  0  1.034027  0  0  0.124699  0  1.034338  0  0.031479  0  0.088308  0.122487  0  1.033822  0
H  H36  1  0.40451805  0.91925847  0.92399319  1  0  0.103059  0  0.972153  0  0  0.123406  0  1.034041  0  0  0.124681  0  1.034354  0  0.031479  0  0.088308  0.12247  0  1.033837  0
H  H37  1  0.40451805  0.08074140  0.07600681  1  0  0.103055  0  0.972138  0  0  0.123399  0  1.034031  0  0  0.124675  0  1.034343  0  0.031493  0  0.088302  0.122463  0  1.033826  0
H  H38  1  0.59274114  0.70216650  0.46161479  1  0  0.104005  0  0.944905  0  0  0.126733  0  1.006428  0  0  0.127732  0  1.006447  0  0.034701  0  0.090173  0.126033  0  1.00637  0
H  H39  1  0.59273971  0.29783194  0.53838382  1  0  0.104018  0  0.944852  0  0  0.12674  0  1.006387  0  0  0.127738  0  1.006406  0  0.034683  0  0.090165  0.126039  0  1.006329  0
H  H40  1  0.40725852  0.79783259  0.96161687  1  0  0.104018  0  0.944856  0  0  0.126738  0  1.00639  0  0  0.127737  0  1.00641  0  0.034698  0  0.090165  0.126038  0  1.006332  0
H  H41  1  0.40725995  0.20216800  0.03838243  1  0  0.104023  0  0.94485  0  0  0.126739  0  1.006386  0  0  0.127735  0  1.00641  0  0.034701  0  0.090168  0.126039  0  1.006326  0
H  H42  1  0.43627969  0.61839124  0.51307462  1  0  0.125357  0  0.934055  0  0  0.146335  0  0.994263  0  0  0.148241  0  0.993506  0  0.055719  0  0.09731  0.144923  0  0.994876  0
H  H43  1  0.43627826  0.38160791  0.48692260  1  0  0.125377  0  0.934054  0  0  0.14635  0  0.994252  0  0  0.148263  0  0.993486  0  0.055685  0  0.097303  0.144939  0  0.994864  0
H  H44  1  0.56372283  0.88160784  0.01307671  1  0  0.125384  0  0.934044  0  0  0.146347  0  0.99426  0  0  0.14827  0  0.993484  0  0.05569  0  0.097306  0.144937  0  0.994872  0
H  H45  1  0.56372283  0.11839274  0.98692190  1  0  0.125378  0  0.934024  0  0  0.146349  0  0.994222  0  0  0.14827  0  0.993446  0  0.055664  0  0.097313  0.144939  0  0.994834  0
H  H46  1  0.19604501  0.29988248  0.61519316  1  0  0.086696  0  0.943017  0  0  0.104708  0  1.007672  0  0  0.105724  0  1.006408  0  0.076311  0  0.09632  0.103892  0  1.008635  0
H  H47  1  0.19604501  0.70011739  0.38481170  1  0  0.086715  0  0.943077  0  0  0.104737  0  1.007695  0  0  0.105752  0  1.006431  0  0.076309  0  0.096297  0.10392  0  1.008659  0
H  H48  1  0.80395751  0.20011817  0.11518899  1  0  0.08668  0  0.943052  0  0  0.104704  0  1.007682  0  0  0.10572  0  1.006417  0  0.076304  0  0.096297  0.103886  0  1.008648  0
H  H49  1  0.80395751  0.79988241  0.88481101  1  0  0.086692  0  0.943052  0  0  0.104716  0  1.007675  0  0  0.105732  0  1.00641  0  0.076313  0  0.0963  0.103898  0  1.008641  0
H  H50  1  0.94718483  0.32645488  0.60244719  1  0  0.079469  0  0.949163  0  0  0.095561  0  1.017618  0  0  0.096257  0  1.017734  0  0.050265  0  0.090306  0.095005  0  1.017557  0
H  H51  1  0.94718626  0.67354427  0.39755698  1  0  0.079466  0  0.949258  0  0  0.095563  0  1.017692  0  0  0.096259  0  1.01781  0  0.0502  0  0.0903  0.095006  0  1.017633  0
H  H52  1  0.05281626  0.17354434  0.10244372  1  0  0.079457  0  0.949245  0  0  0.095556  0  1.017684  0  0  0.096253  0  1.0178  0  0.050178  0  0.090303  0.094998  0  1.017626  0
H  H53  1  0.05281626  0.82645697  0.89755698  1  0  0.079457  0  0.949261  0  0  0.095555  0  1.017693  0  0  0.096251  0  1.017809  0  0.050185  0  0.090299  0.094997  0  1.017634  0
H  H54  1  0.06826682  0.35937757  0.70817468  1  0  0.070934  0  0.972096  0  0  0.081571  0  1.051368  0  0  0.082845  0  1.050445  0  0.065356  0  0.082305  0.080597  0  1.052087  0
H  H55  1  0.06826826  0.64062373  0.29182879  1  0  0.070979  0  0.972139  0  0  0.081553  0  1.051453  0  0  0.082827  0  1.05053  0  0.065398  0  0.082303  0.080579  0  1.052173  0
H  H56  1  0.93173427  0.14062451  0.20817190  1  0  0.070972  0  0.972106  0  0  0.081551  0  1.051417  0  0  0.082824  0  1.050496  0  0.065425  0  0.082299  0.080576  0  1.052137  0
H  H57  1  0.93173283  0.85937679  0.79182879  1  0  0.07099  0  0.9721  0  0  0.08155  0  1.051429  0  0  0.082823  0  1.050508  0  0.06539  0  0.082297  0.080575  0  1.05215  0
C  C58  1  0.30945222  0.57778063  0.91184130  1  0  0.117684  0  3.745873  0  0  0.087002  0  3.996375  0  0  0.094625  0  4.014855  0  0.419475  0  0.033604  0.082076  0  3.983869  0
C  C59  1  0.30944935  0.42221780  0.08815661  1  0  0.117894  0  3.745909  0  0  0.087182  0  3.996442  0  0  0.094815  0  4.014909  0  0.419622  0  0.03366  0.082256  0  3.983936  0
C  C60  1  0.69055031  0.92221845  0.41184339  1  0  0.117876  0  3.745879  0  0  0.087157  0  3.996416  0  0  0.094789  0  4.014884  0  0.419357  0  0.033682  0.082231  0  3.98391  0
C  C61  1  0.69054601  0.07778142  0.58815731  1  0  0.117736  0  3.745801  0  0  0.087025  0  3.996329  0  0  0.094654  0  4.0148  0  0.419747  0  0.033643  0.082099  0  3.983824  0
C  C62  1  0.16174766  0.58863079  0.84852349  1  0  -0.170664  0  3.737159  0  0  -0.186416  0  3.981101  0  0  -0.194907  0  4.002431  0  0.056004  0  -0.090432  -0.180988  0  3.966935  0
C  C63  1  0.16174480  0.41136836  0.15147443  1  0  -0.170791  0  3.737153  0  0  -0.18657  0  3.981103  0  0  -0.195066  0  4.002427  0  0.055971  0  -0.090496  -0.18114  0  3.966935  0
C  C64  1  0.83825057  0.91136686  0.34852418  1  0  -0.170802  0  3.737159  0  0  -0.186551  0  3.981124  0  0  -0.195046  0  4.002453  0  0.056121  0  -0.090499  -0.181121  0  3.966956  0
C  C65  1  0.83825057  0.08863085  0.65147651  1  0  -0.170791  0  3.736995  0  0  -0.186518  0  3.980967  0  0  -0.195011  0  4.002296  0  0.056036  0  -0.090499  -0.18109  0  3.9668  0
C  C66  1  0.18724087  0.56131821  0.75525848  1  0  0.136655  0  3.732423  0  0  0.146374  0  3.963744  0  0  0.153769  0  3.983176  0  -0.024361  0  0.018155  0.141598  0  3.950543  0
C  C67  1  0.18723801  0.43868309  0.24474083  1  0  0.136691  0  3.7324  0  0  0.146419  0  3.963714  0  0  0.153814  0  3.983149  0  -0.024335  0  0.018172  0.141643  0  3.950511  0
C  C68  1  0.81276308  0.93868303  0.25526056  1  0  0.136804  0  3.732432  0  0  0.146465  0  3.963823  0  0  0.153861  0  3.983258  0  -0.024525  0  0.018239  0.14169  0  3.950619  0
C  C69  1  0.81275736  0.06131756  0.74474152  1  0  0.136852  0  3.732318  0  0  0.146501  0  3.963737  0  0  0.153897  0  3.983173  0  -0.024045  0  0.018191  0.141728  0  3.950529  0
C  C70  1  0.36905092  0.52499731  0.73165995  1  0  -0.151403  0  3.676455  0  0  -0.168879  0  3.920584  0  0  -0.175998  0  3.938948  0  -0.011571  0  -0.081368  -0.1645  0  3.908537  0
C  C71  1  0.36904949  0.47500399  0.26833658  1  0  -0.151392  0  3.676509  0  0  -0.16882  0  3.920615  0  0  -0.17594  0  3.938981  0  -0.011563  0  -0.081367  -0.164445  0  3.908575  0
C  C72  1  0.63095304  0.97500392  0.23166342  1  0  -0.151484  0  3.676466  0  0  -0.16887  0  3.920568  0  0  -0.175992  0  3.938931  0  -0.011598  0  -0.081371  -0.164494  0  3.908527  0
C  C73  1  0.63094874  0.02499666  0.76833727  1  0  -0.151429  0  3.676487  0  0  -0.168866  0  3.920636  0  0  -0.175986  0  3.939003  0  -0.011516  0  -0.081372  -0.164494  0  3.908597  0
C  C74  1  0.50879896  0.51475537  0.79943371  1  0  0.129151  0  3.721545  0  0  0.102907  0  3.965176  0  0  0.110462  0  3.983562  0  0.494895  0  0.039014  0.098078  0  3.952673  0
C  C75  1  0.50879610  0.48524450  0.20056351  1  0  0.129271  0  3.72157  0  0  0.103019  0  3.965172  0  0  0.110573  0  3.983556  0  0.494937  0  0.039098  0.098186  0  3.952671  0
C  C76  1  0.49120499  0.98524372  0.29943649  1  0  0.129277  0  3.721514  0  0  0.103007  0  3.965116  0  0  0.11056  0  3.983501  0  0.494883  0  0.039118  0.098177  0  3.952611  0
C  C77  1  0.49119927  0.01475687  0.70056559  1  0  0.129193  0  3.721527  0  0  0.102949  0  3.965129  0  0  0.110502  0  3.983515  0  0.494772  0  0.039107  0.09812  0  3.952628  0
C  C78  1  0.03088537  0.57263814  0.68737702  1  0  -0.059607  0  3.79052  0  0  -0.053518  0  4.03843  0  0  -0.058417  0  4.061977  0  0.017437  0  -0.023025  -0.050301  0  4.022481  0
C  C79  1  0.03088251  0.42736388  0.31262229  1  0  -0.059634  0  3.790517  0  0  -0.053525  0  4.038399  0  0  -0.058426  0  4.061945  0  0.017335  0  -0.022959  -0.050309  0  4.022453  0
C  C80  1  0.96911429  0.92736381  0.18737910  1  0  -0.059641  0  3.790528  0  0  -0.053536  0  4.038464  0  0  -0.058436  0  4.062009  0  0.01737  0  -0.023042  -0.050322  0  4.022519  0
C  C81  1  0.96911142  0.07263749  0.81262229  1  0  -0.059753  0  3.790527  0  0  -0.05364  0  4.038459  0  0  -0.058542  0  4.062007  0  0.016974  0  -0.023084  -0.050426  0  4.022516  0
C  C82  1  0.01215599  0.51486725  0.60766954  1  0  0.196565  0  3.733628  0  0  0.17389  0  4.003893  0  0  0.182578  0  4.019445  0  0.498285  0  0.085463  0.168097  0  3.993332  0
C  C83  1  0.01215599  0.48513333  0.39233116  1  0  0.196559  0  3.733722  0  0  0.173879  0  4.003991  0  0  0.182568  0  4.019542  0  0.498379  0  0.085438  0.168065  0  3.993417  0
C  C84  1  0.98784367  0.98513327  0.10767023  1  0  0.196542  0  3.733668  0  0  0.173883  0  4.003969  0  0  0.182571  0  4.019521  0  0.498402  0  0.085449  0.168064  0  3.993395  0
C  C85  1  0.98784224  0.01486804  0.89233116  1  0  0.196554  0  3.733604  0  0  0.173891  0  4.003881  0  0  0.182578  0  4.019433  0  0.498401  0  0.085459  0.168073  0  3.993309  0
C  C86  1  0.86580700  0.53079534  0.54239786  1  0  -0.075227  0  3.76926  0  0  -0.072556  0  4.010468  0  0  -0.075488  0  4.033641  0  -0.003299  0  -0.014634  -0.070764  0  3.994961  0
C  C87  1  0.86580987  0.46920381  0.45760283  1  0  -0.075193  0  3.769231  0  0  -0.072514  0  4.010422  0  0  -0.075446  0  4.033591  0  -0.029359  0  -0.014646  -0.070685  0  3.994884  0
C  C88  1  0.13419122  0.96920446  0.04239786  1  0  -0.075173  0  3.769192  0  0  -0.072543  0  4.01042  0  0  -0.075476  0  4.033591  0  -0.003272  0  -0.014616  -0.070724  0  3.99488  0
C  C89  1  0.13419122  0.03079613  0.95760283  1  0  -0.075198  0  3.769186  0  0  -0.072503  0  4.010361  0  0  -0.075435  0  4.03353  0  -0.029348  0  -0.01463  -0.070684  0  3.994822  0
C  C90  1  0.73276695  0.60525172  0.55614022  1  0  0.069553  0  3.681708  0  0  0.08344  0  3.921857  0  0  0.084084  0  3.945575  0  -0.002142  0  -0.003786  0.083195  0  3.905661  0
C  C91  1  0.73276695  0.39474743  0.44385909  1  0  0.069572  0  3.681693  0  0  0.083488  0  3.921794  0  0  0.084133  0  3.945514  0  -0.002131  0  -0.003771  0.083235  0  3.90559  0
C  C92  1  0.26723414  0.89474809  0.05614230  1  0  0.069601  0  3.681649  0  0  0.083559  0  3.921736  0  0  0.084205  0  3.945457  0  -0.002662  0  -0.003776  0.083305  0  3.905534  0
C  C93  1  0.26723271  0.10525250  0.94385770  1  0  0.069543  0  3.681747  0  0  0.08347  0  3.921813  0  0  0.084115  0  3.945535  0  -0.002151  0  -0.003798  0.083216  0  3.905611  0
C  C94  1  0.74567606  0.66208735  0.63721651  1  0  0.085072  0  3.755601  0  0  0.104307  0  3.996473  0  0  0.102493  0  4.022368  0  -0.023481  0  -0.018993  0.105377  0  3.978943  0
C  C95  1  0.74567750  0.33791324  0.36278349  1  0  0.085041  0  3.755535  0  0  0.104264  0  3.996411  0  0  0.102451  0  4.022307  0  -0.023483  0  -0.019025  0.105334  0  3.978883  0
C  C96  1  0.25432359  0.83791461  0.13721651  1  0  0.085043  0  3.755527  0  0  0.104244  0  3.996407  0  0  0.102431  0  4.0223  0  -0.022973  0  -0.01899  0.105314  0  3.97888  0
C  C97  1  0.25432073  0.16208670  0.86278419  1  0  0.084984  0  3.755594  0  0  0.104223  0  3.996435  0  0  0.102409  0  4.022328  0  -0.02349  0  -0.019027  0.105293  0  3.978907  0
C  C98  1  0.89300406  0.64497153  0.70013897  1  0  -0.142887  0  3.742246  0  0  -0.171855  0  3.991477  0  0  -0.173307  0  4.012872  0  -0.073628  0  -0.095919  -0.17071  0  3.976924  0
C  C99  1  0.89300263  0.35502905  0.29985964  1  0  -0.142886  0  3.742247  0  0  -0.171868  0  3.991492  0  0  -0.17332  0  4.012886  0  -0.073646  0  -0.095934  -0.170722  0  3.976937  0
C  C100  1  0.10699703  0.85502898  0.20014036  1  0  -0.142932  0  3.742234  0  0  -0.1719  0  3.991477  0  0  -0.173351  0  4.012869  0  -0.073631  0  -0.095961  -0.170756  0  3.976925  0
C  C101  1  0.10699417  0.14497160  0.79986034  1  0  -0.142843  0  3.742203  0  0  -0.171816  0  3.991413  0  0  -0.173267  0  4.012807  0  -0.073615  0  -0.09593  -0.170674  0  3.976863  0
C  C102  1  0.60613993  0.74201326  0.65377154  1  0  -0.330711  0  3.758702  0  0  -0.409524  0  3.992886  0  0  -0.411578  0  4.004068  0  -0.049444  0  -0.248916  -0.407814  0  3.985152  0
C  C103  1  0.60614136  0.25798661  0.34622777  1  0  -0.330655  0  3.758636  0  0  -0.40947  0  3.992823  0  0  -0.411524  0  4.004003  0  -0.049451  0  -0.248894  -0.40776  0  3.985087  0
C  C104  1  0.39385973  0.75798726  0.15377293  1  0  -0.330643  0  3.758635  0  0  -0.409453  0  3.992803  0  0  -0.411504  0  4.003984  0  -0.049447  0  -0.248898  -0.407745  0  3.985069  0
C  C105  1  0.39385973  0.24201261  0.84622638  1  0  -0.330592  0  3.7585  0  0  -0.409428  0  3.992682  0  0  -0.411475  0  4.003868  0  -0.049447  0  -0.248895  -0.407718  0  3.984948  0
C  C106  1  0.58179216  0.62713204  0.48498888  1  0  -0.323516  0  3.717789  0  0  -0.404133  0  3.955792  0  0  -0.40612  0  3.96474  0  -0.039005  0  -0.239987  -0.402477  0  3.949431  0
C  C107  1  0.58179073  0.37286711  0.51500973  1  0  -0.323594  0  3.717744  0  0  -0.404209  0  3.955734  0  0  -0.406203  0  3.964677  0  -0.03901  0  -0.240011  -0.402553  0  3.949374  0
C  C108  1  0.41820893  0.87286704  0.98498958  1  0  -0.323583  0  3.717708  0  0  -0.404205  0  3.955697  0  0  -0.406204  0  3.964633  0  -0.039024  0  -0.240011  -0.40255  0  3.949338  0
C  C109  1  0.41820893  0.12713283  0.01500903  1  0  -0.323557  0  3.717671  0  0  -0.404171  0  3.955665  0  0  -0.406169  0  3.964603  0  -0.039001  0  -0.240009  -0.402515  0  3.949305  0
C  C110  1  0.08336516  0.35170974  0.63227140  1  0  -0.077708  0  3.638111  0  0  -0.173312  0  3.904191  0  0  -0.167061  0  3.906402  0  0.33452  0  -0.146855  -0.177273  0  3.90255  0
C  C111  1  0.08336516  0.64829156  0.36773207  1  0  -0.077751  0  3.638236  0  0  -0.173287  0  3.904319  0  0  -0.167034  0  3.90653  0  0.334381  0  -0.146811  -0.177262  0  3.902671  0
C  C112  1  0.91663736  0.14829163  0.13226793  1  0  -0.077698  0  3.638162  0  0  -0.173224  0  3.904248  0  0  -0.166973  0  3.906459  0  0.33442  0  -0.146806  -0.177204  0  3.902599  0
C  C113  1  0.91663736  0.85170896  0.86773207  1  0  -0.077764  0  3.638204  0  0  -0.173267  0  3.9043  0  0  -0.167016  0  3.906511  0  0.334388  0  -0.146823  -0.177246  0  3.902649  0
I  I114  1  0.89024498  0.65301878  0.07902654  1  0  -0.465952  0  1.032641  0  0  -0.40413  0  1.34618  0  0  -0.423367  0  1.327242  0  -0.49221  0  -0.218851  -0.390626  0  1.358844  0
I  I115  1  0.89024784  0.34698037  0.92097276  1  0  -0.465956  0  1.032642  0  0  -0.404135  0  1.346189  0  0  -0.423361  0  1.327234  0  -0.492229  0  -0.218857  -0.390633  0  1.358853  0
I  I116  1  0.10975325  0.84698031  0.57902724  1  0  -0.465967  0  1.03265  0  0  -0.404152  0  1.346202  0  0  -0.423375  0  1.327238  0  -0.492236  0  -0.218861  -0.390649  0  1.358865  0
I  I117  1  0.10975754  0.15301956  0.42097346  1  0  -0.465963  0  1.032654  0  0  -0.40413  0  1.346177  0  0  -0.423362  0  1.32723  0  -0.492221  0  -0.218847  -0.390627  0  1.358841  0
N  N118  1  0.48078148  0.54011566  0.88875486  1  0  -0.324677  0  3.286449  0  0  -0.240271  0  3.545894  0  0  -0.260497  0  3.564908  0  -1.268693  0  -0.346097  -0.226683  0  3.532709  0
N  N119  1  0.48077862  0.45988277  0.11124166  1  0  -0.324927  0  3.286563  0  0  -0.24052  0  3.546049  0  0  -0.260739  0  3.565045  0  -1.268635  0  -0.34621  -0.226931  0  3.532866  0
N  N120  1  0.51922104  0.95988342  0.38875903  1  0  -0.324921  0  3.286588  0  0  -0.24051  0  3.546082  0  0  -0.260729  0  3.565081  0  -1.268571  0  -0.346261  -0.226921  0  3.532899  0
N  N121  1  0.51921817  0.04011573  0.61124305  1  0  -0.32477  0  3.286455  0  0  -0.240356  0  3.545909  0  0  -0.260576  0  3.564914  0  -1.268663  0  -0.346145  -0.226767  0  3.532724  0
O  O122  1  0.14013176  0.44113958  0.59082198  1  0  -0.27832  0  2.345675  0  0  -0.203102  0  2.586353  0  0  -0.218656  0  2.589537  0  -1.077496  0  -0.203103  -0.192214  0  2.583896  0
O  O123  1  0.14013176  0.55885814  0.40918010  1  0  -0.278334  0  2.345714  0  0  -0.203132  0  2.58638  0  0  -0.218688  0  2.589563  0  -1.077328  0  -0.203092  -0.192205  0  2.583897  0
O  O124  1  0.85986790  0.05885964  0.09082059  1  0  -0.278333  0  2.345642  0  0  -0.203168  0  2.586336  0  0  -0.218725  0  2.589524  0  -1.077386  0  -0.203098  -0.192225  0  2.583844  0
O  O125  1  0.85986646  0.94114167  0.90918010  1  0  -0.278285  0  2.345653  0  0  -0.203135  0  2.586346  0  0  -0.218689  0  2.58953  0  -1.077308  0  -0.203079  -0.192194  0  2.583855  0
