# generated using pymatgen
data_ZnH15C20N3O5
_symmetry_space_group_name_H-M   'P 1'
_cell_length_a   10.12712848
_cell_length_b   18.85546879
_cell_length_c   18.85547902
_cell_angle_alpha   120.00072200
_cell_angle_beta   89.99945927
_cell_angle_gamma   89.99986072
_symmetry_Int_Tables_number   1
_chemical_formula_structural   ZnH15C20N3O5
_chemical_formula_sum   'Zn6 H90 C120 N18 O30'
_cell_volume   3118.09035837
_cell_formula_units_Z   6
loop_
 _symmetry_equiv_pos_site_id
 _symmetry_equiv_pos_as_xyz
  1  'x, y, z'
loop_
 _atom_site_type_symbol
 _atom_site_label
 _atom_site_symmetry_multiplicity
 _atom_site_fract_x
 _atom_site_fract_y
 _atom_site_fract_z
 _atom_site_occupancy
 _atom_site_pbe_bader_charge
 _atom_site_pbe_bader_spin_density
 _atom_site_pbe_cm5_charge
 _atom_site_pbe_ddec_charge
 _atom_site_pbe_ddec_spin_density
 _atom_site_pbe_ddec_sum_bond_order
 _atom_site_pbe_magmom
Zn  Zn0  1  0.11982798  0.52706517  0.05163838  1  1.306719  0  0.672498  0.838853  0  2.402633  0
Zn  Zn1  1  0.11981934  0.52457717  0.47293005  1  1.304423  0  0.672512  0.838787  0  2.402735  0
Zn  Zn2  1  0.11982428  0.94836221  0.47541974  1  1.305478  0  0.672569  0.838938  0  2.40251  0
Zn  Zn3  1  0.88017494  0.47293992  0.94836203  1  1.306464  0  0.672494  0.838856  0  2.402571  0
Zn  Zn4  1  0.88017173  0.47542741  0.52706556  1  1.304739  0  0.67251  0.838898  0  2.402454  0
Zn  Zn5  1  0.88017863  0.05164045  0.52457885  1  1.305093  0  0.672411  0.838752  0  2.402854  0
H  H6  1  0.39419694  0.57844878  0.04181172  1  0.12175  0  0.123217  0.099966  0  0.991552  0
H  H7  1  0.39418596  0.46336137  0.42154957  1  0.12826  0  0.123216  0.099985  0  0.991494  0
H  H8  1  0.39418284  0.95819320  0.53663874  1  0.137275  0  0.123227  0.099963  0  0.99159  0
H  H9  1  0.60581289  0.42154906  0.95819063  1  0.121826  0  0.123183  0.099861  0  0.991582  0
H  H10  1  0.60580511  0.53663947  0.57844660  1  0.128221  0  0.123195  0.099931  0  0.991573  0
H  H11  1  0.60581317  0.04180776  0.46336367  1  0.137241  0  0.123225  0.099955  0  0.991548  0
H  H12  1  0.61621786  0.58232941  0.10385287  1  0.140436  0  0.109248  0.124102  0  1.02989  0
H  H13  1  0.61621128  0.52151921  0.41766802  1  0.131357  0  0.10923  0.124113  0  1.029959  0
H  H14  1  0.61620595  0.89614899  0.47847746  1  0.145755  0  0.109275  0.124151  0  1.029923  0
H  H15  1  0.38378407  0.41766774  0.89615124  1  0.140367  0  0.109292  0.124175  0  1.029933  0
H  H16  1  0.38378373  0.47848225  0.58232753  1  0.131277  0  0.109277  0.124204  0  1.029988  0
H  H17  1  0.38379104  0.10384714  0.52151706  1  0.145499  0  0.109249  0.124164  0  1.029884  0
H  H18  1  0.62738987  0.55148867  0.21913034  1  0.082756  0  0.112491  0.110868  0  0.982656  0
H  H19  1  0.62739154  0.66763888  0.44851321  1  0.099261  0  0.112506  0.110956  0  0.9827  0
H  H20  1  0.62738441  0.78087174  0.33236564  1  0.114705  0  0.112446  0.110822  0  0.982757  0
H  H21  1  0.37259922  0.44851219  0.78087748  1  0.082801  0  0.112464  0.110875  0  0.982667  0
H  H22  1  0.37259755  0.33237053  0.55149030  1  0.099083  0  0.112478  0.110889  0  0.982739  0
H  H23  1  0.37259777  0.21912641  0.66763641  1  0.114322  0  0.112455  0.110838  0  0.982714  0
H  H24  1  0.41693500  0.51798665  0.26696174  1  0.088722  0  0.106741  0.110182  0  1.013461  0
H  H25  1  0.41693851  0.74897699  0.48202182  1  0.086519  0  0.106704  0.110179  0  1.013517  0
H  H26  1  0.41692775  0.73303263  0.25102523  1  0.095634  0  0.106728  0.110119  0  1.01347  0
H  H27  1  0.58304520  0.48201931  0.73304628  1  0.088674  0  0.106711  0.110253  0  1.013473  0
H  H28  1  0.58305946  0.25102573  0.51797990  1  0.086506  0  0.106709  0.110209  0  1.013526  0
H  H29  1  0.58305641  0.26696148  0.74897767  1  0.095421  0  0.106691  0.110178  0  1.01344  0
H  H30  1  0.20478666  0.51389324  0.19573011  1  0.105449  0  0.124281  0.10054  0  0.993817  0
H  H31  1  0.20478866  0.68183613  0.48611848  1  0.113044  0  0.124307  0.100531  0  0.993791  0
H  H32  1  0.20478789  0.80426649  0.31815936  1  0.111845  0  0.12429  0.100544  0  0.993859  0
H  H33  1  0.79519453  0.48612161  0.80428068  1  0.106246  0  0.124357  0.100658  0  0.993767  0
H  H34  1  0.79519846  0.31816026  0.51388426  1  0.113522  0  0.124331  0.100572  0  0.993786  0
H  H35  1  0.79519824  0.19572943  0.68184597  1  0.112018  0  0.124295  0.100567  0  0.993783  0
H  H36  1  0.00278097  0.00521718  0.29855345  1  0.083877  0  0.103581  0.106796  0  1.007707  0
H  H37  1  0.00276235  0.29333328  0.99478165  1  0.08961  0  0.103652  0.106825  0  1.007576  0
H  H38  1  0.00276297  0.70144981  0.70666592  1  0.076439  0  0.103651  0.106838  0  1.007637  0
H  H39  1  0.99724465  0.99476548  0.70143862  1  0.083934  0  0.103613  0.106866  0  1.007465  0
H  H40  1  0.99724649  0.70666717  0.00521596  1  0.089546  0  0.10366  0.106866  0  1.007529  0
H  H41  1  0.99724192  0.29854671  0.29332715  1  0.076509  0  0.103623  0.106851  0  1.007522  0
H  H42  1  0.96858595  0.11150143  0.25911447  1  0.054827  0  0.094377  0.088596  0  1.049045  0
H  H43  1  0.96859218  0.14759962  0.88849045  1  0.068261  0  0.094357  0.088605  0  1.048975  0
H  H44  1  0.96858523  0.74089309  0.85240287  1  0.069621  0  0.09433  0.088524  0  1.049022  0
H  H45  1  0.03140117  0.88848008  0.74089361  1  0.05463  0  0.094313  0.088618  0  1.049092  0
H  H46  1  0.03140678  0.85240126  0.11151310  1  0.068194  0  0.094319  0.08857  0  1.049016  0
H  H47  1  0.03139892  0.25911010  0.14759625  1  0.070017  0  0.094337  0.088582  0  1.049092  0
H  H48  1  0.11845145  0.11943892  0.15954864  1  0.068614  0  0.094771  0.090092  0  1.035604  0
H  H49  1  0.11846800  0.04011047  0.88055303  1  0.078568  0  0.094762  0.090091  0  1.035647  0
H  H50  1  0.11845660  0.84045156  0.95988797  1  0.067936  0  0.094749  0.09014  0  1.035753  0
H  H51  1  0.88153764  0.88057134  0.84046675  1  0.068306  0  0.094789  0.090169  0  1.035575  0
H  H52  1  0.88153393  0.95988906  0.11944551  1  0.078546  0  0.094747  0.090093  0  1.03573  0
H  H53  1  0.88152261  0.15954875  0.04010767  1  0.067923  0  0.094749  0.090046  0  1.035591  0
H  H54  1  0.30685112  0.02056344  0.09941907  1  0.061205  0  0.099316  0.103785  0  1.006001  0
H  H55  1  0.30684917  0.07885198  0.97942700  1  0.060983  0  0.099352  0.103777  0  1.006096  0
H  H56  1  0.30684486  0.90058715  0.92115427  1  0.068266  0  0.099322  0.103774  0  1.005978  0
H  H57  1  0.69315970  0.97945254  0.90059591  1  0.061528  0  0.09938  0.10386  0  1.005878  0
H  H58  1  0.69314289  0.92114758  0.02056727  1  0.060988  0  0.099294  0.103738  0  1.006097  0
H  H59  1  0.69314324  0.09941645  0.07885506  1  0.068292  0  0.099322  0.103867  0  1.005966  0
H  H60  1  0.19042000  0.90772864  0.23970156  1  0.072565  0  0.107328  0.116741  0  0.992005  0
H  H61  1  0.19040384  0.33197282  0.09227570  1  0.077201  0  0.107349  0.11682  0  0.99194  0
H  H62  1  0.19040472  0.76030349  0.66803250  1  0.076551  0  0.10731  0.11677  0  0.992051  0
H  H63  1  0.80961056  0.09226512  0.76029427  1  0.073328  0  0.107265  0.116703  0  0.992065  0
H  H64  1  0.80960401  0.66803149  0.90772761  1  0.077308  0  0.107334  0.116838  0  0.992004  0
H  H65  1  0.80961893  0.23969312  0.33197108  1  0.076769  0  0.107325  0.116818  0  0.991979  0
H  H66  1  0.53145811  0.79514112  0.08109905  1  0.529103  0  0.304301  0.280215  0  1.006705  0
H  H67  1  0.53145225  0.28595245  0.20485982  1  0.517423  0  0.304273  0.28023  0  1.006553  0
H  H68  1  0.53145029  0.91891060  0.71404514  1  0.524529  0  0.304252  0.2802  0  1.00662  0
H  H69  1  0.46855567  0.20486333  0.91890623  1  0.529007  0  0.304271  0.280193  0  1.00668  0
H  H70  1  0.46855560  0.71404449  0.79513919  1  0.517378  0  0.304297  0.280213  0  1.006639  0
H  H71  1  0.46855954  0.08109683  0.28595823  1  0.524496  0  0.304317  0.280232  0  1.006683  0
H  H72  1  0.34705035  0.84593076  0.07992858  1  0.46251  0  0.320317  0.289728  0  0.929057  0
H  H73  1  0.34703035  0.23399901  0.15406650  1  0.46822  0  0.320334  0.289727  0  0.928892  0
H  H74  1  0.34703131  0.92007370  0.76600892  1  0.471249  0  0.320298  0.289702  0  0.929022  0
H  H75  1  0.65295454  0.15406504  0.92007051  1  0.462338  0  0.320334  0.289688  0  0.929102  0
H  H76  1  0.65297652  0.76599096  0.84592676  1  0.468257  0  0.320245  0.289633  0  0.928934  0
H  H77  1  0.65294790  0.07993004  0.23400239  1  0.471184  0  0.320309  0.289659  0  0.929122  0
H  H78  1  0.67124533  0.69813526  0.07080240  1  0.12406  0  0.10822  0.122016  0  1.011471  0
H  H79  1  0.67125193  0.37265118  0.30185634  1  0.106402  0  0.108184  0.121996  0  1.01147  0
H  H80  1  0.67124485  0.92920664  0.62733672  1  0.116212  0  0.108261  0.122066  0  1.0114  0
H  H81  1  0.32876944  0.30186966  0.92920030  1  0.123985  0  0.108233  0.122028  0  1.011516  0
H  H82  1  0.32876382  0.62733661  0.69813167  1  0.105659  0  0.108257  0.122026  0  1.011574  0
H  H83  1  0.32875510  0.07079714  0.37266606  1  0.116126  0  0.108255  0.122048  0  1.011491  0
H  H84  1  0.68085668  0.93888706  0.28580541  1  0.149924  0  0.102579  0.123864  0  1.046417  0
H  H85  1  0.68086098  0.34690696  0.06110215  1  0.111778  0  0.102577  0.123953  0  1.046351  0
H  H86  1  0.68086778  0.71420409  0.65308799  1  0.129052  0  0.102573  0.123923  0  1.046421  0
H  H87  1  0.31915315  0.06112656  0.71419495  1  0.149967  0  0.102581  0.123801  0  1.046568  0
H  H88  1  0.31914095  0.65306352  0.93887346  1  0.111916  0  0.102524  0.123761  0  1.046467  0
H  H89  1  0.31914798  0.28579811  0.34692485  1  0.128888  0  0.102476  0.123782  0  1.046436  0
H  H90  1  0.97972297  0.76111630  0.24871328  1  0.093371  0  0.103192  0.114652  0  1.020912  0
H  H91  1  0.97972368  0.48758168  0.23887337  1  0.093864  0  0.103252  0.114672  0  1.020946  0
H  H92  1  0.97973055  0.75129695  0.51241378  1  0.07445  0  0.103189  0.114611  0  1.020965  0
H  H93  1  0.02028982  0.23890323  0.75129178  1  0.093735  0  0.103139  0.114653  0  1.020861  0
H  H94  1  0.02028615  0.51239293  0.76110023  1  0.093786  0  0.103154  0.114653  0  1.020905  0
H  H95  1  0.02026546  0.24870695  0.48759524  1  0.074353  0  0.103151  0.114553  0  1.020856  0
C  C96  1  0.40496463  0.56578436  0.09202842  1  0.415903  0  0.053162  0.088189  0  3.910926  0
C  C97  1  0.40496072  0.52624348  0.43421235  1  0.412168  0  0.053109  0.088064  0  3.910865  0
C  C98  1  0.40495556  0.90797362  0.47375671  1  0.359934  0  0.053073  0.087973  0  3.910785  0
C  C99  1  0.59503927  0.43421265  0.90797371  1  0.41551  0  0.05326  0.08842  0  3.910717  0
C  C100  1  0.59503726  0.47375689  0.56578640  1  0.412241  0  0.053149  0.088221  0  3.910912  0
C  C101  1  0.59503748  0.09202933  0.52624584  1  0.35997  0  0.05301  0.088045  0  3.91092  0
C  C102  1  0.52722800  0.56835812  0.12717276  1  -0.019841  0  -0.079646  -0.129758  0  3.952321  0
C  C103  1  0.52721843  0.55880300  0.43163627  1  0.002632  0  -0.079671  -0.129758  0  3.952331  0
C  C104  1  0.52720677  0.87283083  0.44119563  1  0.031939  0  -0.079683  -0.129728  0  3.952443  0
C  C105  1  0.47277196  0.43163158  0.87282819  1  -0.019598  0  -0.079747  -0.129978  0  3.952286  0
C  C106  1  0.47277560  0.44120078  0.56836651  1  0.002671  0  -0.079782  -0.129974  0  3.952494  0
C  C107  1  0.47278331  0.12716520  0.55880430  1  0.031471  0  -0.079654  -0.129889  0  3.952584  0
C  C108  1  0.53306625  0.55104456  0.19100374  1  -0.023318  0  -0.058416  -0.016429  0  3.943315  0
C  C109  1  0.53307266  0.63995599  0.44895337  1  -0.052116  0  -0.05845  -0.016616  0  3.943135  0
C  C110  1  0.53306023  0.80899600  0.36004601  1  -0.101865  0  -0.058361  -0.01641  0  3.943248  0
C  C111  1  0.46692087  0.44895462  0.80900364  1  -0.023104  0  -0.05836  -0.01633  0  3.943202  0
C  C112  1  0.46692137  0.36004840  0.55104880  1  -0.052217  0  -0.058359  -0.016443  0  3.943171  0
C  C113  1  0.46692294  0.19100237  0.63995687  1  -0.101066  0  -0.058394  -0.016345  0  3.943152  0
C  C114  1  0.41659968  0.53201899  0.21749320  1  -0.015264  0  -0.081363  -0.128882  0  3.983948  0
C  C115  1  0.41660799  0.68547184  0.46798151  1  -0.040598  0  -0.081309  -0.128794  0  3.983952  0
C  C116  1  0.41660418  0.78250450  0.31452762  1  0.001765  0  -0.081278  -0.128678  0  3.98363  0
C  C117  1  0.58338349  0.46798326  0.78251111  1  -0.015639  0  -0.081424  -0.129064  0  3.983976  0
C  C118  1  0.58338308  0.31453133  0.53202188  1  -0.04076  0  -0.081317  -0.128869  0  3.983848  0
C  C119  1  0.58337701  0.21749351  0.68547245  1  0.001732  0  -0.081278  -0.128875  0  3.98365  0
C  C120  1  0.29843227  0.52996269  0.17878288  1  0.468234  0  0.05287  0.089332  0  3.919629  0
C  C121  1  0.29843734  0.64881922  0.47003658  1  0.476156  0  0.052919  0.089337  0  3.919929  0
C  C122  1  0.29842911  0.82121677  0.35118177  1  0.464368  0  0.052885  0.08922  0  3.919885  0
C  C123  1  0.70154991  0.47004315  0.82121890  1  0.467535  0  0.052837  0.0892  0  3.919576  0
C  C124  1  0.70155570  0.35118473  0.52996391  1  0.476192  0  0.052871  0.089332  0  3.919877  0
C  C125  1  0.70155505  0.17878188  0.64882507  1  0.464334  0  0.052905  0.089251  0  3.919568  0
C  C126  1  0.06881389  0.00834109  0.25457690  1  -0.061832  0  -0.084475  -0.059623  0  3.984471  0
C  C127  1  0.06880983  0.24623372  0.99165184  1  -0.058148  0  -0.084558  -0.059633  0  3.983987  0
C  C128  1  0.06880586  0.74541980  0.75376820  1  -0.039176  0  -0.084636  -0.059817  0  3.983777  0
C  C129  1  0.93119100  0.99164098  0.74541152  1  -0.062493  0  -0.084599  -0.059828  0  3.9836  0
C  C130  1  0.93119407  0.75377043  0.00835375  1  -0.059685  0  -0.08459  -0.059774  0  3.983616  0
C  C131  1  0.93119903  0.25457519  0.24622640  1  -0.038467  0  -0.084592  -0.059852  0  3.983756  0
C  C132  1  0.04916179  0.06780890  0.23225962  1  -0.027191  0  -0.089909  -0.08182  0  3.994504  0
C  C133  1  0.04917319  0.16444002  0.93218115  1  -0.025201  0  -0.089849  -0.081742  0  3.99429  0
C  C134  1  0.04917070  0.76774549  0.83556523  1  -0.062526  0  -0.089749  -0.081486  0  3.994212  0
C  C135  1  0.95082829  0.93217388  0.76773870  1  -0.027591  0  -0.08976  -0.081694  0  3.994149  0
C  C136  1  0.95082479  0.83556566  0.06782291  1  -0.024993  0  -0.089759  -0.081586  0  3.994117  0
C  C137  1  0.95082629  0.23225611  0.16443231  1  -0.063242  0  -0.089664  -0.081467  0  3.994012  0
C  C138  1  0.13413206  0.07264134  0.17649873  1  -0.060115  0  -0.09101  -0.066896  0  4.004514  0
C  C139  1  0.13414316  0.10385669  0.92734877  1  -0.059072  0  -0.090963  -0.066826  0  4.004504  0
C  C140  1  0.13413391  0.82349654  0.89614610  1  -0.030354  0  -0.091015  -0.067061  0  4.004795  0
C  C141  1  0.86586691  0.92735644  0.82350050  1  -0.062815  0  -0.090973  -0.066846  0  4.004707  0
C  C142  1  0.86585186  0.89614709  0.07265400  1  -0.058935  0  -0.091011  -0.06691  0  4.004663  0
C  C143  1  0.86584827  0.17650405  0.10385349  1  -0.029908  0  -0.090947  -0.066615  0  4.004551  0
C  C144  1  0.23881270  0.01751743  0.14264311  1  0.008975  0  -0.094161  -0.16776  0  3.981643  0
C  C145  1  0.23881593  0.12513076  0.98248131  1  -0.005096  0  -0.094229  -0.167916  0  3.981474  0
C  C146  1  0.23882312  0.85735255  0.87487373  1  0.000343  0  -0.09415  -0.167745  0  3.981083  0
C  C147  1  0.76119120  0.98249000  0.85736025  1  0.012412  0  -0.094269  -0.168023  0  3.981467  0
C  C148  1  0.76117514  0.87486831  0.01751982  1  -0.005339  0  -0.094132  -0.167806  0  3.981348  0
C  C149  1  0.76118177  0.14264376  0.12513015  1  0.000281  0  -0.09426  -0.168264  0  3.981417  0
C  C150  1  0.25881407  0.95817984  0.16521957  1  0.279147  0  0.081193  0.222078  0  4.053258  0
C  C151  1  0.25880303  0.20704947  0.04182053  1  0.276197  0  0.08124  0.222316  0  4.053166  0
C  C152  1  0.25879994  0.83477512  0.79295295  1  0.283519  0  0.081134  0.222128  0  4.053172  0
C  C153  1  0.74119082  0.04182119  0.83477005  1  0.27871  0  0.081166  0.222167  0  4.053243  0
C  C154  1  0.74119100  0.79294588  0.95817689  1  0.276638  0  0.081176  0.222126  0  4.05312  0
C  C155  1  0.74120001  0.16522261  0.20705481  1  0.283284  0  0.081199  0.222302  0  4.053254  0
C  C156  1  0.17412719  0.95368109  0.22158974  1  0.001712  0  -0.085799  -0.16293  0  3.958608  0
C  C157  1  0.17411053  0.26791151  0.04631799  1  -0.020598  0  -0.085841  -0.163178  0  3.958827  0
C  C158  1  0.17412211  0.77840539  0.73209021  1  -0.018941  0  -0.085712  -0.162978  0  3.958773  0
C  C159  1  0.82588264  0.04631086  0.77840366  1  0.001658  0  -0.085773  -0.162967  0  3.95862  0
C  C160  1  0.82588547  0.73208946  0.95368442  1  -0.01977  0  -0.085839  -0.163141  0  3.95872  0
C  C161  1  0.82589562  0.22158554  0.26790951  1  -0.020573  0  -0.085871  -0.163178  0  3.958994  0
C  C162  1  0.89119697  0.63903199  0.10287623  1  1.565124  0  0.212511  0.588667  0  4.180627  0
C  C163  1  0.89118522  0.46384611  0.36096708  1  1.563636  0  0.212515  0.588696  0  4.180576  0
C  C164  1  0.89119949  0.89712805  0.53615397  1  1.566602  0  0.212461  0.588539  0  4.180806  0
C  C165  1  0.10881582  0.36097589  0.89712881  1  1.565772  0  0.212415  0.58837  0  4.181002  0
C  C166  1  0.10880782  0.53616397  0.63902302  1  1.563705  0  0.212354  0.588242  0  4.181019  0
C  C167  1  0.10881725  0.10287649  0.46385018  1  1.567101  0  0.21257  0.58878  0  4.180828  0
C  C168  1  0.82954311  0.72119673  0.15551878  1  -0.007052  0  -0.024147  -0.030007  0  4.0323  0
C  C169  1  0.82955353  0.43430156  0.27879050  1  -0.015117  0  -0.024098  -0.029927  0  4.032452  0
C  C170  1  0.82954909  0.84448870  0.56568500  1  -0.041995  0  -0.024085  -0.029876  0  4.032262  0
C  C171  1  0.17047462  0.27881622  0.84449073  1  -0.008034  0  -0.02408  -0.029863  0  4.03217  0
C  C172  1  0.17046814  0.56568696  0.72118723  1  -0.015115  0  -0.023953  -0.029775  0  4.032051  0
C  C173  1  0.17045876  0.15551461  0.43432037  1  -0.043587  0  -0.024186  -0.030109  0  4.032452  0
C  C174  1  0.71565514  0.74255474  0.12897677  1  -0.022924  0  -0.087189  -0.196835  0  3.934169  0
C  C175  1  0.71566765  0.38640494  0.25743822  1  -0.01641  0  -0.087233  -0.196952  0  3.934504  0
C  C176  1  0.71566046  0.87103175  0.61358234  1  -0.013583  0  -0.08732  -0.197089  0  3.934453  0
C  C177  1  0.28436457  0.25745299  0.87102629  1  -0.022566  0  -0.087241  -0.196852  0  3.93422  0
C  C178  1  0.28434613  0.61358848  0.74255053  1  -0.01601  0  -0.087307  -0.196969  0  3.93441  0
C  C179  1  0.28434641  0.12896966  0.38642175  1  -0.011782  0  -0.087247  -0.196961  0  3.934477  0
C  C180  1  0.66270174  0.82170429  0.17434981  1  0.351371  0  0.097816  0.256657  0  4.04739  0
C  C181  1  0.66270375  0.35263149  0.17829080  1  0.339974  0  0.097912  0.256915  0  4.047611  0
C  C182  1  0.66270349  0.82566390  0.64735902  1  0.321671  0  0.097825  0.256871  0  4.04713  0
C  C183  1  0.33730513  0.17830588  0.82565507  1  0.352561  0  0.097887  0.256686  0  4.046924  0
C  C184  1  0.33730213  0.64735401  0.82169737  1  0.340025  0  0.097879  0.256864  0  4.047022  0
C  C185  1  0.33729251  0.17434236  0.35264869  1  0.321178  0  0.097852  0.256865  0  4.046966  0
C  C186  1  0.72179767  0.87800821  0.24877925  1  -0.017484  0  -0.09334  -0.200378  0  3.928108  0
C  C187  1  0.72179697  0.37074821  0.12197964  1  0.011388  0  -0.093366  -0.200594  0  3.928597  0
C  C188  1  0.72179757  0.75123321  0.62923905  1  0.04976  0  -0.093295  -0.200349  0  3.928153  0
C  C189  1  0.27821710  0.12199902  0.75121902  1  -0.01825  0  -0.093501  -0.200367  0  3.927728  0
C  C190  1  0.27820298  0.62922743  0.87799929  1  0.045708  0  -0.09335  -0.200316  0  3.928082  0
C  C191  1  0.27819745  0.24877002  0.37076746  1  0.050414  0  -0.093219  -0.20019  0  3.928088  0
C  C192  1  0.83488877  0.85543230  0.27534163  1  -0.062479  0  -0.02398  -0.031122  0  4.032221  0
C  C193  1  0.83488103  0.41988732  0.14455666  1  -0.074142  0  -0.02395  -0.031269  0  4.032494  0
C  C194  1  0.83488540  0.72466777  0.58009761  1  -0.077965  0  -0.02408  -0.031577  0  4.032552  0
C  C195  1  0.16511414  0.14457794  0.72466211  1  -0.062109  0  -0.023838  -0.031093  0  4.031932  0
C  C196  1  0.16511201  0.58009204  0.85542599  1  -0.108897  0  -0.023933  -0.031208  0  4.031994  0
C  C197  1  0.16510369  0.27533003  0.41989735  1  -0.078281  0  -0.023974  -0.031431  0  4.032516  0
C  C198  1  0.89039473  0.77782822  0.22861191  1  -0.036444  0  -0.090649  -0.132304  0  3.966524  0
C  C199  1  0.89039948  0.45076249  0.22215795  1  0.01739  0  -0.090772  -0.132254  0  3.966807  0
C  C200  1  0.89040081  0.77139383  0.54922358  1  0.011376  0  -0.090712  -0.132183  0  3.966375  0
C  C201  1  0.10962497  0.22218467  0.77139447  1  -0.036858  0  -0.090752  -0.132498  0  3.966346  0
C  C202  1  0.10961332  0.54921373  0.77781298  1  0.018045  0  -0.090849  -0.132547  0  3.966037  0
C  C203  1  0.10960112  0.22860705  0.45077997  1  0.011214  0  -0.09068  -0.132114  0  3.966258  0
C  C204  1  0.89666952  0.91524261  0.35524996  1  1.571515  0  0.212753  0.586337  0  4.187078  0
C  C205  1  0.89664236  0.43999774  0.08474664  1  1.558532  0  0.212811  0.586334  0  4.186754  0
C  C206  1  0.89663969  0.64475031  0.55999804  1  1.565997  0  0.21294  0.586701  0  4.186661  0
C  C207  1  0.10335414  0.08475205  0.64474921  1  1.571942  0  0.212928  0.586592  0  4.186916  0
C  C208  1  0.10334180  0.55999098  0.91523619  1  1.558828  0  0.212996  0.586844  0  4.186654  0
C  C209  1  0.10333953  0.35524914  0.44000164  1  1.566507  0  0.212909  0.586527  0  4.186796  0
C  C210  1  0.47584106  0.90783423  0.17586132  1  1.842361  0  0.331079  0.641302  0  4.192367  0
C  C211  1  0.47584324  0.26801310  0.09216129  1  1.828345  0  0.330978  0.641171  0  4.192689  0
C  C212  1  0.47583438  0.82414360  0.73197449  1  1.827374  0  0.330984  0.641194  0  4.192526  0
C  C213  1  0.52416679  0.09216496  0.82413013  1  1.843953  0  0.331109  0.641419  0  4.192374  0
C  C214  1  0.52416165  0.73197774  0.90783957  1  1.828192  0  0.331034  0.641325  0  4.192793  0
C  C215  1  0.52417150  0.17586291  0.26802980  1  1.82725  0  0.33104  0.641194  0  4.192572  0
N  N216  1  0.29265522  0.54649419  0.11705667  1  -1.237188  0  -0.321966  -0.213085  0  3.524336  0
N  N217  1  0.29264234  0.57056667  0.45350288  1  -1.229188  0  -0.321973  -0.212984  0  3.524497  0
N  N218  1  0.29263789  0.88293807  0.42943093  1  -1.23326  0  -0.321979  -0.212936  0  3.524436  0
N  N219  1  0.70734374  0.45350139  0.88294158  1  -1.237037  0  -0.321973  -0.213079  0  3.524297  0
N  N220  1  0.70735169  0.42943278  0.54649680  1  -1.229224  0  -0.321937  -0.213077  0  3.524552  0
N  N221  1  0.70735416  0.11706409  0.57057452  1  -1.232897  0  -0.321952  -0.212911  0  3.524093  0
N  N222  1  0.55174260  0.83838130  0.14118795  1  -1.31571  0  -0.410261  -0.437894  0  3.585705  0
N  N223  1  0.55174067  0.30279738  0.16161793  1  -1.297925  0  -0.410253  -0.437984  0  3.585785  0
N  N224  1  0.55174161  0.85882237  0.69719981  1  -1.307483  0  -0.41022  -0.437986  0  3.585605  0
N  N225  1  0.44826031  0.16162162  0.85881886  1  -1.315821  0  -0.410288  -0.438009  0  3.585372  0
N  N226  1  0.44826224  0.69720375  0.83838219  1  -1.297751  0  -0.410286  -0.438047  0  3.585568  0
N  N227  1  0.44826328  0.14118125  0.30280525  1  -1.307048  0  -0.410319  -0.437986  0  3.585258  0
N  N228  1  0.36577079  0.90144603  0.13014599  1  -1.240126  0  -0.424576  -0.474185  0  3.541805  0
N  N229  1  0.36575679  0.22870202  0.09855387  1  -1.247272  0  -0.424585  -0.474187  0  3.541821  0
N  N230  1  0.36576324  0.86985628  0.77130187  1  -1.254099  0  -0.424506  -0.474122  0  3.541778  0
N  N231  1  0.63424003  0.09855757  0.86984743  1  -1.24131  0  -0.42463  -0.474232  0  3.541755  0
N  N232  1  0.63424119  0.77128879  0.90143961  1  -1.246899  0  -0.424501  -0.474015  0  3.541532  0
N  N233  1  0.63424263  0.13014798  0.22870997  1  -1.253202  0  -0.424645  -0.474158  0  3.541982  0
O  O234  1  0.00846191  0.62937771  0.12083831  1  -1.173114  0  -0.320215  -0.543276  0  2.320327  0
O  O235  1  0.00844225  0.49146632  0.37061955  1  -1.168447  0  -0.320229  -0.543291  0  2.320353  0
O  O236  1  0.00844115  0.87916258  0.50853462  1  -1.173365  0  -0.320189  -0.543209  0  2.320681  0
O  O237  1  0.99156076  0.37063079  0.87916612  1  -1.173719  0  -0.320225  -0.543198  0  2.320435  0
O  O238  1  0.99154684  0.50857052  0.62938199  1  -1.168418  0  -0.320221  -0.543116  0  2.320779  0
O  O239  1  0.99155190  0.12084893  0.49147527  1  -1.173344  0  -0.320306  -0.543447  0  2.320043  0
O  O240  1  0.82808485  0.97747728  0.40389509  1  -1.173563  0  -0.318333  -0.549078  0  2.333539  0
O  O241  1  0.82805982  0.42641092  0.02252487  1  -1.169817  0  -0.318345  -0.549156  0  2.33376  0
O  O242  1  0.82804768  0.59611576  0.57357966  1  -1.172046  0  -0.318412  -0.549273  0  2.333694  0
O  O243  1  0.17191511  0.02253257  0.59611010  1  -1.174261  0  -0.318421  -0.549204  0  2.334124  0
O  O244  1  0.17192532  0.57357915  0.97746297  1  -1.169814  0  -0.318487  -0.549368  0  2.33355  0
O  O245  1  0.17192067  0.40388656  0.42641185  1  -1.172115  0  -0.318421  -0.549174  0  2.333588  0
O  O246  1  0.82190255  0.58593933  0.04357953  1  -1.173189  0  -0.318269  -0.559447  0  2.356785  0
O  O247  1  0.82189267  0.45762917  0.41405621  1  -1.175166  0  -0.318253  -0.55946  0  2.356563  0
O  O248  1  0.82188449  0.95643501  0.54237081  1  -1.171415  0  -0.318187  -0.55936  0  2.356338  0
O  O249  1  0.17812308  0.41406479  0.95643033  1  -1.17351  0  -0.318117  -0.559183  0  2.356748  0
O  O250  1  0.17812802  0.54236098  0.58593049  1  -1.175198  0  -0.318076  -0.559114  0  2.35653  0
O  O251  1  0.17810164  0.04357669  0.45763254  1  -1.171863  0  -0.3182  -0.559366  0  2.35723  0
O  O252  1  0.01323244  0.89891630  0.36830004  1  -1.183889  0  -0.316891  -0.558568  0  2.361905  0
O  O253  1  0.01323082  0.46936826  0.10106448  1  -1.179841  0  -0.317011  -0.558549  0  2.361436  0
O  O254  1  0.01323458  0.63169952  0.53063237  1  -1.180533  0  -0.316966  -0.558639  0  2.361456  0
O  O255  1  0.98675567  0.10107591  0.63170158  1  -1.183417  0  -0.316968  -0.558687  0  2.361246  0
O  O256  1  0.98676222  0.53063026  0.89892447  1  -1.180236  0  -0.316988  -0.558764  0  2.361579  0
O  O257  1  0.98676241  0.36830636  0.46937679  1  -1.180993  0  -0.316984  -0.558612  0  2.361643  0
O  O258  1  0.50185363  0.97138518  0.24204796  1  -1.200103  0  -0.313176  -0.553216  0  2.141701  0
O  O259  1  0.50185709  0.27065405  0.02861415  1  -1.187551  0  -0.313101  -0.553097  0  2.141888  0
O  O260  1  0.50185180  0.75795909  0.72933984  1  -1.190035  0  -0.313101  -0.553106  0  2.141755  0
O  O261  1  0.49814632  0.02862409  0.75795358  1  -1.200089  0  -0.313115  -0.553096  0  2.142118  0
O  O262  1  0.49814187  0.72934928  0.97138695  1  -1.187627  0  -0.313113  -0.553187  0  2.142112  0
O  O263  1  0.49815506  0.24204230  0.27066851  1  -1.190067  0  -0.313069  -0.553061  0  2.142058  0
