# generated using pymatgen
data_Cu2H5C6I2N5
_symmetry_space_group_name_H-M   'P 1'
_cell_length_a   4.11491365
_cell_length_b   9.54403179
_cell_length_c   13.57908896
_cell_angle_alpha   88.57978155
_cell_angle_beta   83.05737206
_cell_angle_gamma   77.63003211
_symmetry_Int_Tables_number   1
_chemical_formula_structural   Cu2H5C6I2N5
_chemical_formula_sum   'Cu4 H10 C12 I4 N10'
_cell_volume   517.08946014
_cell_formula_units_Z   2
loop_
 _symmetry_equiv_pos_site_id
 _symmetry_equiv_pos_as_xyz
  1  'x, y, z'
loop_
 _atom_site_type_symbol
 _atom_site_label
 _atom_site_symmetry_multiplicity
 _atom_site_fract_x
 _atom_site_fract_y
 _atom_site_fract_z
 _atom_site_occupancy
 _atom_site_pbe_bader_spin_density
 _atom_site_pbe_cm5_charge
 _atom_site_pbe_ddec_charge
 _atom_site_pbe_ddec_spin_density
 _atom_site_pbe_ddec_sum_bond_order
 _atom_site_pbe_magmom
Cu  Cu0  1  0.90874065  0.98531314  0.63775637  1  0  0.263021  0.200631  0  2.685852  0
Cu  Cu1  1  0.89497425  0.01479861  0.13802099  1  0  0.262979  0.200414  0  2.688592  0
Cu  Cu2  1  0.35784295  0.03385394  0.93554588  1  0  0.274377  0.233452  0  2.61972  0
Cu  Cu3  1  0.39019094  0.96595428  0.43540648  1  0  0.274463  0.233615  0  2.620208  0
H  H4  1  0.68807130  0.75947301  0.31157326  1  0  0.08931  0.10996  0  1.075779  0
H  H5  1  0.44950652  0.23997996  0.81157648  1  0  0.089702  0.110619  0  1.075041  0
H  H6  1  0.14915169  0.63728452  0.18612946  1  0  0.113502  0.102278  0  1.026332  0
H  H7  1  0.78945136  0.36236595  0.68646920  1  0  0.112963  0.101641  0  1.026644  0
H  H8  1  0.84788090  0.36867576  0.48614939  1  0  0.103805  0.130457  0  1.019793  0
H  H9  1  0.21469292  0.63173158  0.98600402  1  0  0.103541  0.130248  0  1.020183  0
H  H10  1  0.31349524  0.26401172  0.35514512  1  0  0.09767  0.087657  0  1.077543  0
H  H11  1  0.57665853  0.73652258  0.85538699  1  0  0.098236  0.089102  0  1.077062  0
H  H12  1  0.43797522  0.40068850  0.21438733  1  0  0.304769  0.234334  0  1.024769  0
H  H13  1  0.84008056  0.59942837  0.71482219  1  0  0.304891  0.23523  0  1.024389  0
C  C14  1  0.47546402  0.64038848  0.48883410  1  0  0.203944  0.213987  0  4.029476  0
C  C15  1  0.11595939  0.35948064  0.98867696  1  0  0.203029  0.21176  0  4.030686  0
C  C16  1  0.73337754  0.57464070  0.41107381  1  0  0.023533  0.090587  0  3.949297  0
C  C17  1  0.30819649  0.42529895  0.91098260  1  0  0.023639  0.09035  0  3.948831  0
C  C18  1  0.81902539  0.64992546  0.32452657  1  0  -0.081224  -0.153831  0  3.904022  0
C  C19  1  0.47001485  0.34981607  0.82451903  1  0  -0.082426  -0.154787  0  3.903072  0
C  C20  1  0.07260667  0.58394499  0.25405450  1  0  0.05948  0.104184  0  3.857916  0
C  C21  1  0.65872572  0.41580252  0.75433578  1  0  0.06063  0.106134  0  3.857371  0
C  C22  1  0.90697580  0.43203084  0.42137071  1  0  -0.074694  -0.147021  0  3.908834  0
C  C23  1  0.33855158  0.56814878  0.92138577  1  0  -0.075331  -0.14736  0  3.909016  0
C  C24  1  0.16221142  0.37195129  0.34942950  1  0  0.053207  0.101555  0  3.86207  0
C  C25  1  0.53369340  0.62840780  0.84954922  1  0  0.052802  0.101238  0  3.85998  0
I  I26  1  0.92680692  0.95837623  0.83007198  1  0  -0.178227  -0.332981  0  2.623112  0
I  I27  1  0.88427344  0.04182206  0.33027619  1  0  -0.178369  -0.333016  0  2.628052  0
I  I28  1  0.36352568  0.14464869  0.59093197  1  0  -0.179438  -0.317174  0  2.417836  0
I  I29  1  0.50783421  0.85544986  0.09091269  1  0  -0.179238  -0.316993  0  2.417337  0
N  N30  1  0.34189638  0.78273844  0.49969209  1  0  -0.266416  -0.191507  0  3.557958  0
N  N31  1  0.12584023  0.21705266  0.99985625  1  0  -0.265992  -0.190624  0  3.558597  0
N  N32  1  0.11732023  0.79384861  0.58115896  1  0  -0.157818  -0.012817  0  3.58414  0
N  N33  1  0.91181469  0.20601678  0.08116782  1  0  -0.157901  -0.01364  0  3.584611  0
N  N34  1  0.11490872  0.66272461  0.61784435  1  0  -0.092536  -0.066075  0  3.30528  0
N  N35  1  0.77661424  0.33731482  0.11746794  1  0  -0.090798  -0.062369  0  3.300876  0
N  N36  1  0.33668793  0.56575861  0.56223000  1  0  -0.213086  -0.258105  0  3.230244  0
N  N37  1  0.90106395  0.43427682  0.06174719  1  0  -0.213807  -0.25935  0  3.230381  0
N  N38  1  0.24072749  0.44838151  0.26829327  1  0  -0.342619  -0.129402  0  3.697377  0
N  N39  1  0.69026384  0.55167006  0.76859959  1  0  -0.343572  -0.132382  0  3.697435  0
