# generated using pymatgen
data_ZnH14C18(NO)4
_symmetry_space_group_name_H-M   'P 1'
_cell_length_a   7.48162767
_cell_length_b   10.51884191
_cell_length_c   11.70010250
_cell_angle_alpha   70.34130969
_cell_angle_beta   85.72896434
_cell_angle_gamma   72.64552551
_symmetry_Int_Tables_number   1
_chemical_formula_structural   ZnH14C18(NO)4
_chemical_formula_sum   'Zn2 H28 C36 N8 O8'
_cell_volume   827.29077029
_cell_formula_units_Z   2
loop_
 _symmetry_equiv_pos_site_id
 _symmetry_equiv_pos_as_xyz
  1  'x, y, z'
loop_
 _atom_site_type_symbol
 _atom_site_label
 _atom_site_symmetry_multiplicity
 _atom_site_fract_x
 _atom_site_fract_y
 _atom_site_fract_z
 _atom_site_occupancy
 _atom_site_hle17_bader_spin_density
 _atom_site_hle17_ddec_charge
 _atom_site_hle17_ddec_spin_density
 _atom_site_hle17_ddec_sum_bond_order
 _atom_site_hle17_magmom
 _atom_site_hse06_10hf_bader_spin_density
 _atom_site_hse06_10hf_ddec_charge
 _atom_site_hse06_10hf_ddec_spin_density
 _atom_site_hse06_10hf_ddec_sum_bond_order
 _atom_site_hse06_10hf_magmom
 _atom_site_hse06_bader_spin_density
 _atom_site_hse06_ddec_charge
 _atom_site_hse06_ddec_spin_density
 _atom_site_hse06_ddec_sum_bond_order
 _atom_site_hse06_magmom
 _atom_site_pbe_bader_spin_density
 _atom_site_pbe_cm5_charge
 _atom_site_pbe_ddec_charge
 _atom_site_pbe_ddec_spin_density
 _atom_site_pbe_ddec_sum_bond_order
 _atom_site_pbe_magmom
Zn  Zn0  1  0.18204188  0.47226684  0.37604657  1  0  1.050969  0  1.77212  0  0  0.857746  0  2.235367  0  0  0.909885  0  2.177104  0  0  0.691511  0.820864  0  2.275653  0
Zn  Zn1  1  0.81796044  0.52773180  0.62395184  1  0  1.050977  0  1.77219  0  0  0.857753  0  2.235425  0  0  0.909892  0  2.177161  0  0  0.691503  0.820871  0  2.275725  0
H  H2  1  0.99585771  0.49317765  0.14959908  1  0  0.082434  0  0.953064  0  0  0.091926  0  1.016873  0  0  0.094253  0  1.014626  0  0  0.114862  0.090188  0  1.018527  0
H  H3  1  0.00413615  0.50682207  0.85040281  1  0  0.082479  0  0.952976  0  0  0.091938  0  1.016828  0  0  0.094264  0  1.014583  0  0  0.114855  0.0902  0  1.018478  0
H  H4  1  0.80548845  0.67553536  0.96917885  1  0  0.118603  0  0.964723  0  0  0.127947  0  1.025997  0  0  0.13135  0  1.024589  0  0  0.108119  0.125433  0  1.027216  0
H  H5  1  0.19450272  0.32446436  0.03082573  1  0  0.118525  0  0.964726  0  0  0.12789  0  1.025991  0  0  0.131292  0  1.024583  0  0  0.108114  0.125375  0  1.027213  0
H  H6  1  0.86697645  0.99127470  0.11141880  1  0  0.116159  0  0.953071  0  0  0.123853  0  1.01742  0  0  0.126898  0  1.017013  0  0  0.108327  0.12183  0  1.017618  0
H  H7  1  0.13302909  0.00872604  0.88857968  1  0  0.116205  0  0.953044  0  0  0.123876  0  1.017409  0  0  0.126927  0  1.016995  0  0  0.108348  0.121858  0  1.017599  0
H  H8  1  0.05321544  0.79623214  0.28379633  1  0  0.080683  0  0.962709  0  0  0.087922  0  1.029972  0  0  0.089915  0  1.028347  0  0  0.113074  0.086371  0  1.031283  0
H  H9  1  0.94679763  0.20376647  0.71619903  1  0  0.080712  0  0.962632  0  0  0.087944  0  1.029909  0  0  0.089935  0  1.028288  0  0  0.113049  0.086393  0  1.031212  0
H  H10  1  0.69382581  0.07158403  0.93059094  1  0  0.09525  0  0.992072  0  0  0.102115  0  1.062753  0  0  0.105249  0  1.060929  0  0  0.100988  0.099913  0  1.064005  0
H  H11  1  0.30616899  0.92841674  0.06941059  1  0  0.095332  0  0.992007  0  0  0.102211  0  1.062653  0  0  0.105347  0  1.060824  0  0  0.101004  0.10001  0  1.063909  0
H  H12  1  0.64137750  0.85147458  0.82468853  1  0  0.108765  0  0.977348  0  0  0.11713  0  1.041115  0  0  0.120618  0  1.039344  0  0  0.102912  0.114823  0  1.042112  0
H  H13  1  0.35861744  0.14852935  0.17531033  1  0  0.108788  0  0.97733  0  0  0.117157  0  1.041095  0  0  0.120651  0  1.039317  0  0  0.102908  0.114848  0  1.0421  0
H  H14  1  0.56464200  0.24630743  0.78431415  1  0  0.12131  0  0.947679  0  0  0.129594  0  1.010514  0  0  0.133142  0  1.009073  0  0  0.112314  0.127025  0  1.01172  0
H  H15  1  0.43535830  0.75369649  0.21568618  1  0  0.121316  0  0.947685  0  0  0.129628  0  1.010474  0  0  0.133158  0  1.009057  0  0  0.112345  0.127065  0  1.011677  0
H  H16  1  0.38615158  0.43378334  0.61002504  1  0  0.087466  0  0.964151  0  0  0.095194  0  1.028652  0  0  0.097882  0  1.026153  0  0  0.114002  0.093349  0  1.030336  0
H  H17  1  0.61385409  0.56622057  0.38997333  1  0  0.087473  0  0.964232  0  0  0.09527  0  1.028646  0  0  0.097958  0  1.026147  0  0  0.114026  0.093427  0  1.030331  0
H  H18  1  0.26785742  0.14937419  0.47453816  1  0  0.079719  0  0.944415  0  0  0.0899  0  1.006087  0  0  0.091815  0  1.005102  0  0  0.11474  0.088437  0  1.006947  0
H  H19  1  0.73213966  0.85062763  0.52546466  1  0  0.079692  0  0.944411  0  0  0.089877  0  1.006075  0  0  0.091785  0  1.0051  0  0  0.114704  0.088414  0  1.006932  0
H  H20  1  0.45023143  0.94476181  0.64530830  1  0  0.103146  0  0.958427  0  0  0.113596  0  1.019161  0  0  0.115977  0  1.019827  0  0  0.105106  0.111844  0  1.01891  0
H  H21  1  0.54975719  0.05524109  0.35469715  1  0  0.103098  0  0.958374  0  0  0.113543  0  1.01911  0  0  0.115931  0  1.01976  0  0  0.105084  0.111791  0  1.018859  0
H  H22  1  0.62840393  0.51694407  0.08792391  1  0  0.146882  0  0.928225  0  0  0.158476  0  0.988268  0  0  0.160932  0  0.987631  0  0  0.123299  0.156932  0  0.988487  0
H  H23  1  0.37160470  0.48305561  0.91207731  1  0  0.146866  0  0.928284  0  0  0.15846  0  0.98833  0  0  0.160887  0  0.987726  0  0  0.123298  0.156938  0  0.988532  0
H  H24  1  0.76133584  0.37020822  0.20473052  1  0  0.145343  0  0.930644  0  0  0.157746  0  0.98864  0  0  0.160321  0  0.987266  0  0  0.119506  0.156005  0  0.989501  0
H  H25  1  0.23867441  0.62978724  0.79526848  1  0  0.145408  0  0.930524  0  0  0.157781  0  0.988545  0  0  0.160365  0  0.987157  0  0  0.119519  0.156041  0  0.989404  0
H  H26  1  0.80134007  0.13925568  0.55515902  1  0  0.150368  0  0.938905  0  0  0.159616  0  1.001278  0  0  0.162014  0  1.001133  0  0  0.119872  0.157914  0  1.00145  0
H  H27  1  0.19866144  0.86074507  0.44484220  1  0  0.150368  0  0.938925  0  0  0.159632  0  1.00129  0  0  0.162032  0  1.001143  0  0  0.119879  0.157928  0  1.001469  0
H  H28  1  0.64666303  0.26422516  0.43419210  1  0  0.151863  0  0.946812  0  0  0.160511  0  1.008528  0  0  0.163383  0  1.008092  0  0  0.120466  0.15829  0  1.009192  0
H  H29  1  0.35333835  0.73577243  0.56580753  1  0  0.151876  0  0.946845  0  0  0.160538  0  1.008548  0  0  0.163411  0  1.008111  0  0  0.120474  0.15832  0  1.009207  0
C  C30  1  0.96150176  0.60527885  0.13702777  1  0  0.121895  0  3.72145  0  0  0.087827  0  3.975709  0  0  0.094433  0  3.996414  0  0  0.037978  0.083544  0  3.961587  0
C  C31  1  0.03850056  0.39471979  0.86297320  1  0  0.12183  0  3.721257  0  0  0.087791  0  3.975529  0  0  0.094396  0  3.996234  0  0  0.037997  0.083514  0  3.961398  0
C  C32  1  0.85696123  0.70729916  0.03706073  1  0  -0.167477  0  3.672641  0  0  -0.181217  0  3.913008  0  0  -0.190066  0  3.935008  0  0  -0.082448  -0.175516  0  3.898248  0
C  C33  1  0.14303787  0.29269739  0.96294103  1  0  -0.167337  0  3.672409  0  0  -0.181096  0  3.912811  0  0  -0.189942  0  3.934805  0  0  -0.082405  -0.175397  0  3.898062  0
C  C34  1  0.81797173  0.85107769  0.02473031  1  0  0.145724  0  3.77666  0  0  0.161386  0  4.002689  0  0  0.167333  0  4.024733  0  0  0.013573  0.157687  0  3.98758  0
C  C35  1  0.18202725  0.14891568  0.97527070  1  0  0.145867  0  3.776648  0  0  0.161474  0  4.002744  0  0  0.167421  0  4.024788  0  0  0.013588  0.157763  0  3.987651  0
C  C36  1  0.89159302  0.88221010  0.11583007  1  0  -0.155653  0  3.673367  0  0  -0.17262  0  3.920167  0  0  -0.181227  0  3.941477  0  0  -0.07747  -0.167062  0  3.905707  0
C  C37  1  0.10841413  0.11778642  0.88417132  1  0  -0.155692  0  3.673325  0  0  -0.172611  0  3.920137  0  0  -0.181224  0  3.941443  0  0  -0.077487  -0.167054  0  3.905677  0
C  C38  1  0.99548261  0.77370538  0.21268837  1  0  0.139335  0  3.702799  0  0  0.105246  0  3.958398  0  0  0.113343  0  3.976693  0  0  0.04487  0.100004  0  3.945903  0
C  C39  1  0.00452373  0.22629325  0.78731156  1  0  0.139285  0  3.70269  0  0  0.105194  0  3.958274  0  0  0.113291  0  3.976573  0  0  0.044889  0.099955  0  3.94577  0
C  C40  1  0.70913345  0.96740117  0.92476939  1  0  -0.082534  0  3.688542  0  0  -0.102954  0  3.936176  0  0  -0.106014  0  3.957237  0  0  -0.073335  -0.100805  0  3.921734  0
C  C41  1  0.29086083  0.03259749  0.07523024  1  0  -0.08279  0  3.688739  0  0  -0.103165  0  3.93634  0  0  -0.106227  0  3.957403  0  0  -0.073389  -0.101008  0  3.921897  0
C  C42  1  0.62967087  0.95529986  0.83037561  1  0  -0.097459  0  3.678618  0  0  -0.117821  0  3.927313  0  0  -0.122437  0  3.947239  0  0  -0.079516  -0.114615  0  3.913451  0
C  C43  1  0.37031992  0.04470092  0.16962355  1  0  -0.097455  0  3.678532  0  0  -0.117839  0  3.927247  0  0  -0.122461  0  3.947173  0  0  -0.079486  -0.11463  0  3.913389  0
C  C44  1  0.52411248  0.07548166  0.73158780  1  0  0.14227  0  3.789342  0  0  0.157133  0  4.018084  0  0  0.16387  0  4.039727  0  0  0.012876  0.152907  0  4.00304  0
C  C45  1  0.47587922  0.92452017  0.26841697  1  0  0.142366  0  3.789086  0  0  0.157193  0  4.017884  0  0  0.163928  0  4.039526  0  0  0.01287  0.152963  0  4.002851  0
C  C46  1  0.50206346  0.21735478  0.71916032  1  0  -0.149039  0  3.64749  0  0  -0.164553  0  3.892123  0  0  -0.172414  0  3.912165  0  0  -0.075688  -0.159434  0  3.878652  0
C  C47  1  0.49793711  0.78264492  0.28084212  1  0  -0.149045  0  3.647441  0  0  -0.164556  0  3.892073  0  0  -0.172404  0  3.912127  0  0  -0.075685  -0.159442  0  3.878612  0
C  C48  1  0.39977318  0.32447940  0.62102968  1  0  0.139556  0  3.688163  0  0  0.106072  0  3.943419  0  0  0.114093  0  3.960561  0  0  0.041988  0.100763  0  3.931687  0
C  C49  1  0.60022350  0.67552347  0.37897028  1  0  0.139485  0  3.6883  0  0  0.105949  0  3.943538  0  0  0.113971  0  3.960675  0  0  0.041964  0.100643  0  3.931812  0
C  C50  1  0.33646828  0.16542755  0.54543833  1  0  0.112823  0  3.739051  0  0  0.082588  0  3.991135  0  0  0.08931  0  4.011383  0  0  0.0353  0.078112  0  3.977654  0
C  C51  1  0.66352344  0.83457428  0.45456388  1  0  0.112791  0  3.739044  0  0  0.082576  0  3.991097  0  0  0.089302  0  4.01135  0  0  0.035281  0.07811  0  3.977599  0
C  C52  1  0.43822511  0.05227570  0.64032407  1  0  -0.169295  0  3.709138  0  0  -0.185059  0  3.954787  0  0  -0.194131  0  3.977556  0  0  -0.084548  -0.178996  0  3.939194  0
C  C53  1  0.56176701  0.94772508  0.35967930  1  0  -0.169298  0  3.709047  0  0  -0.185049  0  3.954712  0  0  -0.194116  0  3.977481  0  0  -0.08454  -0.178986  0  3.939121  0
C  C54  1  0.45719975  0.40745202  0.21525831  1  0  0.688129  0  3.897988  0  0  0.640698  0  4.200248  0  0  0.672729  0  4.19553  0  0  0.204877  0.619017  0  4.202833  0
C  C55  1  0.54280701  0.59254556  0.78473850  1  0  0.688079  0  3.898086  0  0  0.64064  0  4.200357  0  0  0.672677  0  4.195628  0  0  0.20488  0.618951  0  4.202951  0
C  C56  1  0.63906309  0.40685772  0.14291785  1  0  -0.33254  0  3.734381  0  0  -0.361062  0  3.958259  0  0  -0.36683  0  3.962308  0  0  -0.137148  -0.357082  0  3.955242  0
C  C57  1  0.36094419  0.59314197  0.85708599  1  0  -0.33262  0  3.734573  0  0  -0.361097  0  3.958427  0  0  -0.36685  0  3.962472  0  0  -0.137169  -0.357136  0  3.9554  0
C  C58  1  0.66569768  0.32229862  0.06419055  1  0  0.361039  0  3.701273  0  0  0.344672  0  3.986135  0  0  0.355435  0  4.002249  0  0  0.192906  0.337287  0  3.975381  0
C  C59  1  0.33431002  0.67770000  0.93580505  1  0  0.361142  0  3.701351  0  0  0.344764  0  3.986215  0  0  0.355533  0  4.002314  0  0  0.192906  0.33738  0  3.97546  0
C  C60  1  0.88349718  0.32660113  0.45844504  1  0  0.737763  0  3.831443  0  0  0.682963  0  4.138196  0  0  0.717993  0  4.128548  0  0  0.229943  0.659224  0  4.143638  0
C  C61  1  0.11650300  0.67339962  0.54155198  1  0  0.73777  0  3.831632  0  0  0.682982  0  4.138385  0  0  0.718012  0  4.128729  0  0  0.229989  0.65923  0  4.143845  0
C  C62  1  0.79539287  0.21084525  0.46116682  1  0  -0.347415  0  3.737962  0  0  -0.377392  0  3.968022  0  0  -0.384092  0  3.971615  0  0  -0.142864  -0.372659  0  3.965773  0
C  C63  1  0.20460892  0.78915128  0.53883225  1  0  -0.34743  0  3.737999  0  0  -0.377454  0  3.968076  0  0  -0.384154  0  3.971667  0  0  -0.142886  -0.37272  0  3.965829  0
C  C64  1  0.88268763  0.12930869  0.38327235  1  0  0.352593  0  3.71286  0  0  0.337622  0  3.99771  0  0  0.348928  0  4.013219  0  0  0.18508  0.329519  0  3.988083  0
C  C65  1  0.11731066  0.87068996  0.61672881  1  0  0.352668  0  3.71282  0  0  0.337702  0  3.997694  0  0  0.349008  0  4.013203  0  0  0.18512  0.329604  0  3.988053  0
N  N66  1  0.02935958  0.63658769  0.22491864  1  0  -0.340873  0  3.283126  0  0  -0.257538  0  3.552106  0  0  -0.278491  0  3.570171  0  0  -0.326342  -0.243278  0  3.539616  0
N  N67  1  0.97064060  0.36341306  0.77507752  1  0  -0.340949  0  3.283138  0  0  -0.257606  0  3.552118  0  0  -0.278559  0  3.57018  0  0  -0.326386  -0.243348  0  3.539633  0
N  N68  1  0.31613955  0.30091875  0.53477232  1  0  -0.355245  0  3.280747  0  0  -0.27433  0  3.549274  0  0  -0.294635  0  3.566529  0  0  -0.329066  -0.260303  0  3.537405  0
N  N69  1  0.68385794  0.69908201  0.46522824  1  0  -0.355124  0  3.280656  0  0  -0.274234  0  3.549215  0  0  -0.294538  0  3.566468  0  0  -0.329012  -0.260209  0  3.537351  0
N  N70  1  0.67834263  0.25574639  0.00043384  1  0  -0.421001  0  2.614499  0  0  -0.397386  0  2.846752  0  0  -0.407586  0  2.859823  0  0  -0.301771  -0.390557  0  2.83806  0
N  N71  1  0.32165863  0.74425857  0.99955929  1  0  -0.421075  0  2.614396  0  0  -0.397442  0  2.846637  0  0  -0.407647  0  2.85971  0  0  -0.301768  -0.390618  0  2.837936  0
N  N72  1  0.95186783  0.06145847  0.32196405  1  0  -0.422406  0  2.578596  0  0  -0.398397  0  2.798829  0  0  -0.408571  0  2.812325  0  0  -0.306432  -0.391719  0  2.790308  0
N  N73  1  0.04813020  0.93853386  0.67803733  1  0  -0.422457  0  2.578688  0  0  -0.398434  0  2.798904  0  0  -0.408609  0  2.812404  0  0  -0.306467  -0.391768  0  2.790387  0
O  O74  1  0.44245709  0.46333425  0.29903789  1  0  -0.644677  0  2.022859  0  0  -0.573743  0  2.281562  0  0  -0.603262  0  2.271263  0  0  -0.322685  -0.553137  0  2.287817  0
O  O75  1  0.55754470  0.53666228  0.70096033  1  0  -0.644737  0  2.022896  0  0  -0.573784  0  2.281577  0  0  -0.603309  0  2.271285  0  0  -0.322713  -0.553175  0  2.287836  0
O  O76  1  0.33991968  0.35768526  0.18931897  1  0  -0.617508  0  1.930532  0  0  -0.569396  0  2.156615  0  0  -0.591443  0  2.147973  0  0  -0.314969  -0.554163  0  2.161963  0
O  O77  1  0.66009057  0.64231020  0.81067918  1  0  -0.617467  0  1.930605  0  0  -0.56933  0  2.156664  0  0  -0.591383  0  2.14803  0  0  -0.314939  -0.554093  0  2.162012  0
O  O78  1  0.99696965  0.35759413  0.37535095  1  0  -0.637297  0  2.077005  0  0  -0.574163  0  2.351388  0  0  -0.600997  0  2.336506  0  0  -0.305027  -0.55519  0  2.360733  0
O  O79  1  0.00303001  0.64240451  0.62464160  1  0  -0.637405  0  2.077241  0  0  -0.574257  0  2.351582  0  0  -0.601088  0  2.336695  0  0  -0.305113  -0.555287  0  2.36095  0
O  O80  1  0.82873881  0.38042619  0.54091704  1  0  -0.639623  0  2.102081  0  0  -0.571872  0  2.38492  0  0  -0.598914  0  2.369215  0  0  -0.309189  -0.552789  0  2.395067  0
O  O81  1  0.17126111  0.61957878  0.45907529  1  0  -0.63956  0  2.102024  0  0  -0.571786  0  2.384783  0  0  -0.598854  0  2.36914  0  0  -0.309142  -0.5527  0  2.394936  0
