# generated using pymatgen
data_CuH4C7IN2
_symmetry_space_group_name_H-M   'P 1'
_cell_length_a   9.52125475
_cell_length_b   11.35030696
_cell_length_c   13.81161901
_cell_angle_alpha   89.99984275
_cell_angle_beta   89.99932166
_cell_angle_gamma   90.00043907
_symmetry_Int_Tables_number   1
_chemical_formula_structural   CuH4C7IN2
_chemical_formula_sum   'Cu8 H32 C56 I8 N16'
_cell_volume   1492.61012070
_cell_formula_units_Z   8
loop_
 _symmetry_equiv_pos_site_id
 _symmetry_equiv_pos_as_xyz
  1  'x, y, z'
loop_
 _atom_site_type_symbol
 _atom_site_label
 _atom_site_symmetry_multiplicity
 _atom_site_fract_x
 _atom_site_fract_y
 _atom_site_fract_z
 _atom_site_occupancy
 _atom_site_hle17_bader_spin_density
 _atom_site_hle17_ddec_charge
 _atom_site_hle17_ddec_spin_density
 _atom_site_hle17_ddec_sum_bond_order
 _atom_site_hle17_magmom
 _atom_site_hse06_10hf_bader_spin_density
 _atom_site_hse06_10hf_ddec_charge
 _atom_site_hse06_10hf_ddec_spin_density
 _atom_site_hse06_10hf_ddec_sum_bond_order
 _atom_site_hse06_10hf_magmom
 _atom_site_hse06_bader_spin_density
 _atom_site_hse06_ddec_charge
 _atom_site_hse06_ddec_spin_density
 _atom_site_hse06_ddec_sum_bond_order
 _atom_site_hse06_magmom
 _atom_site_pbe_bader_spin_density
 _atom_site_pbe_cm5_charge
 _atom_site_pbe_ddec_charge
 _atom_site_pbe_ddec_spin_density
 _atom_site_pbe_ddec_sum_bond_order
 _atom_site_pbe_magmom
Cu  Cu0  1  0.73453917  0.34760972  0.50631519  1  0  0.423258  0  1.73383  0  0  0.299601  0  2.16829  0  0  0.314801  0  2.127688  0  0  0.461477  0.289567  0  2.197151  0
Cu  Cu1  1  0.26545935  0.15238704  0.00631587  1  0  0.423266  0  1.733923  0  0  0.299565  0  2.168357  0  0  0.314778  0  2.127726  0  0  0.461455  0.289543  0  2.197191  0
Cu  Cu2  1  0.23454249  0.65238931  0.99368921  1  0  0.42333  0  1.733856  0  0  0.299641  0  2.168286  0  0  0.314852  0  2.127658  0  0  0.46148  0.289579  0  2.197189  0
Cu  Cu3  1  0.76545868  0.84761129  0.49368747  1  0  0.423259  0  1.733945  0  0  0.299592  0  2.168411  0  0  0.314794  0  2.127809  0  0  0.461489  0.289569  0  2.197259  0
Cu  Cu4  1  0.26545857  0.65238940  0.49368398  1  0  0.42333  0  1.733895  0  0  0.29963  0  2.168296  0  0  0.31484  0  2.12765  0  0  0.461491  0.289607  0  2.197136  0
Cu  Cu5  1  0.73454050  0.84761384  0.99368619  1  0  0.423269  0  1.733946  0  0  0.299583  0  2.168396  0  0  0.314787  0  2.127779  0  0  0.461459  0.289553  0  2.197243  0
Cu  Cu6  1  0.76546261  0.34761157  0.00631358  1  0  0.423354  0  1.733889  0  0  0.299685  0  2.168305  0  0  0.314879  0  2.127666  0  0  0.461486  0.289641  0  2.19719  0
Cu  Cu7  1  0.23453591  0.15238871  0.50631242  1  0  0.423324  0  1.733955  0  0  0.299642  0  2.168367  0  0  0.314844  0  2.127739  0  0  0.461484  0.289604  0  2.197237  0
H  H8  1  0.98687967  0.37016383  0.66579940  1  0  0.094017  0  0.972573  0  0  0.10323  0  1.042828  0  0  0.106051  0  1.041463  0  0  0.090583  0.101387  0  1.043508  0
H  H9  1  0.01311722  0.12983413  0.16580151  1  0  0.093939  0  0.972693  0  0  0.103204  0  1.042892  0  0  0.106024  0  1.041529  0  0  0.090576  0.101363  0  1.043566  0
H  H10  1  0.48688126  0.62983507  0.83419855  1  0  0.093926  0  0.972654  0  0  0.103166  0  1.042874  0  0  0.105986  0  1.041512  0  0  0.090562  0.101308  0  1.043566  0
H  H11  1  0.51312153  0.87016345  0.33420249  1  0  0.094003  0  0.972591  0  0  0.103197  0  1.042876  0  0  0.106017  0  1.041513  0  0  0.090576  0.101359  0  1.04355  0
H  H12  1  0.01311492  0.62983617  0.33419977  1  0  0.093982  0  0.972588  0  0  0.103222  0  1.042827  0  0  0.106044  0  1.041461  0  0  0.09059  0.101377  0  1.043506  0
H  H13  1  0.98687738  0.87016675  0.83419620  1  0  0.093893  0  0.972785  0  0  0.103173  0  1.042961  0  0  0.105994  0  1.041596  0  0  0.090561  0.101328  0  1.04364  0
H  H14  1  0.51311333  0.37016317  0.16579989  1  0  0.093921  0  0.972754  0  0  0.1032  0  1.042932  0  0  0.106022  0  1.041566  0  0  0.090588  0.101353  0  1.043609  0
H  H15  1  0.48687936  0.12983743  0.66579378  1  0  0.093962  0  0.972654  0  0  0.103184  0  1.04291  0  0  0.106005  0  1.041543  0  0  0.090566  0.101336  0  1.043592  0
H  H16  1  0.17063402  0.47925763  0.76015368  1  0  0.087615  0  0.968045  0  0  0.09772  0  1.02848  0  0  0.099594  0  1.02945  0  0  0.087909  0.096509  0  1.02738  0
H  H17  1  0.82936024  0.02074176  0.26015791  1  0  0.087666  0  0.968123  0  0  0.097735  0  1.028581  0  0  0.09961  0  1.029552  0  0  0.087934  0.096524  0  1.027483  0
H  H18  1  0.67064095  0.52074363  0.73984329  1  0  0.087562  0  0.968157  0  0  0.097681  0  1.028569  0  0  0.099555  0  1.02954  0  0  0.087889  0.096469  0  1.027471  0
H  H19  1  0.32936763  0.97925522  0.23984635  1  0  0.087614  0  0.968115  0  0  0.097742  0  1.028523  0  0  0.099616  0  1.029494  0  0  0.087918  0.09653  0  1.027424  0
H  H20  1  0.82936372  0.52074149  0.23984476  1  0  0.087644  0  0.96819  0  0  0.097761  0  1.028597  0  0  0.099637  0  1.029567  0  0  0.087919  0.096549  0  1.027499  0
H  H21  1  0.17064065  0.97925736  0.73984198  1  0  0.087588  0  0.968129  0  0  0.097698  0  1.028552  0  0  0.099573  0  1.029524  0  0  0.087915  0.096487  0  1.027454  0
H  H22  1  0.32936099  0.47925637  0.26015660  1  0  0.087673  0  0.968145  0  0  0.097766  0  1.028569  0  0  0.09964  0  1.029541  0  0  0.087916  0.096553  0  1.027471  0
H  H23  1  0.67063432  0.02074742  0.76015064  1  0  0.087585  0  0.968167  0  0  0.097747  0  1.028534  0  0  0.099622  0  1.029504  0  0  0.087929  0.096535  0  1.027437  0
H  H24  1  0.19108722  0.69557785  0.75011399  1  0  0.086413  0  0.955915  0  0  0.096639  0  1.019887  0  0  0.099613  0  1.018203  0  0  0.08985  0.094341  0  1.021271  0
H  H25  1  0.80890333  0.80442360  0.25011850  1  0  0.086415  0  0.956008  0  0  0.096699  0  1.019929  0  0  0.099674  0  1.018244  0  0  0.089876  0.094397  0  1.021317  0
H  H26  1  0.69109728  0.30442353  0.74988643  1  0  0.08632  0  0.956002  0  0  0.096653  0  1.019863  0  0  0.099628  0  1.018177  0  0  0.089829  0.094352  0  1.021249  0
H  H27  1  0.30891606  0.19557325  0.24988738  1  0  0.086422  0  0.955853  0  0  0.096631  0  1.019859  0  0  0.099605  0  1.018175  0  0  0.089819  0.094331  0  1.021247  0
H  H28  1  0.80891052  0.30442303  0.24988300  1  0  0.086383  0  0.955943  0  0  0.096617  0  1.019901  0  0  0.09959  0  1.018217  0  0  0.089832  0.094318  0  1.021286  0
H  H29  1  0.19109756  0.19557552  0.74988356  1  0  0.086421  0  0.956082  0  0  0.096729  0  1.019965  0  0  0.099706  0  1.018278  0  0  0.089889  0.094428  0  1.021351  0
H  H30  1  0.30890782  0.69557470  0.25011925  1  0  0.086425  0  0.955859  0  0  0.096636  0  1.01985  0  0  0.099612  0  1.018164  0  0  0.089831  0.094335  0  1.021239  0
H  H31  1  0.69108484  0.80442939  0.75011179  1  0  0.086382  0  0.955903  0  0  0.0966  0  1.019887  0  0  0.099573  0  1.018204  0  0  0.089799  0.094301  0  1.021274  0
H  H32  1  0.02761963  0.81309327  0.64489879  1  0  0.101496  0  0.960006  0  0  0.112255  0  1.023394  0  0  0.114669  0  1.022475  0  0  0.094598  0.110682  0  1.024095  0
H  H33  1  0.97237269  0.68690679  0.14490218  1  0  0.101458  0  0.960097  0  0  0.11221  0  1.023482  0  0  0.114623  0  1.022564  0  0  0.094586  0.110628  0  1.024191  0
H  H34  1  0.52762791  0.18690441  0.85510227  1  0  0.101461  0  0.960052  0  0  0.112232  0  1.023425  0  0  0.114645  0  1.022509  0  0  0.094604  0.110659  0  1.024124  0
H  H35  1  0.47238051  0.31309112  0.35510378  1  0  0.101537  0  0.96001  0  0  0.112307  0  1.023367  0  0  0.114721  0  1.022448  0  0  0.09464  0.110735  0  1.024066  0
H  H36  1  0.97237916  0.18690673  0.35509821  1  0  0.101446  0  0.960052  0  0  0.112201  0  1.023451  0  0  0.114616  0  1.022529  0  0  0.094564  0.110629  0  1.024149  0
H  H37  1  0.02762926  0.31309321  0.85509771  1  0  0.101455  0  0.960077  0  0  0.112214  0  1.023455  0  0  0.114628  0  1.022537  0  0  0.094593  0.110636  0  1.02416  0
H  H38  1  0.47237928  0.81309294  0.14490413  1  0  0.101441  0  0.960059  0  0  0.112205  0  1.023434  0  0  0.11462  0  1.022513  0  0  0.094563  0.110631  0  1.024137  0
H  H39  1  0.52761829  0.68690976  0.64489828  1  0  0.101503  0  0.960009  0  0  0.112271  0  1.023376  0  0  0.114685  0  1.022457  0  0  0.09463  0.110699  0  1.024075  0
C  C40  1  0.90571096  0.53147826  0.60281636  1  0  0.160208  0  3.778532  0  0  0.160145  0  4.013253  0  0  0.163522  0  4.037337  0  0  0.079081  0.15762  0  3.997359  0
C  C41  1  0.09428732  0.96851843  0.10281924  1  0  0.160297  0  3.778398  0  0  0.160237  0  4.013131  0  0  0.163616  0  4.037215  0  0  0.079078  0.15771  0  3.997235  0
C  C42  1  0.40571318  0.46852100  0.89718661  1  0  0.16026  0  3.7784  0  0  0.160227  0  4.01312  0  0  0.163606  0  4.037204  0  0  0.079095  0.157698  0  3.997215  0
C  C43  1  0.59428823  0.03147615  0.39718626  1  0  0.160337  0  3.778443  0  0  0.160348  0  4.013027  0  0  0.163732  0  4.037111  0  0  0.079143  0.157821  0  3.997132  0
C  C44  1  0.09428678  0.46851998  0.39718208  1  0  0.160287  0  3.778544  0  0  0.160213  0  4.013263  0  0  0.163594  0  4.03735  0  0  0.079088  0.157689  0  3.997367  0
C  C45  1  0.90571253  0.03147981  0.89718137  1  0  0.16021  0  3.778646  0  0  0.160128  0  4.013366  0  0  0.163506  0  4.037452  0  0  0.079099  0.157605  0  3.99747  0
C  C46  1  0.59428876  0.53147900  0.10281762  1  0  0.160362  0  3.778528  0  0  0.160283  0  4.013277  0  0  0.163662  0  4.037364  0  0  0.079115  0.157757  0  3.997377  0
C  C47  1  0.40571266  0.96852473  0.60281291  1  0  0.160375  0  3.778411  0  0  0.160349  0  4.013064  0  0  0.16373  0  4.037148  0  0  0.0791  0.157821  0  3.997166  0
C  C48  1  0.99563214  0.46582824  0.66180262  1  0  -0.137928  0  3.737881  0  0  -0.156449  0  3.982991  0  0  -0.159362  0  4.004026  0  0  -0.104165  -0.153805  0  3.967527  0
C  C49  1  0.00436272  0.03417238  0.16180502  1  0  -0.137963  0  3.73797  0  0  -0.156509  0  3.983049  0  0  -0.159428  0  4.004088  0  0  -0.10421  -0.153876  0  3.967582  0
C  C50  1  0.49564120  0.53417336  0.83819525  1  0  -0.137988  0  3.737917  0  0  -0.156524  0  3.983038  0  0  -0.159445  0  4.004078  0  0  -0.104226  -0.15387  0  3.967577  0
C  C51  1  0.50436363  0.96582514  0.33819616  1  0  -0.137961  0  3.737786  0  0  -0.156496  0  3.982859  0  0  -0.15941  0  4.003894  0  0  -0.104189  -0.153857  0  3.967387  0
C  C52  1  0.00436455  0.53417352  0.33819727  1  0  -0.137897  0  3.73774  0  0  -0.156427  0  3.982826  0  0  -0.159341  0  4.003863  0  0  -0.104172  -0.153785  0  3.967359  0
C  C53  1  0.99563608  0.96582762  0.83819270  1  0  -0.13788  0  3.738142  0  0  -0.156453  0  3.983261  0  0  -0.159364  0  4.004294  0  0  -0.104197  -0.15381  0  3.967795  0
C  C54  1  0.50436075  0.46582400  0.16180536  1  0  -0.137869  0  3.737832  0  0  -0.156424  0  3.982941  0  0  -0.159336  0  4.003975  0  0  -0.104186  -0.153777  0  3.967469  0
C  C55  1  0.49563726  0.03417486  0.66179866  1  0  -0.137906  0  3.737987  0  0  -0.156451  0  3.983073  0  0  -0.159367  0  4.004112  0  0  -0.104143  -0.153805  0  3.967606  0
C  C56  1  0.09726509  0.52735925  0.71424983  1  0  -0.098161  0  3.821443  0  0  -0.104942  0  4.065686  0  0  -0.10768  0  4.088892  0  0  -0.118653  -0.1029  0  4.048608  0
C  C57  1  0.90272502  0.97263968  0.21425392  1  0  -0.098139  0  3.821507  0  0  -0.104892  0  4.065813  0  0  -0.107628  0  4.089022  0  0  -0.118627  -0.102839  0  4.048732  0
C  C58  1  0.59727187  0.47264241  0.78574992  1  0  -0.098038  0  3.821456  0  0  -0.104837  0  4.06577  0  0  -0.107572  0  4.08898  0  0  -0.118622  -0.102793  0  4.048683  0
C  C59  1  0.40273246  0.02735689  0.28575118  1  0  -0.098227  0  3.821585  0  0  -0.105024  0  4.06583  0  0  -0.107761  0  4.089036  0  0  -0.118734  -0.102981  0  4.04875  0
C  C60  1  0.90272845  0.47263810  0.28574861  1  0  -0.098253  0  3.821594  0  0  -0.105028  0  4.065823  0  0  -0.107766  0  4.08903  0  0  -0.118671  -0.102979  0  4.04874  0
C  C61  1  0.09727168  0.02735856  0.78574669  1  0  -0.098049  0  3.821558  0  0  -0.104838  0  4.065866  0  0  -0.107576  0  4.089078  0  0  -0.11863  -0.102792  0  4.048784  0
C  C62  1  0.40272692  0.52735936  0.21425504  1  0  -0.098256  0  3.821583  0  0  -0.10504  0  4.06588  0  0  -0.10778  0  4.08909  0  0  -0.11868  -0.102991  0  4.048795  0
C  C63  1  0.59726843  0.97264663  0.71424437  1  0  -0.098191  0  3.821565  0  0  -0.105043  0  4.065865  0  0  -0.107782  0  4.089073  0  0  -0.118734  -0.102999  0  4.048785  0
C  C64  1  0.10917589  0.65128018  0.70845380  1  0  -0.094554  0  3.804574  0  0  -0.104304  0  4.051606  0  0  -0.106132  0  4.071291  0  0  -0.116307  -0.101615  0  4.037835  0
C  C65  1  0.89081536  0.84872230  0.20845681  1  0  -0.094615  0  3.804659  0  0  -0.104428  0  4.051684  0  0  -0.106252  0  4.071367  0  0  -0.116353  -0.101739  0  4.037914  0
C  C66  1  0.60918671  0.34872244  0.79154657  1  0  -0.094481  0  3.804403  0  0  -0.104313  0  4.051422  0  0  -0.106136  0  4.071105  0  0  -0.116237  -0.101614  0  4.037647  0
C  C67  1  0.39082383  0.15127508  0.29154838  1  0  -0.094424  0  3.804448  0  0  -0.104173  0  4.051461  0  0  -0.106001  0  4.071147  0  0  -0.116126  -0.101482  0  4.037687  0
C  C68  1  0.89082080  0.34872158  0.29154536  1  0  -0.094502  0  3.804722  0  0  -0.104262  0  4.051764  0  0  -0.106091  0  4.071454  0  0  -0.116279  -0.101574  0  4.037991  0
C  C69  1  0.10918659  0.15127682  0.79154308  1  0  -0.094634  0  3.804544  0  0  -0.104481  0  4.051624  0  0  -0.10631  0  4.071309  0  0  -0.116348  -0.10179  0  4.037851  0
C  C70  1  0.39082049  0.65127668  0.20845694  1  0  -0.094562  0  3.804623  0  0  -0.104308  0  4.051641  0  0  -0.106134  0  4.071325  0  0  -0.116282  -0.101616  0  4.037868  0
C  C71  1  0.60917812  0.84872580  0.70844933  1  0  -0.094455  0  3.804372  0  0  -0.104203  0  4.051383  0  0  -0.106029  0  4.071069  0  0  -0.116169  -0.101512  0  4.037614  0
C  C72  1  0.01924001  0.71751785  0.64991137  1  0  -0.154287  0  3.768603  0  0  -0.169924  0  4.01615  0  0  -0.171515  0  4.034854  0  0  -0.106571  -0.170698  0  4.003453  0
C  C73  1  0.98075117  0.78248219  0.14991521  1  0  -0.154234  0  3.768551  0  0  -0.169847  0  4.016093  0  0  -0.171446  0  4.034805  0  0  -0.106539  -0.170607  0  4.003398  0
C  C74  1  0.51924819  0.28248331  0.85009193  1  0  -0.154287  0  3.768697  0  0  -0.169915  0  4.016273  0  0  -0.171512  0  4.034979  0  0  -0.106609  -0.17069  0  4.003576  0
C  C75  1  0.48075821  0.21751313  0.35009357  1  0  -0.154382  0  3.768689  0  0  -0.170031  0  4.016244  0  0  -0.171621  0  4.034947  0  0  -0.106629  -0.170802  0  4.00354  0
C  C76  1  0.98075563  0.28248127  0.35008562  1  0  -0.154229  0  3.76848  0  0  -0.169857  0  4.016026  0  0  -0.17145  0  4.034733  0  0  -0.106535  -0.170628  0  4.003327  0
C  C77  1  0.01925077  0.21751692  0.85008685  1  0  -0.154197  0  3.768453  0  0  -0.169833  0  4.015979  0  0  -0.171428  0  4.034685  0  0  -0.106564  -0.170601  0  4.003285  0
C  C78  1  0.48075481  0.71751934  0.14991592  1  0  -0.15414  0  3.768496  0  0  -0.16975  0  4.016026  0  0  -0.171343  0  4.034735  0  0  -0.10647  -0.170519  0  4.003327  0
C  C79  1  0.51924268  0.78248864  0.64990704  1  0  -0.154296  0  3.768768  0  0  -0.16993  0  4.016323  0  0  -0.171523  0  4.035028  0  0  -0.106595  -0.170702  0  4.003622  0
C  C80  1  0.91770369  0.65640797  0.59678140  1  0  0.15083  0  3.799104  0  0  0.150181  0  4.034072  0  0  0.153204  0  4.057975  0  0  0.076056  0.148646  0  4.017438  0
C  C81  1  0.08229258  0.84359314  0.09678320  1  0  0.150896  0  3.798963  0  0  0.150213  0  4.033965  0  0  0.153235  0  4.057866  0  0  0.076044  0.148678  0  4.017319  0
C  C82  1  0.41771308  0.34359313  0.90322002  1  0  0.150884  0  3.799053  0  0  0.150179  0  4.034089  0  0  0.153196  0  4.057994  0  0  0.076045  0.148646  0  4.017455  0
C  C83  1  0.58229348  0.15640224  0.40322240  1  0  0.150751  0  3.799213  0  0  0.150087  0  4.034157  0  0  0.153109  0  4.058058  0  0  0.075916  0.148558  0  4.017518  0
C  C84  1  0.08229615  0.34359468  0.40321849  1  0  0.150868  0  3.799094  0  0  0.150194  0  4.034085  0  0  0.153213  0  4.057987  0  0  0.076061  0.14866  0  4.017442  0
C  C85  1  0.91771146  0.15640598  0.90321669  1  0  0.150889  0  3.799147  0  0  0.15028  0  4.034078  0  0  0.153297  0  4.057976  0  0  0.076088  0.148749  0  4.017435  0
C  C86  1  0.58229621  0.65640511  0.09678204  1  0  0.150743  0  3.799188  0  0  0.150052  0  4.034233  0  0  0.153071  0  4.05814  0  0  0.075991  0.148521  0  4.017587  0
C  C87  1  0.41771057  0.84359600  0.59677822  1  0  0.150712  0  3.799225  0  0  0.150032  0  4.03421  0  0  0.153053  0  4.058114  0  0  0.075934  0.148497  0  4.017578  0
C  C88  1  0.74968435  0.59805322  0.50190408  1  0  0.263029  0  3.745266  0  0  0.251011  0  4.015321  0  0  0.26728  0  4.033433  0  0  0.148666  0.240288  0  4.00246  0
C  C89  1  0.25031457  0.90194470  0.00190580  1  0  0.26305  0  3.745354  0  0  0.251019  0  4.015396  0  0  0.267292  0  4.03351  0  0  0.148701  0.240298  0  4.002542  0
C  C90  1  0.24968428  0.40194590  0.99809657  1  0  0.262943  0  3.745439  0  0  0.250922  0  4.015493  0  0  0.267187  0  4.033606  0  0  0.148646  0.2402  0  4.002631  0
C  C91  1  0.75031754  0.09805177  0.49809695  1  0  0.26308  0  3.745197  0  0  0.25105  0  4.015245  0  0  0.267322  0  4.03336  0  0  0.148722  0.240329  0  4.002388  0
C  C92  1  0.25031234  0.40194590  0.49809509  1  0  0.263005  0  3.745408  0  0  0.250976  0  4.01543  0  0  0.267246  0  4.03355  0  0  0.148644  0.24025  0  4.002574  0
C  C93  1  0.74968528  0.09805530  0.99809481  1  0  0.262994  0  3.74545  0  0  0.25098  0  4.015494  0  0  0.267244  0  4.033607  0  0  0.14867  0.240259  0  4.002632  0
C  C94  1  0.75031557  0.59805498  0.00190549  1  0  0.263025  0  3.745408  0  0  0.251006  0  4.015444  0  0  0.267277  0  4.03356  0  0  0.148679  0.240285  0  4.002582  0
C  C95  1  0.24968125  0.90194911  0.50190077  1  0  0.263019  0  3.745247  0  0  0.250991  0  4.015293  0  0  0.267261  0  4.033408  0  0  0.148683  0.240269  0  4.002434  0
I  I96  1  0.59259356  0.60337433  0.39842519  1  0  0.016728  0  1.650898  0  0  0.00374  0  2.024403  0  0  0.004148  0  2.006095  0  0  0.16935  0.002852  0  2.036078  0
I  I97  1  0.40740501  0.89662308  0.89842278  1  0  0.016749  0  1.650795  0  0  0.003769  0  2.02429  0  0  0.004175  0  2.005981  0  0  0.169347  0.00289  0  2.035959  0
I  I98  1  0.09259273  0.39661935  0.10157671  1  0  0.016764  0  1.650925  0  0  0.003783  0  2.024416  0  0  0.004191  0  2.006106  0  0  0.169353  0.0029  0  2.036095  0
I  I99  1  0.90740734  0.10337795  0.60157655  1  0  0.016736  0  1.650904  0  0  0.003747  0  2.024421  0  0  0.004154  0  2.006114  0  0  0.169336  0.002866  0  2.036094  0
I  I100  1  0.40739999  0.39662390  0.60157760  1  0  0.016749  0  1.650782  0  0  0.003766  0  2.024262  0  0  0.004173  0  2.005955  0  0  0.169333  0.002882  0  2.035941  0
I  I101  1  0.59259693  0.10337956  0.10157855  1  0  0.016765  0  1.650851  0  0  0.00378  0  2.024332  0  0  0.004186  0  2.006023  0  0  0.169336  0.002891  0  2.036011  0
I  I102  1  0.90740606  0.60337624  0.89842173  1  0  0.01673  0  1.650874  0  0  0.003746  0  2.024352  0  0  0.004153  0  2.006044  0  0  0.169339  0.002872  0  2.036027  0
I  I103  1  0.09259356  0.89662205  0.39842189  1  0  0.016787  0  1.650934  0  0  0.0038  0  2.024422  0  0  0.004208  0  2.006111  0  0  0.169363  0.002913  0  2.036106  0
N  N104  1  0.79680760  0.49670626  0.54165675  1  0  -0.447202  0  3.417377  0  0  -0.367854  0  3.720005  0  0  -0.38736  0  3.728758  0  0  -0.425419  -0.354735  0  3.714285  0
N  N105  1  0.20318927  0.00329213  0.04165755  1  0  -0.447307  0  3.417451  0  0  -0.367899  0  3.720008  0  0  -0.387415  0  3.728757  0  0  -0.42545  -0.354779  0  3.71429  0
N  N106  1  0.29681331  0.50329317  0.95834423  1  0  -0.447257  0  3.417536  0  0  -0.367877  0  3.720108  0  0  -0.387382  0  3.728853  0  0  -0.425422  -0.354754  0  3.714388  0
N  N107  1  0.70319160  0.99670404  0.45834559  1  0  -0.447322  0  3.417594  0  0  -0.367942  0  3.720148  0  0  -0.387461  0  3.728908  0  0  -0.425419  -0.354825  0  3.714438  0
N  N108  1  0.20318804  0.50329462  0.45834241  1  0  -0.447326  0  3.417476  0  0  -0.367911  0  3.720029  0  0  -0.387432  0  3.728769  0  0  -0.42545  -0.354792  0  3.714307  0
N  N109  1  0.79680847  0.99670787  0.95834234  1  0  -0.447264  0  3.417527  0  0  -0.367869  0  3.720103  0  0  -0.387382  0  3.728857  0  0  -0.425455  -0.354754  0  3.714392  0
N  N110  1  0.70318863  0.49670595  0.04165711  1  0  -0.447336  0  3.417546  0  0  -0.367941  0  3.720118  0  0  -0.387453  0  3.728857  0  0  -0.425458  -0.354821  0  3.714397  0
N  N111  1  0.29680719  0.00329596  0.54165285  1  0  -0.447277  0  3.417532  0  0  -0.367883  0  3.720072  0  0  -0.387397  0  3.728816  0  0  -0.425369  -0.354763  0  3.714359  0
N  N112  1  0.81684061  0.69628861  0.53168297  1  0  -0.451432  0  3.44007  0  0  -0.371039  0  3.738589  0  0  -0.390823  0  3.748035  0  0  -0.426449  -0.35814  0  3.732155  0
N  N113  1  0.18315466  0.80371096  0.03168474  1  0  -0.451517  0  3.440295  0  0  -0.371107  0  3.738796  0  0  -0.390892  0  3.748232  0  0  -0.426434  -0.358203  0  3.732358  0
N  N114  1  0.31684645  0.30371183  0.96831930  1  0  -0.451389  0  3.44011  0  0  -0.370973  0  3.738608  0  0  -0.390748  0  3.748038  0  0  -0.426375  -0.358072  0  3.732171  0
N  N115  1  0.68315482  0.19628419  0.46832074  1  0  -0.451459  0  3.440011  0  0  -0.371076  0  3.738538  0  0  -0.390857  0  3.747981  0  0  -0.426456  -0.35818  0  3.732103  0
N  N116  1  0.18315398  0.30371139  0.46831765  1  0  -0.45148  0  3.440379  0  0  -0.371074  0  3.738873  0  0  -0.39085  0  3.7483  0  0  -0.426426  -0.358172  0  3.732433  0
N  N117  1  0.81684939  0.19628728  0.96831515  1  0  -0.451514  0  3.440313  0  0  -0.371171  0  3.73884  0  0  -0.39093  0  3.748244  0  0  -0.426456  -0.358271  0  3.732403  0
N  N118  1  0.68315655  0.69628994  0.03168276  1  0  -0.451449  0  3.440288  0  0  -0.371046  0  3.738806  0  0  -0.390828  0  3.748243  0  0  -0.426409  -0.358149  0  3.732373  0
N  N119  1  0.31684397  0.80371581  0.53167987  1  0  -0.451512  0  3.440028  0  0  -0.371099  0  3.738515  0  0  -0.390882  0  3.747938  0  0  -0.426459  -0.358196  0  3.732077  0
