# generated using pymatgen
data_CuH9C9N5Cl
_symmetry_space_group_name_H-M   'P 1'
_cell_length_a   7.22932983
_cell_length_b   7.53635980
_cell_length_c   9.93528391
_cell_angle_alpha   81.19425046
_cell_angle_beta   76.93490084
_cell_angle_gamma   84.62909564
_symmetry_Int_Tables_number   1
_chemical_formula_structural   CuH9C9N5Cl
_chemical_formula_sum   'Cu2 H18 C18 N10 Cl2'
_cell_volume   520.09548031
_cell_formula_units_Z   2
loop_
 _symmetry_equiv_pos_site_id
 _symmetry_equiv_pos_as_xyz
  1  'x, y, z'
loop_
 _atom_site_type_symbol
 _atom_site_label
 _atom_site_symmetry_multiplicity
 _atom_site_fract_x
 _atom_site_fract_y
 _atom_site_fract_z
 _atom_site_occupancy
 _atom_site_hle17_bader_spin_density
 _atom_site_hle17_ddec_charge
 _atom_site_hle17_ddec_spin_density
 _atom_site_hle17_ddec_sum_bond_order
 _atom_site_hle17_magmom
 _atom_site_hse06_10hf_bader_spin_density
 _atom_site_hse06_10hf_ddec_charge
 _atom_site_hse06_10hf_ddec_spin_density
 _atom_site_hse06_10hf_ddec_sum_bond_order
 _atom_site_hse06_10hf_magmom
 _atom_site_hse06_bader_spin_density
 _atom_site_hse06_ddec_charge
 _atom_site_hse06_ddec_spin_density
 _atom_site_hse06_ddec_sum_bond_order
 _atom_site_hse06_magmom
 _atom_site_pbe_bader_spin_density
 _atom_site_pbe_cm5_charge
 _atom_site_pbe_ddec_charge
 _atom_site_pbe_ddec_spin_density
 _atom_site_pbe_ddec_sum_bond_order
 _atom_site_pbe_magmom
Cu  Cu0  1  0.16311781  0.83197672  0.38558194  1  0  0.522312  0  2.026768  0  0  0.464877  0  2.477723  0  0  0.468119  0  2.441252  0  0  0.500439  0.463795  0  2.501388  0
Cu  Cu1  1  0.83687973  0.16802216  0.61441825  1  0  0.52231  0  2.026768  0  0  0.464891  0  2.477713  0  0  0.468081  0  2.44121  0  0  0.500447  0.46382  0  2.501379  0
H  H2  1  0.54168641  0.98024881  0.30705008  1  0  0.083455  0  0.975694  0  0  0.09207  0  1.041885  0  0  0.094167  0  1.040665  0  0  0.104177  0.090452  0  1.042803  0
H  H3  1  0.45831406  0.01974872  0.69294979  1  0  0.083461  0  0.9757  0  0  0.092075  0  1.041901  0  0  0.094174  0  1.040681  0  0  0.104182  0.090459  0  1.042818  0
H  H4  1  0.71222323  0.19947194  0.11474866  1  0  0.107166  0  0.980081  0  0  0.108291  0  1.055394  0  0  0.112284  0  1.05313  0  0  0.103846  0.105475  0  1.057013  0
H  H5  1  0.28777573  0.80052693  0.88525030  1  0  0.107125  0  0.980073  0  0  0.108232  0  1.055396  0  0  0.112227  0  1.053128  0  0  0.103832  0.105419  0  1.057012  0
H  H6  1  0.54309659  0.35505799  0.93322800  1  0  0.107606  0  0.936038  0  0  0.115529  0  1.002441  0  0  0.118825  0  0.999063  0  0  0.113414  0.112973  0  1.005143  0
H  H7  1  0.45690219  0.64494360  0.06677467  1  0  0.107572  0  0.936062  0  0  0.115495  0  1.002488  0  0  0.11879  0  0.999112  0  0  0.113403  0.112939  0  1.005192  0
H  H8  1  0.05727695  0.04846443  0.14142891  1  0  0.088665  0  0.956007  0  0  0.090017  0  1.033156  0  0  0.093684  0  1.029094  0  0  0.112861  0.087323  0  1.036157  0
H  H9  1  0.94272334  0.95153580  0.85857167  1  0  0.088699  0  0.955953  0  0  0.090019  0  1.033146  0  0  0.093688  0  1.029083  0  0  0.112852  0.087323  0  1.036147  0
H  H10  1  0.11988000  0.76505770  0.69480623  1  0  0.099334  0  0.94712  0  0  0.111994  0  1.011167  0  0  0.113152  0  1.01042  0  0  0.109417  0.111058  0  1.011731  0
H  H11  1  0.88011878  0.23494387  0.30519343  1  0  0.099331  0  0.947167  0  0  0.112003  0  1.011172  0  0  0.113162  0  1.010421  0  0  0.109417  0.111069  0  1.011736  0
H  H12  1  0.92399756  0.66842992  0.65918195  1  0  0.098582  0  0.932259  0  0  0.11029  0  0.995967  0  0  0.111721  0  0.995183  0  0  0.115166  0.109186  0  0.996645  0
H  H13  1  0.07600274  0.33157030  0.34081763  1  0  0.098595  0  0.932293  0  0  0.110295  0  0.995985  0  0  0.111727  0  0.995201  0  0  0.115178  0.109194  0  0.996663  0
H  H14  1  0.16026729  0.49361180  0.48345736  1  0  0.096283  0  0.97157  0  0  0.107597  0  1.034474  0  0  0.108925  0  1.03474  0  0  0.094899  0.106705  0  1.034201  0
H  H15  1  0.83973434  0.50638976  0.51654184  1  0  0.096294  0  0.971571  0  0  0.107611  0  1.034472  0  0  0.108937  0  1.034737  0  0  0.094918  0.10672  0  1.034199  0
H  H16  1  0.42835099  0.77325675  0.51999295  1  0  0.139165  0  0.952738  0  0  0.150174  0  1.013865  0  0  0.152417  0  1.013482  0  0  0.09247  0.148572  0  1.014166  0
H  H17  1  0.57164771  0.22674615  0.48000556  1  0  0.139205  0  0.952648  0  0  0.150181  0  1.013827  0  0  0.152423  0  1.013441  0  0  0.092463  0.148575  0  1.01413  0
H  H18  1  0.46908775  0.62701487  0.38083333  1  0  0.142615  0  0.960501  0  0  0.151508  0  1.025013  0  0  0.153862  0  1.024237  0  0  0.094726  0.149826  0  1.025644  0
H  H19  1  0.53091095  0.37298805  0.61916618  1  0  0.142629  0  0.960475  0  0  0.151526  0  1.024975  0  0  0.153879  0  1.024197  0  0  0.094747  0.149845  0  1.025605  0
C  C20  1  0.47130474  0.04951067  0.22595946  1  0  0.121  0  3.674354  0  0  0.08952  0  3.920496  0  0  0.096057  0  3.93836  0  0  0.043207  0.085228  0  3.908727  0
C  C21  1  0.52869706  0.95048820  0.77404003  1  0  0.12099  0  3.674362  0  0  0.089499  0  3.920506  0  0  0.09603  0  3.93837  0  0  0.043222  0.085203  0  3.908736  0
C  C22  1  0.56558292  0.17244310  0.11966255  1  0  -0.109221  0  3.733763  0  0  -0.119296  0  3.985846  0  0  -0.127274  0  4.007997  0  0  -0.083288  -0.114169  0  3.971089  0
C  C23  1  0.43441887  0.82755577  0.88033694  1  0  -0.109194  0  3.733713  0  0  -0.119227  0  3.985808  0  0  -0.127203  0  4.007962  0  0  -0.083301  -0.1141  0  3.971048  0
C  C24  1  0.47191502  0.25829490  0.01761641  1  0  -0.016977  0  3.648656  0  0  -0.044909  0  3.891716  0  0  -0.040917  0  3.909886  0  0  -0.056947  -0.047318  0  3.879499  0
C  C25  1  0.52808385  0.74170534  0.98238541  1  0  -0.016912  0  3.648571  0  0  -0.044883  0  3.891662  0  0  -0.040893  0  3.909835  0  0  -0.056938  -0.047295  0  3.879448  0
C  C26  1  0.20092495  0.08845043  0.13301763  1  0  0.09908  0  3.652763  0  0  0.059872  0  3.906582  0  0  0.066147  0  3.922634  0  0  0.050175  0.055128  0  3.897127  0
C  C27  1  0.79907534  0.91154979  0.86698194  1  0  0.099015  0  3.652781  0  0  0.059824  0  3.906606  0  0  0.066099  0  3.922645  0  0  0.050162  0.055081  0  3.897149  0
C  C28  1  0.28429091  0.21753362  0.02491167  1  0  -0.040621  0  3.787333  0  0  -0.016483  0  4.015897  0  0  -0.023278  0  4.040583  0  0  8.9e-05  -0.012255  0  3.999266  0
C  C29  1  0.71570787  0.78246794  0.97508799  1  0  -0.040614  0  3.787312  0  0  -0.016462  0  4.015872  0  0  -0.023258  0  4.04056  0  0  0.0001  -0.012237  0  3.999239  0
C  C30  1  0.07515765  0.64590637  0.66233556  1  0  -0.068787  0  3.666242  0  0  -0.128296  0  3.921292  0  0  -0.125165  0  3.931091  0  0  -0.055762  -0.130256  0  3.914587  0
C  C31  1  0.92484273  0.35409251  0.33766517  1  0  -0.068841  0  3.666393  0  0  -0.128297  0  3.921337  0  0  -0.125165  0  3.931129  0  0  -0.055765  -0.130274  0  3.914648  0
C  C32  1  0.17332888  0.31086842  0.92679626  1  0  0.255296  0  3.806664  0  0  0.232083  0  4.086003  0  0  0.240167  0  4.104257  0  0  0.221101  0.22679  0  4.0737  0
C  C33  1  0.82666990  0.68913316  0.07320541  1  0  0.255256  0  3.806807  0  0  0.232059  0  4.086121  0  0  0.240142  0  4.10437  0  0  0.221075  0.226771  0  4.073817  0
C  C34  1  0.19500958  0.61079087  0.52319603  1  0  -0.094788  0  3.759326  0  0  -0.11416  0  4.05201  0  0  -0.111815  0  4.062226  0  0  -0.166267  -0.115694  0  4.044711  0
C  C35  1  0.80499214  0.38920934  0.47680331  1  0  -0.094808  0  3.759364  0  0  -0.114215  0  4.052054  0  0  -0.111851  0  4.06224  0  0  -0.166291  -0.115746  0  4.044756  0
C  C36  1  0.36937109  0.68455099  0.46522853  1  0  -0.303303  0  3.655944  0  0  -0.350642  0  3.939986  0  0  -0.348764  0  3.944459  0  0  -0.241359  -0.351363  0  3.936406  0
C  C37  1  0.63062770  0.31545057  0.53477012  1  0  -0.30335  0  3.655824  0  0  -0.350676  0  3.939914  0  0  -0.348776  0  3.944356  0  0  -0.241385  -0.351394  0  3.936333  0
N  N38  1  0.29165445  0.00732573  0.23218596  1  0  -0.296907  0  3.394247  0  0  -0.227118  0  3.688056  0  0  -0.23964  0  3.697935  0  0  -0.362813  -0.219168  0  3.68161  0
N  N39  1  0.70834593  0.99267313  0.76781276  1  0  -0.296872  0  3.394255  0  0  -0.227072  0  3.688054  0  0  -0.239579  0  3.697901  0  0  -0.362803  -0.219129  0  3.68161  0
N  N40  1  0.08374547  0.49444473  0.77280672  1  0  0.230976  0  3.521868  0  0  0.283314  0  3.798258  0  0  0.278927  0  3.820465  0  0  -0.001367  0.285953  0  3.783479  0
N  N41  1  0.91625340  0.50555549  0.22719409  1  0  0.230974  0  3.521923  0  0  0.283288  0  3.798315  0  0  0.278902  0  3.820525  0  0  -0.001392  0.285934  0  3.783537  0
N  N42  1  0.23732374  0.44302268  0.82423458  1  0  -0.287947  0  2.809932  0  0  -0.27114  0  3.072516  0  0  -0.278547  0  3.087064  0  0  -0.188341  -0.266433  0  3.063231  0
N  N43  1  0.76267513  0.55697755  0.17576624  1  0  -0.287888  0  2.810105  0  0  -0.271079  0  3.07268  0  0  -0.278488  0  3.087228  0  0  -0.18829  -0.266373  0  3.063394  0
N  N44  1  0.98685132  0.28495562  0.93488770  1  0  -0.259736  0  2.955666  0  0  -0.241773  0  3.254104  0  0  -0.250524  0  3.26533  0  0  -0.190364  -0.235477  0  3.246305  0
N  N45  1  0.01314755  0.71504460  0.06511211  1  0  -0.25977  0  2.955673  0  0  -0.241804  0  3.254075  0  0  -0.250549  0  3.265294  0  0  -0.19036  -0.235507  0  3.246276  0
N  N46  1  0.93172753  0.40206527  0.83659275  1  0  -0.113107  0  2.869845  0  0  -0.115476  0  3.170482  0  0  -0.110242  0  3.177447  0  0  -0.07423  -0.118969  0  3.165946  0
N  N47  1  0.06827125  0.59793631  0.16340791  1  0  -0.113077  0  2.869796  0  0  -0.115438  0  3.170424  0  0  -0.110209  0  3.177396  0  0  -0.074221  -0.118929  0  3.165889  0
Cl  Cl48  1  0.84946621  0.88592598  0.40299862  1  0  -0.600142  0  1.00047  0  0  -0.537849  0  1.290684  0  0  -0.552298  0  1.267941  0  0  -0.335253  -0.527366  0  1.306051  0
Cl  Cl49  1  0.15053283  0.11407154  0.59700048  1  0  -0.600131  0  1.000441  0  0  -0.53784  0  1.290662  0  0  -0.552283  0  1.267903  0  0  -0.335247  -0.527362  0  1.306034  0
