# generated using pymatgen
data_Zn3H42C66(N3O4)4
_symmetry_space_group_name_H-M   'P 1'
_cell_length_a   10.33553589
_cell_length_b   10.56296265
_cell_length_c   14.96630000
_cell_angle_alpha   99.87418977
_cell_angle_beta   99.02526897
_cell_angle_gamma   112.36822503
_symmetry_Int_Tables_number   1
_chemical_formula_structural   Zn3H42C66(N3O4)4
_chemical_formula_sum   'Zn3 H42 C66 N12 O16'
_cell_volume   1443.68130431
_cell_formula_units_Z   1
loop_
 _symmetry_equiv_pos_site_id
 _symmetry_equiv_pos_as_xyz
  1  'x, y, z'
loop_
 _atom_site_type_symbol
 _atom_site_label
 _atom_site_symmetry_multiplicity
 _atom_site_fract_x
 _atom_site_fract_y
 _atom_site_fract_z
 _atom_site_occupancy
 _atom_site_hle17_bader_spin_density
 _atom_site_hle17_ddec_charge
 _atom_site_hle17_ddec_spin_density
 _atom_site_hle17_ddec_sum_bond_order
 _atom_site_hle17_magmom
 _atom_site_hse06_10hf_bader_spin_density
 _atom_site_hse06_10hf_ddec_charge
 _atom_site_hse06_10hf_ddec_spin_density
 _atom_site_hse06_10hf_ddec_sum_bond_order
 _atom_site_hse06_10hf_magmom
 _atom_site_hse06_bader_spin_density
 _atom_site_hse06_ddec_charge
 _atom_site_hse06_ddec_spin_density
 _atom_site_hse06_ddec_sum_bond_order
 _atom_site_hse06_magmom
 _atom_site_pbe_bader_charge
 _atom_site_pbe_bader_spin_density
 _atom_site_pbe_cm5_charge
 _atom_site_pbe_ddec_charge
 _atom_site_pbe_ddec_spin_density
 _atom_site_pbe_ddec_sum_bond_order
 _atom_site_pbe_magmom
Zn  Zn0  1  0.61309911  0.41263569  0.03614755  1  0  1.067872  0  1.816504  0  0  0.884221  0  2.291961  0  0  0.932537  0  2.232799  0  1.295055  0  0.701701  0.850281  0  2.332761  0
Zn  Zn1  1  0.38689672  0.58736166  0.96385228  1  0  1.068018  0  1.816469  0  0  0.884316  0  2.291909  0  0  0.932627  0  2.232745  0  1.295124  0  0.701743  0.850379  0  2.33271  0
Zn  Zn2  1  0.50000145  0.50000238  0.50000075  1  0  0.939226  0  1.967499  0  0  0.747979  0  2.42245  0  0  0.792858  0  2.374916  0  1.299054  0  0.698867  0.716492  0  2.45523  0
H  H3  1  0.58970896  0.89133237  0.07453543  1  0  0.407219  0  0.873074  0  0  0.376639  0  0.951863  0  0  0.388937  0  0.938011  0  0.664185  0  0.304836  0.367924  0  0.961628  0
H  H4  1  0.41029025  0.10866603  0.92546222  1  0  0.40726  0  0.872963  0  0  0.376693  0  0.951729  0  0  0.388987  0  0.93788  0  0.664174  0  0.304867  0.36798  0  0.96149  0
H  H5  1  0.15272366  0.25173187  0.76770690  1  0  0.103208  0  0.929974  0  0  0.116342  0  0.984648  0  0  0.118804  0  0.983127  0  0.132236  0  0.11139  0.114516  0  0.9858  0
H  H6  1  0.84727601  0.74826760  0.23229294  1  0  0.103207  0  0.929965  0  0  0.116346  0  0.984633  0  0  0.118809  0  0.983112  0  0.132265  0  0.111386  0.11452  0  0.985784  0
H  H7  1  0.88197109  0.26959525  0.81752901  1  0  0.085001  0  0.980352  0  0  0.093966  0  1.047875  0  0  0.096703  0  1.04666  0  0.0489  0  0.098464  0.091974  0  1.048899  0
H  H8  1  0.11803144  0.73040633  0.18247272  1  0  0.085047  0  0.98033  0  0  0.094019  0  1.04784  0  0  0.096756  0  1.046624  0  0.048929  0  0.098494  0.092026  0  1.048866  0
H  H9  1  0.56304005  0.42319542  0.69701331  1  0  0.087588  0  0.937741  0  0  0.091397  0  1.007018  0  0  0.094765  0  1.003852  0  0.103774  0  0.118434  0.089026  0  1.009156  0
H  H10  1  0.43695766  0.57680405  0.30298631  1  0  0.087577  0  0.937749  0  0  0.091374  0  1.007038  0  0  0.09474  0  1.003873  0  0.103751  0  0.118414  0.089003  0  1.009176  0
H  H11  1  0.42922904  0.02610355  0.78848869  1  0  0.095889  0  0.988901  0  0  0.101988  0  1.058287  0  0  0.105751  0  1.055862  0  0.111084  0  0.099331  0.099379  0  1.059843  0
H  H12  1  0.57077259  0.97389591  0.21151135  1  0  0.095896  0  0.988889  0  0  0.101994  0  1.058276  0  0  0.10576  0  1.055842  0  0.111052  0  0.099324  0.099381  0  1.059841  0
H  H13  1  0.60431421  0.30660985  0.20405961  1  0  0.096492  0  0.93316  0  0  0.105892  0  0.993236  0  0  0.10859  0  0.990887  0  0.099225  0  0.124889  0.103685  0  0.995371  0
H  H14  1  0.39568742  0.69338961  0.79594110  1  0  0.096492  0  0.93315  0  0  0.105887  0  0.993225  0  0  0.108586  0  0.990876  0  0.099216  0  0.124908  0.103685  0  0.995353  0
H  H15  1  0.11786976  0.49217808  0.20266829  1  0  0.126309  0  0.952083  0  0  0.131235  0  1.018063  0  0  0.135082  0  1.016335  0  0.131198  0  0.114985  0.128353  0  1.019673  0
H  H16  1  0.88212939  0.50782244  0.79732961  1  0  0.12631  0  0.952076  0  0  0.131224  0  1.018068  0  0  0.135072  0  1.016338  0  0.131198  0  0.114984  0.128343  0  1.019677  0
H  H17  1  0.93087715  0.48767441  0.07451572  1  0  0.10194  0  0.936097  0  0  0.109711  0  0.999169  0  0  0.112691  0  0.996148  0  0.168683  0  0.124781  0.107433  0  1.001493  0
H  H18  1  0.06912003  0.51232612  0.92548397  1  0  0.101939  0  0.936064  0  0  0.109712  0  0.999132  0  0  0.112692  0  0.996109  0  0.168656  0  0.124772  0.107434  0  1.001457  0
H  H19  1  0.43834980  0.82812110  0.67430127  1  0  0.090041  0  0.982283  0  0  0.098277  0  1.049189  0  0  0.101804  0  1.047168  0  0.098837  0  0.096828  0.095791  0  1.050543  0
H  H20  1  0.56165424  0.17187942  0.32569917  1  0  0.090009  0  0.982309  0  0  0.098206  0  1.049256  0  0  0.101735  0  1.047236  0  0.098967  0  0.096806  0.095733  0  1.050595  0
H  H21  1  0.41603547  0.31550187  0.80690158  1  0  0.117587  0  0.964484  0  0  0.122817  0  1.029813  0  0  0.126204  0  1.028749  0  0.13337  0  0.107919  0.120254  0  1.030976  0
H  H22  1  0.58396466  0.68449866  0.19309709  1  0  0.117557  0  0.96448  0  0  0.122789  0  1.029809  0  0  0.126174  0  1.028746  0  0.133325  0  0.107914  0.120226  0  1.03097  0
H  H23  1  0.88654652  0.06968213  0.70062417  1  0  0.09582  0  0.957021  0  0  0.104539  0  1.021112  0  0  0.108646  0  1.01798  0  0.087748  0  0.101135  0.101789  0  1.023099  0
H  H24  1  0.11345647  0.93032051  0.29937707  1  0  0.095785  0  0.957043  0  0  0.104475  0  1.02116  0  0  0.108581  0  1.018029  0  0.087747  0  0.101126  0.101729  0  1.023135  0
H  H25  1  0.06162307  0.11120253  0.23642471  1  0  0.10547  0  0.967859  0  0  0.108489  0  1.041271  0  0  0.112477  0  1.038515  0  0.106953  0  0.104048  0.105575  0  1.043264  0
H  H26  1  0.93837472  0.88879482  0.76357533  1  0  0.105524  0  0.96793  0  0  0.108553  0  1.041314  0  0  0.112539  0  1.038565  0  0.106922  0  0.104081  0.105639  0  1.043308  0
H  H27  1  0.97911250  0.08036249  0.39034487  1  0  0.146098  0  0.951374  0  0  0.153151  0  1.013022  0  0  0.158123  0  1.008995  0  0.160733  0  0.116955  0.149692  0  1.01562  0
H  H28  1  0.02088860  0.91963803  0.60965592  1  0  0.146089  0  0.951384  0  0  0.153136  0  1.013042  0  0  0.158107  0  1.009017  0  0.160729  0  0.11695  0.149677  0  1.01564  0
H  H29  1  0.77679578  0.30536118  0.33854701  1  0  0.11361  0  0.985554  0  0  0.122911  0  1.045785  0  0  0.125937  0  1.045331  0  0.113328  0  0.111847  0.120755  0  1.046154  0
H  H30  1  0.22320540  0.69463722  0.66145286  1  0  0.113582  0  0.985502  0  0  0.122884  0  1.045734  0  0  0.125909  0  1.045282  0  0.113339  0  0.111824  0.120728  0  1.046102  0
H  H31  1  0.29198803  0.25432974  0.19912348  1  0  0.106689  0  0.942853  0  0  0.115133  0  1.004419  0  0  0.118445  0  1.002657  0  0.086019  0  0.106347  0.112703  0  1.005833  0
H  H32  1  0.70801308  0.74567079  0.80087930  1  0  0.106708  0  0.942797  0  0  0.11514  0  1.004394  0  0  0.118452  0  1.002632  0  0.08606  0  0.106347  0.112714  0  1.005796  0
H  H33  1  0.04074600  0.29514008  0.62157231  1  0  0.112026  0  0.967466  0  0  0.123025  0  1.024651  0  0  0.125489  0  1.025622  0  0.121637  0  0.109123  0.121173  0  1.024263  0
H  H34  1  0.95925412  0.70486044  0.37842770  1  0  0.112025  0  0.96747  0  0  0.123025  0  1.024652  0  0  0.12549  0  1.025623  0  0.118181  0  0.10912  0.121173  0  1.024265  0
H  H35  1  0.05359370  0.24781337  0.93455034  1  0  0.096161  0  0.958034  0  0  0.105445  0  1.022324  0  0  0.108518  0  1.020611  0  0.083072  0  0.1031  0.103218  0  1.023636  0
H  H36  1  0.94640695  0.75218609  0.06545093  1  0  0.096135  0  0.958066  0  0  0.105421  0  1.022355  0  0  0.108493  0  1.020644  0  0.083057  0  0.103087  0.103198  0  1.023658  0
H  H37  1  0.82311562  0.09761848  0.96873392  1  0  0.104273  0  0.951802  0  0  0.112205  0  1.014736  0  0  0.11501  0  1.014039  0  0.140126  0  0.104463  0.110205  0  1.015283  0
H  H38  1  0.17688412  0.90237887  0.03126567  1  0  0.104266  0  0.951784  0  0  0.112202  0  1.01472  0  0  0.115007  0  1.014024  0  0.140185  0  0.104465  0.110202  0  1.015266  0
H  H39  1  0.59986205  0.98305459  0.50149510  1  0  0.100759  0  0.956941  0  0  0.113231  0  1.01378  0  0  0.115584  0  1.013876  0  0.082435  0  0.108884  0.111415  0  1.014016  0
H  H40  1  0.40013762  0.01694487  0.49850339  1  0  0.100767  0  0.956944  0  0  0.113258  0  1.013754  0  0  0.115592  0  1.013882  0  0.082356  0  0.108878  0.111443  0  1.01399  0
H  H41  1  0.75839554  0.89853551  0.42230377  1  0  0.094  0  0.965361  0  0  0.104081  0  1.024539  0  0  0.105501  0  1.025668  0  0.12837  0  0.106803  0.103025  0  1.023909  0
H  H42  1  0.24160413  0.10146396  0.57769606  1  0  0.094004  0  0.965358  0  0  0.104089  0  1.024528  0  0  0.10551  0  1.025656  0  0.128375  0  0.106806  0.103033  0  1.023899  0
H  H43  1  0.66414516  0.24419223  0.54566730  1  0  0.083843  0  0.933241  0  0  0.089298  0  0.997895  0  0  0.092431  0  0.995413  0  0.104258  0  0.114706  0.087123  0  0.999499  0
H  H44  1  0.33585693  0.75580829  0.45433292  1  0  0.083847  0  0.933214  0  0  0.089293  0  0.997884  0  0  0.092426  0  0.995401  0  0.104239  0  0.114709  0.087117  0  0.999487  0
C  C45  1  0.65765923  0.15867315  0.81302834  1  0  -0.06946  0  3.769334  0  0  -0.044532  0  3.996854  0  0  -0.052588  0  4.020119  0  -0.017345  0  -0.021264  -0.039296  0  3.981182  0
C  C46  1  0.34234187  0.84132737  0.18697245  1  0  -0.069484  0  3.769326  0  0  -0.044559  0  3.996858  0  0  -0.05261  0  4.020118  0  -0.017351  0  -0.021279  -0.039323  0  3.981184  0
C  C47  1  0.66283999  0.93623687  0.68305321  1  0  -0.04963  0  3.747371  0  0  -0.028023  0  3.976507  0  0  -0.032743  0  3.99797  0  -0.029028  0  -0.015491  -0.024943  0  3.961937  0
C  C48  1  0.33716450  0.06376471  0.31694807  1  0  -0.04954  0  3.74728  0  0  -0.027972  0  3.976432  0  0  -0.032689  0  3.997891  0  -0.029168  0  -0.015463  -0.024895  0  3.961868  0
C  C49  1  0.21789146  0.29764483  0.72131101  1  0  0.011191  0  3.695906  0  0  -0.008188  0  3.949333  0  0  -0.005212  0  3.967156  0  -0.035067  0  -0.059414  -0.009991  0  3.937373  0
C  C50  1  0.78210527  0.70235464  0.27868783  1  0  0.011153  0  3.695868  0  0  -0.00823  0  3.949298  0  0  -0.005256  0  3.967125  0  -0.035347  0  -0.059419  -0.010032  0  3.937338  0
C  C51  1  0.07516744  0.40938703  0.35995954  1  0  0.263333  0  3.698164  0  0  0.227055  0  3.980836  0  0  0.237984  0  3.993153  0  0.949804  0  0.232555  0.219763  0  3.972863  0
C  C52  1  0.92483321  0.59061243  0.64004040  1  0  0.263478  0  3.698059  0  0  0.22713  0  3.980872  0  0  0.238062  0  3.993186  0  0.949782  0  0.232572  0.219839  0  3.972898  0
C  C53  1  0.78544501  0.17184979  0.78603514  1  0  -0.074477  0  3.753552  0  0  -0.095349  0  3.997248  0  0  -0.095915  0  4.018584  0  -0.035757  0  -0.087271  -0.094829  0  3.982884  0
C  C54  1  0.21455700  0.82815285  0.21396599  1  0  -0.074614  0  3.753642  0  0  -0.095483  0  3.997322  0  0  -0.096051  0  4.018657  0  -0.035729  0  -0.087344  -0.094963  0  3.982958  0
C  C55  1  0.96369976  0.39851937  0.28271024  1  0  0.068913  0  3.760245  0  0  0.081446  0  3.997035  0  0  0.085618  0  4.016513  0  0.016821  0  0.022829  0.078587  0  3.98433  0
C  C56  1  0.03629848  0.60147904  0.71728931  1  0  0.06885  0  3.760271  0  0  0.081408  0  3.997084  0  0  0.085581  0  4.016563  0  0.016763  0  0.022818  0.078549  0  3.98438  0
C  C57  1  0.32242992  0.34110912  0.03993572  1  0  0.680653  0  3.851719  0  0  0.626916  0  4.141139  0  0  0.663391  0  4.131085  0  1.527001  0  0.224007  0.601994  0  4.147388  0
C  C58  1  0.67756930  0.65888928  0.96006661  1  0  0.680738  0  3.851567  0  0  0.627  0  4.140975  0  0  0.663488  0  4.130911  0  1.52682  0  0.224094  0.602075  0  4.147223  0
C  C59  1  0.44666206  0.39172470  0.68288599  1  0  0.137375  0  3.666134  0  0  0.108688  0  3.916265  0  0  0.114456  0  3.933146  0  0.482915  0  0.057844  0.104903  0  3.90482  0
C  C60  1  0.55333663  0.60827476  0.31711306  1  0  0.13735  0  3.666145  0  0  0.108677  0  3.916266  0  0  0.114449  0  3.933145  0  0.483042  0  0.057848  0.104893  0  3.904821  0
C  C61  1  0.53079004  0.03521144  0.77176261  1  0  -0.068724  0  3.722506  0  0  -0.091267  0  3.966904  0  0  -0.09141  0  3.986926  0  -0.055813  0  -0.086271  -0.090918  0  3.953018  0
C  C62  1  0.46921151  0.96479015  0.22823568  1  0  -0.068699  0  3.722445  0  0  -0.091239  0  3.966836  0  0  -0.091383  0  3.986858  0  -0.055828  0  -0.086246  -0.090889  0  3.95295  0
C  C63  1  0.92867190  0.09473490  0.10447214  1  0  -0.072306  0  3.770124  0  0  -0.049545  0  4.000564  0  0  -0.056776  0  4.024565  0  -0.08775  0  -0.016346  -0.044595  0  3.984272  0
C  C64  1  0.07132633  0.90526351  0.89552608  1  0  -0.072243  0  3.770008  0  0  -0.04957  0  4.000593  0  0  -0.056792  0  4.024587  0  -0.087612  0  -0.016361  -0.044614  0  3.984299  0
C  C65  1  0.93004389  0.25109483  0.45263058  1  0  0.312966  0  3.784961  0  0  0.296517  0  4.047908  0  0  0.306386  0  4.065952  0  0.79632  0  0.21099  0.289736  0  4.035803  0
C  C66  1  0.06995767  0.74890675  0.54736971  1  0  0.313006  0  3.784914  0  0  0.296571  0  4.04787  0  0  0.306439  0  4.065916  0  0.796317  0  0.210996  0.289791  0  4.035766  0
C  C67  1  0.19429719  0.40275215  0.49199625  1  0  0.282136  0  3.697746  0  0  0.236263  0  3.973451  0  0  0.251731  0  3.982406  0  1.0182  0  0.247394  0.226129  0  3.967336  0
C  C68  1  0.80570339  0.59724943  0.50800327  1  0  0.282138  0  3.69768  0  0  0.236315  0  3.973346  0  0  0.251778  0  3.982305  0  1.017956  0  0.247436  0.226179  0  3.96723  0
C  C69  1  0.71913707  0.34575989  0.20666296  1  0  0.139066  0  3.687643  0  0  0.108275  0  3.935736  0  0  0.115758  0  3.953496  0  0.517793  0  0.053799  0.103223  0  3.924035  0
C  C70  1  0.28086260  0.65423957  0.79333821  1  0  0.13913  0  3.687664  0  0  0.108352  0  3.935756  0  0  0.115834  0  3.953515  0  0.517831  0  0.053806  0.103296  0  3.924054  0
C  C71  1  0.00558115  0.45025346  0.20635527  1  0  -0.128507  0  3.675783  0  0  -0.14855  0  3.922829  0  0  -0.155925  0  3.944254  0  0.030459  0  -0.067739  -0.144131  0  3.909145  0
C  C72  1  0.99441897  0.54974706  0.79364474  1  0  -0.128522  0  3.675778  0  0  -0.148559  0  3.922832  0  0  -0.155936  0  3.944258  0  0.030504  0  -0.067773  -0.144142  0  3.90915  0
C  C73  1  0.90207824  0.44882172  0.13472765  1  0  0.129777  0  3.681029  0  0  0.097577  0  3.933453  0  0  0.104569  0  3.951356  0  0.421247  0  0.051507  0.093049  0  3.921387  0
C  C74  1  0.09792090  0.55117880  0.86527359  1  0  0.12978  0  3.681008  0  0  0.097586  0  3.93343  0  0  0.104581  0  3.951331  0  0.421226  0  0.051531  0.093058  0  3.921366  0
C  C75  1  0.53458142  0.92535122  0.70748487  1  0  -0.085027  0  3.755734  0  0  -0.106388  0  4.003872  0  0  -0.108418  0  4.024576  0  -0.112802  0  -0.091386  -0.10462  0  3.989393  0
C  C76  1  0.46542021  0.07464824  0.29251517  1  0  -0.085041  0  3.75576  0  0  -0.106356  0  4.003915  0  0  -0.10839  0  4.024621  0  -0.11287  0  -0.09138  -0.104596  0  3.989428  0
C  C77  1  0.36559264  0.33358642  0.74378334  1  0  -0.095303  0  3.683164  0  0  -0.111673  0  3.939483  0  0  -0.117206  0  3.959889  0  -0.024664  0  -0.07486  -0.108299  0  3.926288  0
C  C78  1  0.63440605  0.66641305  0.25621639  1  0  -0.095228  0  3.683096  0  0  -0.111592  0  3.939397  0  0  -0.117126  0  3.959805  0  -0.024432  0  -0.074854  -0.10822  0  3.926202  0
C  C79  1  0.66343661  0.27530739  0.88766452  1  0  0.636988  0  3.895818  0  0  0.588225  0  4.182631  0  0  0.622075  0  4.175789  0  1.505502  0  0.206125  0.565236  0  4.186491  0
C  C80  1  0.33656449  0.72469313  0.11233559  1  0  0.637007  0  3.895766  0  0  0.588246  0  4.182574  0  0  0.622094  0  4.175732  0  1.505497  0  0.206134  0.565257  0  4.186434  0
C  C81  1  0.24335355  0.37541263  0.58080873  1  0  0.164665  0  3.762788  0  0  0.163533  0  4.008759  0  0  0.168761  0  4.026301  0  0.512685  0  0.129283  0.159854  0  3.997072  0
C  C82  1  0.75664703  0.62458895  0.41919146  1  0  0.164691  0  3.762766  0  0  0.163544  0  4.008748  0  0  0.168778  0  4.026283  0  0.512888  0  0.129283  0.159868  0  3.997056  0
C  C83  1  0.78807004  0.06181234  0.72170361  1  0  -0.084802  0  3.762136  0  0  -0.105073  0  4.009219  0  0  -0.107285  0  4.030214  0  -0.015769  0  -0.087888  -0.103484  0  3.994767  0
C  C84  1  0.21193438  0.93819136  0.27829792  1  0  -0.084714  0  3.762184  0  0  -0.104952  0  4.009268  0  0  -0.107163  0  4.030263  0  -0.015737  0  -0.087861  -0.103361  0  3.994815  0
C  C85  1  0.18600261  0.25882177  0.06421966  1  0  -0.059266  0  3.743461  0  0  -0.036439  0  3.974029  0  0  -0.044571  0  3.997344  0  0.050612  0  -0.010968  -0.030886  0  3.958078  0
C  C86  1  0.81399948  0.74117875  0.93578257  1  0  -0.059393  0  3.743496  0  0  -0.036577  0  3.974092  0  0  -0.044708  0  3.997406  0  0.050624  0  -0.010985  -0.031021  0  3.958139  0
C  C87  1  0.06051794  0.14033781  0.16997233  1  0  -0.070424  0  3.720432  0  0  -0.095329  0  3.974496  0  0  -0.097053  0  3.995948  0  0.004711  0  -0.081609  -0.094061  0  3.960158  0
C  C88  1  0.93947932  0.85966060  0.83002645  1  0  -0.070577  0  3.720436  0  0  -0.095454  0  3.974531  0  0  -0.097179  0  3.995983  0  0.004707  0  -0.081645  -0.094186  0  3.960193  0
C  C89  1  0.90437682  0.10933270  0.42352239  1  0  -0.165633  0  3.65256  0  0  -0.186225  0  3.895876  0  0  -0.192125  0  3.91377  0  0.044449  0  -0.074167  -0.181986  0  3.883451  0
C  C90  1  0.09562331  0.89066783  0.57647762  1  0  -0.165611  0  3.652542  0  0  -0.186191  0  3.895856  0  0  -0.192092  0  3.913752  0  0.04446  0  -0.07415  -0.181953  0  3.883431  0
C  C91  1  0.66748571  0.81453705  0.61559606  1  0  0.628181  0  3.942791  0  0  0.583319  0  4.238265  0  0  0.616613  0  4.23098  0  1.596439  0  0.193147  0.560793  0  4.242206  0
C  C92  1  0.33251780  0.18546453  0.38440378  1  0  0.628259  0  3.942762  0  0  0.583467  0  4.238142  0  0  0.616759  0  4.230853  0  1.596502  0  0.19324  0.560941  0  4.242086  0
C  C93  1  0.81634067  0.34410382  0.28115966  1  0  -0.140782  0  3.684293  0  0  -0.164181  0  3.934149  0  0  -0.171041  0  3.954321  0  -0.055752  0  -0.079412  -0.159926  0  3.920857  0
C  C94  1  0.18365953  0.65589459  0.71884077  1  0  -0.140765  0  3.68427  0  0  -0.164161  0  3.93412  0  0  -0.171022  0  3.954293  0  -0.055712  0  -0.079385  -0.159906  0  3.920828  0
C  C95  1  0.18881540  0.22070771  0.14957081  1  0  -0.056085  0  3.69384  0  0  -0.080189  0  3.943797  0  0  -0.080392  0  3.963769  0  -0.008478  0  -0.077778  -0.08013  0  3.930428  0
C  C96  1  0.81118517  0.77929387  0.85043071  1  0  -0.056012  0  3.693758  0  0  -0.080107  0  3.943712  0  0  -0.080316  0  3.963686  0  -0.008498  0  -0.077783  -0.080049  0  3.930346  0
C  C97  1  0.15525842  0.31980872  0.63931134  1  0  -0.143571  0  3.697641  0  0  -0.166616  0  3.947081  0  0  -0.17245  0  3.968288  0  -0.036099  0  -0.080158  -0.162885  0  3.93304  0
C  C98  1  0.84474170  0.68019180  0.36068800  1  0  -0.14356  0  3.697574  0  0  -0.166601  0  3.947011  0  0  -0.172438  0  3.968221  0  -0.032626  0  -0.080147  -0.162871  0  3.932971  0
C  C99  1  0.05367666  0.21678181  0.00020613  1  0  -0.062362  0  3.718798  0  0  -0.086374  0  3.969061  0  0  -0.087583  0  3.990667  0  -0.031594  0  -0.081011  -0.085425  0  3.95425  0
C  C100  1  0.94632542  0.78321872  0.99979476  1  0  -0.062341  0  3.718852  0  0  -0.086329  0  3.969083  0  0  -0.087537  0  3.990684  0  -0.031609  0  -0.080998  -0.085382  0  3.954278  0
C  C101  1  0.79441298  0.00224866  0.12682651  1  0  0.637456  0  3.830531  0  0  0.58955  0  4.129526  0  0  0.621731  0  4.121467  0  1.514302  0  0.226312  0.567632  0  4.134482  0
C  C102  1  0.20558134  0.99774974  0.87317195  1  0  0.637491  0  3.830335  0  0  0.58957  0  4.129407  0  0  0.621749  0  4.121347  0  1.514465  0  0.226346  0.567651  0  4.134366  0
C  C103  1  0.92551699  0.13386271  0.01953001  1  0  -0.058851  0  3.715058  0  0  -0.083541  0  3.966529  0  0  -0.084691  0  3.988359  0  -0.081196  0  -0.077704  -0.082685  0  3.951604  0
C  C104  1  0.07448313  0.86613781  0.98046866  1  0  -0.058851  0  3.71497  0  0  -0.083519  0  3.966478  0  0  -0.084671  0  3.988306  0  -0.081398  0  -0.077709  -0.082668  0  3.951554  0
C  C105  1  0.69452603  0.05773300  0.48571639  1  0  -0.118416  0  3.730659  0  0  -0.133533  0  3.978187  0  0  -0.139701  0  4.000621  0  -0.047359  0  -0.079627  -0.129435  0  3.963128  0
C  C106  1  0.30547455  0.94226858  0.51428313  1  0  -0.11843  0  3.730625  0  0  -0.133559  0  3.978156  0  0  -0.139715  0  4.000589  0  -0.047297  0  -0.079637  -0.129462  0  3.963098  0
C  C107  1  0.78276376  0.01057137  0.44153812  1  0  0.030547  0  3.690958  0  0  0.017365  0  3.930257  0  0  0.020086  0  3.949587  0  -0.013945  0  -0.056466  0.015648  0  3.917018  0
C  C108  1  0.21723636  0.98942916  0.55846055  1  0  0.030541  0  3.690968  0  0  0.017352  0  3.930272  0  0  0.020076  0  3.949593  0  -0.013967  0  -0.056463  0.015635  0  3.917035  0
C  C109  1  0.73051539  0.20261258  0.51122067  1  0  0.128011  0  3.714414  0  0  0.104614  0  3.979193  0  0  0.109613  0  3.995731  0  0.483178  0  0.04663  0.101327  0  3.96793  0
C  C110  1  0.26948526  0.79738689  0.48877860  1  0  0.12798  0  3.714349  0  0  0.104589  0  3.979143  0  0  0.10959  0  3.995678  0  0.483199  0  0.046611  0.101302  0  3.967882  0
N  N111  1  0.76074972  0.39870350  0.13506141  1  0  -0.346614  0  3.31994  0  0  -0.261121  0  3.597671  0  0  -0.281189  0  3.612643  0  -1.263243  0  -0.337338  -0.247615  0  3.587372  0
N  N112  1  0.23924799  0.60129597  0.86494021  1  0  -0.346656  0  3.320045  0  0  -0.261188  0  3.59782  0  0  -0.281254  0  3.612786  0  -1.26326  0  -0.337357  -0.247683  0  3.587524  0
N  N113  1  0.38699161  0.41088967  0.60308267  1  0  -0.313563  0  3.2161  0  0  -0.244756  0  3.469831  0  0  -0.2593  0  3.484168  0  -1.199544  0  -0.304192  -0.234875  0  3.460155  0
N  N114  1  0.61300851  0.58911085  0.39691668  1  0  -0.313579  0  3.216082  0  0  -0.244781  0  3.469828  0  0  -0.259327  0  3.484162  0  -1.199481  0  -0.304191  -0.234901  0  3.460152  0
N  N115  1  0.28754851  0.47864377  0.44880663  1  0  -0.248118  0  3.195014  0  0  -0.189243  0  3.489858  0  0  -0.203448  0  3.50107  0  -0.70453  0  -0.214704  -0.179879  0  3.482373  0
N  N116  1  0.71245063  0.52135675  0.55119260  1  0  -0.248125  0  3.19487  0  0  -0.189223  0  3.489668  0  0  -0.203428  0  3.500888  0  -0.704526  0  -0.214739  -0.179864  0  3.482197  0
N  N117  1  0.05793516  0.35693549  0.43816593  1  0  -0.202571  0  3.456494  0  0  -0.127328  0  3.684221  0  0  -0.143114  0  3.702832  0  -1.205902  0  -0.198663  -0.116929  0  3.671701  0
N  N118  1  0.94206496  0.64306504  0.56183408  1  0  -0.202631  0  3.456501  0  0  -0.127459  0  3.684353  0  0  -0.143244  0  3.702962  0  -1.205884  0  -0.198676  -0.11706  0  3.671832  0
N  N119  1  0.21512214  0.48220566  0.36683945  1  0  -0.21967  0  2.924207  0  0  -0.209236  0  3.210654  0  0  -0.215923  0  3.223742  0  -0.629655  0  -0.193816  -0.20468  0  3.201934  0
N  N120  1  0.78487708  0.51779275  0.63315954  1  0  -0.219709  0  2.924165  0  0  -0.20925  0  3.210615  0  0  -0.215938  0  3.223704  0  -0.629605  0  -0.193797  -0.204693  0  3.201894  0
N  N121  1  0.84799446  0.29954323  0.49536655  1  0  -0.36675  0  3.084529  0  0  -0.343024  0  3.364088  0  0  -0.353722  0  3.378921  0  -1.221787  0  -0.321297  -0.335661  0  3.354021  0
N  N122  1  0.15200566  0.70045729  0.50463412  1  0  -0.366755  0  3.084511  0  0  -0.343024  0  3.364065  0  0  -0.353722  0  3.3789  0  -1.221774  0  -0.321291  -0.335661  0  3.353999  0
O  O123  1  0.44163048  0.35967727  0.09233667  1  0  -0.628607  0  2.054676  0  0  -0.557005  0  2.322879  0  0  -0.584971  0  2.307881  0  -1.17367  0  -0.307939  -0.537722  0  2.332685  0
O  O124  1  0.55836685  0.64031902  0.90766453  1  0  -0.62879  0  2.054746  0  0  -0.557094  0  2.322867  0  0  -0.585064  0  2.307864  0  -1.173693  0  -0.308023  -0.537812  0  2.332675  0
O  O125  1  0.31399446  0.38639775  0.96593538  1  0  -0.66532  0  2.092339  0  0  -0.596518  0  2.383501  0  0  -0.622699  0  2.363106  0  -1.192846  0  -0.329271  -0.577918  0  2.396922  0
O  O126  1  0.68600763  0.61360277  0.03406885  1  0  -0.665145  0  2.092103  0  0  -0.59648  0  2.38342  0  0  -0.622651  0  2.362986  0  -1.192659  0  -0.329278  -0.577894  0  2.396877  0
O  O127  1  0.55019215  0.25157102  0.92322219  1  0  -0.676245  0  2.094524  0  0  -0.590225  0  2.352491  0  0  -0.620342  0  2.336599  0  -1.17203  0  -0.323418  -0.569149  0  2.362943  0
O  O128  1  0.44980752  0.74842844  0.07677697  1  0  -0.676231  0  2.094576  0  0  -0.590195  0  2.352538  0  0  -0.620314  0  2.336647  0  -1.172039  0  -0.323386  -0.569117  0  2.362989  0
O  O129  1  0.54775831  0.70344140  0.58444433  1  0  -0.655057  0  2.047388  0  0  -0.597604  0  2.313469  0  0  -0.62604  0  2.303805  0  -1.175601  0  -0.338323  -0.57716  0  2.318812  0
O  O130  1  0.45224520  0.29656018  0.41556086  1  0  -0.655098  0  2.047538  0  0  -0.597673  0  2.313604  0  0  -0.626109  0  2.303938  0  -1.175756  0  -0.338324  -0.577227  0  2.318951  0
O  O131  1  0.67492658  0.96343671  0.05904835  1  0  -0.549809  0  2.061787  0  0  -0.500132  0  2.271805  0  0  -0.520896  0  2.256914  0  -1.178199  0  -0.340278  -0.485483  0  2.281618  0
O  O132  1  0.32507075  0.03655958  0.94094817  1  0  -0.549875  0  2.06163  0  0  -0.500193  0  2.271664  0  0  -0.520954  0  2.256774  0  -1.178297  0  -0.340331  -0.485548  0  2.281477  0
O  O133  1  0.78606666  0.83206923  0.59595174  1  0  -0.625803  0  1.961  0  0  -0.584149  0  2.195165  0  0  -0.608382  0  2.190502  0  -1.188497  0  -0.326399  -0.566736  0  2.197256  0
O  O134  1  0.21393293  0.16793235  0.40404099  1  0  -0.625887  0  1.960983  0  0  -0.584254  0  2.195109  0  0  -0.60849  0  2.190451  0  -1.188461  0  -0.326493  -0.566844  0  2.197203  0
O  O135  1  0.77273292  0.39042418  0.91718202  1  0  -0.601041  0  1.923718  0  0  -0.549837  0  2.147181  0  0  -0.573864  0  2.140239  0  -1.169395  0  -0.305946  -0.532872  0  2.151358  0
O  O136  1  0.22726623  0.60957634  0.08281788  1  0  -0.601069  0  1.923581  0  0  -0.549898  0  2.147103  0  0  -0.573925  0  2.140158  0  -1.169374  0  -0.305983  -0.532935  0  2.151281  0
O  O137  1  0.79380253  0.96458062  0.20034445  1  0  -0.556017  0  1.924983  0  0  -0.516124  0  2.145018  0  0  -0.536248  0  2.139268  0  -1.159907  0  -0.294397  -0.502188  0  2.148587  0
O  O138  1  0.20619510  0.03542096  0.79965541  1  0  -0.556032  0  1.924904  0  0  -0.516121  0  2.144954  0  0  -0.536244  0  2.139201  0  -1.159933  0  -0.294415  -0.502184  0  2.148519  0
