# generated using pymatgen
data_TlH16(C5N2)4
_symmetry_space_group_name_H-M   'P 1'
_cell_length_a   3.85833029
_cell_length_b   15.82991376
_cell_length_c   15.82998050
_cell_angle_alpha   90.00100375
_cell_angle_beta   89.99979235
_cell_angle_gamma   90.00149248
_symmetry_Int_Tables_number   1
_chemical_formula_structural   TlH16(C5N2)4
_chemical_formula_sum   'Tl2 H32 C40 N16'
_cell_volume   966.84828497
_cell_formula_units_Z   2
loop_
 _symmetry_equiv_pos_site_id
 _symmetry_equiv_pos_as_xyz
  1  'x, y, z'
loop_
 _atom_site_type_symbol
 _atom_site_label
 _atom_site_symmetry_multiplicity
 _atom_site_fract_x
 _atom_site_fract_y
 _atom_site_fract_z
 _atom_site_occupancy
 _atom_site_pbe_bader_spin_density
 _atom_site_pbe_cm5_charge
 _atom_site_pbe_ddec_charge
 _atom_site_pbe_ddec_spin_density
 _atom_site_pbe_ddec_sum_bond_order
 _atom_site_pbe_magmom
Tl  Tl0  1  0.11147295  0.25000958  0.24999491  1  0  0.417341  0.690648  0  1.162551  0
Tl  Tl1  1  0.88853677  0.74999195  0.75000931  1  0  0.417352  0.690646  0  1.16254  0
H  H2  1  0.99973302  0.35154493  0.84021186  1  0  0.097568  0.140544  0  0.991543  0
H  H3  1  0.99971225  0.65977985  0.35154182  1  0  0.097491  0.140472  0  0.991691  0
H  H4  1  0.99973478  0.14846328  0.65978661  1  0  0.097467  0.140412  0  0.99165  0
H  H5  1  0.99978956  0.84021936  0.14845850  1  0  0.097517  0.140516  0  0.991686  0
H  H6  1  0.00028188  0.64845155  0.15978794  1  0  0.097587  0.140558  0  0.991542  0
H  H7  1  0.00028451  0.34022105  0.64845482  1  0  0.097529  0.140534  0  0.991668  0
H  H8  1  0.00026716  0.85153320  0.34021066  1  0  0.097457  0.140415  0  0.991572  0
H  H9  1  0.00022016  0.15978154  0.85153940  1  0  0.097489  0.14046  0  0.991684  0
H  H10  1  0.98248294  0.44985888  0.78436553  1  0  0.09119  0.131878  0  1.038939  0
H  H11  1  0.98246557  0.71563504  0.44984881  1  0  0.091185  0.131929  0  1.038917  0
H  H12  1  0.98247771  0.05016059  0.71563295  1  0  0.09118  0.131862  0  1.038994  0
H  H13  1  0.98254204  0.78436407  0.05015656  1  0  0.091126  0.131835  0  1.038806  0
H  H14  1  0.01752678  0.55013886  0.21563680  1  0  0.091182  0.13186  0  1.038893  0
H  H15  1  0.01753119  0.28436839  0.55014783  1  0  0.091211  0.131941  0  1.038965  0
H  H16  1  0.01752683  0.94983779  0.28436369  1  0  0.091173  0.131865  0  1.039025  0
H  H17  1  0.01747545  0.21563620  0.94984134  1  0  0.091098  0.131802  0  1.038808  0
H  H18  1  0.38273374  0.40928479  0.82292371  1  0  0.097429  0.142644  0  1.010559  0
H  H19  1  0.38270458  0.67707922  0.40927046  1  0  0.097454  0.142728  0  1.010523  0
H  H20  1  0.38270285  0.09073535  0.67707866  1  0  0.097418  0.142708  0  1.010435  0
H  H21  1  0.38276083  0.82293635  0.09072555  1  0  0.097403  0.14268  0  1.010433  0
H  H22  1  0.61727339  0.59071611  0.17708115  1  0  0.097431  0.142606  0  1.010557  0
H  H23  1  0.61729736  0.32292358  0.59072618  1  0  0.097441  0.142722  0  1.010553  0
H  H24  1  0.61729391  0.90926366  0.32291987  1  0  0.097439  0.142697  0  1.010475  0
H  H25  1  0.61725148  0.17706644  0.90927173  1  0  0.097408  0.142684  0  1.010461  0
H  H26  1  0.24740617  0.43694113  0.13166790  1  0  0.110046  0.132236  0  1.013664  0
H  H27  1  0.24743723  0.36832752  0.43694373  1  0  0.110068  0.132239  0  1.013548  0
H  H28  1  0.24740344  0.06305867  0.36832568  1  0  0.110028  0.132178  0  1.013684  0
H  H29  1  0.24736201  0.13168429  0.06305806  1  0  0.109977  0.132213  0  1.013636  0
H  H30  1  0.75257504  0.56305408  0.86833569  1  0  0.110091  0.13231  0  1.01365  0
H  H31  1  0.75256990  0.63167591  0.56305544  1  0  0.110046  0.132208  0  1.013596  0
H  H32  1  0.75260110  0.93694034  0.63167222  1  0  0.110025  0.13216  0  1.013684  0
H  H33  1  0.75264253  0.86831724  0.93693984  1  0  0.109989  0.132294  0  1.013597  0
C  C34  1  0.13508788  0.46555763  0.07518673  1  0  -0.085393  -0.226418  0  3.896387  0
C  C35  1  0.13509339  0.42481730  0.46556903  1  0  -0.085456  -0.226482  0  3.896746  0
C  C36  1  0.13508052  0.03443389  0.42480940  1  0  -0.08535  -0.226364  0  3.895837  0
C  C37  1  0.13506464  0.07519507  0.03443783  1  0  -0.085397  -0.226267  0  3.896855  0
C  C38  1  0.86489333  0.53443759  0.92481686  1  0  -0.085449  -0.226394  0  3.896517  0
C  C39  1  0.86490855  0.57518676  0.53443203  1  0  -0.085455  -0.22647  0  3.896671  0
C  C40  1  0.86492920  0.96556511  0.57518850  1  0  -0.085332  -0.226357  0  3.896079  0
C  C41  1  0.86493213  0.92480647  0.96555881  1  0  -0.085348  -0.226248  0  3.89667  0
C  C42  1  0.19311138  0.42463829  0.99546482  1  0  0.142648  0.222802  0  4.020146  0
C  C43  1  0.19313374  0.50453771  0.42463601  1  0  0.142679  0.222724  0  4.020617  0
C  C44  1  0.19310936  0.07535793  0.50453632  1  0  0.142568  0.222732  0  4.01922  0
C  C45  1  0.19310546  0.99547226  0.07535940  1  0  0.142585  0.222418  0  4.02131  0
C  C46  1  0.80686724  0.57535756  0.00453941  1  0  0.142652  0.222673  0  4.020103  0
C  C47  1  0.80686303  0.49546509  0.57536506  1  0  0.142708  0.222774  0  4.020602  0
C  C48  1  0.80689518  0.92463982  0.49546221  1  0  0.142565  0.222798  0  4.019263  0
C  C49  1  0.80689648  0.00452991  0.92463914  1  0  0.142538  0.222321  0  4.021461  0
C  C50  1  0.50967709  0.31068091  0.04873173  1  0  0.292071  0.402719  0  4.244604  0
C  C51  1  0.50971491  0.45126198  0.31068528  1  0  0.292032  0.402968  0  4.244535  0
C  C52  1  0.50969880  0.18932117  0.45125612  1  0  0.292011  0.402861  0  4.244726  0
C  C53  1  0.50969468  0.04875399  0.18932153  1  0  0.291802  0.402848  0  4.244993  0
C  C54  1  0.49030153  0.68931621  0.95127312  1  0  0.292138  0.403032  0  4.244597  0
C  C55  1  0.49028704  0.54874145  0.68931705  1  0  0.292025  0.402813  0  4.244753  0
C  C56  1  0.49030314  0.81067910  0.54874621  1  0  0.291986  0.402844  0  4.244622  0
C  C57  1  0.49029690  0.95124755  0.81067701  1  0  0.291818  0.402811  0  4.244955  0
C  C58  1  0.05059419  0.46099366  0.91858255  1  0  0.010492  0.129207  0  3.92514  0
C  C59  1  0.05060686  0.58141671  0.46098607  1  0  0.010632  0.12947  0  3.925524  0
C  C60  1  0.05060171  0.03902252  0.58142430  1  0  0.010598  0.129319  0  3.924883  0
C  C61  1  0.05063082  0.91858099  0.03901757  1  0  0.010601  0.129122  0  3.925808  0
C  C62  1  0.94938962  0.53900156  0.08142167  1  0  0.010551  0.129426  0  3.925052  0
C  C63  1  0.94939250  0.41858672  0.53901309  1  0  0.010558  0.129356  0  3.925673  0
C  C64  1  0.94940283  0.96097586  0.41857424  1  0  0.01055  0.129358  0  3.924625  0
C  C65  1  0.94937372  0.08141928  0.96097970  1  0  0.0106  0.129167  0  3.925766  0
C  C66  1  0.10516567  0.41601434  0.83666796  1  0  -0.240154  -0.418361  0  3.955371  0
C  C67  1  0.10515364  0.66333292  0.41600379  1  0  -0.240085  -0.418347  0  3.955399  0
C  C68  1  0.10515774  0.08399901  0.66333446  1  0  -0.240055  -0.418206  0  3.955239  0
C  C69  1  0.10520897  0.83667018  0.08399605  1  0  -0.24003  -0.418122  0  3.955237  0
C  C70  1  0.89483887  0.58398340  0.16333436  1  0  -0.240135  -0.418287  0  3.955397  0
C  C71  1  0.89484053  0.33666799  0.58399538  1  0  -0.240132  -0.418413  0  3.955455  0
C  C72  1  0.89484680  0.91599936  0.33666408  1  0  -0.240002  -0.418193  0  3.955091  0
C  C73  1  0.89480076  0.16333072  0.91600122  1  0  -0.239987  -0.418053  0  3.95512  0
N  N74  1  0.37489092  0.35329853  0.98673454  1  0  -0.284349  -0.315387  0  3.404767  0
N  N75  1  0.37491069  0.51326480  0.35330433  1  0  -0.284339  -0.315576  0  3.405026  0
N  N76  1  0.37491715  0.14671272  0.51325583  1  0  -0.284409  -0.315525  0  3.404493  0
N  N77  1  0.37488992  0.98675009  0.14669989  1  0  -0.284095  -0.315185  0  3.40488  0
N  N78  1  0.62508770  0.64669479  0.01327032  1  0  -0.284383  -0.315514  0  3.404756  0
N  N79  1  0.62509385  0.48673926  0.64669547  1  0  -0.28429  -0.315423  0  3.404834  0
N  N80  1  0.62508480  0.85328566  0.48674207  1  0  -0.284382  -0.315521  0  3.404347  0
N  N81  1  0.62511202  0.01325271  0.85329928  1  0  -0.284113  -0.31514  0  3.404896  0
N  N82  1  0.64270292  0.26329803  0.09670483  1  0  -0.335945  -0.514656  0  2.859932  0
N  N83  1  0.64275495  0.40329331  0.26329755  1  0  -0.335903  -0.514737  0  2.8601  0
N  N84  1  0.64273366  0.23670487  0.40328868  1  0  -0.335888  -0.514703  0  2.859816  0
N  N85  1  0.64273866  0.09671970  0.23670986  1  0  -0.335789  -0.514754  0  2.860356  0
N  N86  1  0.35729125  0.73669971  0.90330255  1  0  -0.33596  -0.514796  0  2.860023  0
N  N87  1  0.35725737  0.59670696  0.73670225  1  0  -0.33592  -0.514664  0  2.860372  0
N  N88  1  0.35726829  0.76329730  0.59671365  1  0  -0.335899  -0.514727  0  2.859852  0
N  N89  1  0.35725292  0.90328246  0.76329120  1  0  -0.335813  -0.514756  0  2.860398  0
