# generated using pymatgen
data_CdH12C14(SN2)2
_symmetry_space_group_name_H-M   'P 1'
_cell_length_a   8.04858562
_cell_length_b   10.04934552
_cell_length_c   10.66250926
_cell_angle_alpha   84.86174095
_cell_angle_beta   72.30249434
_cell_angle_gamma   70.85693668
_symmetry_Int_Tables_number   1
_chemical_formula_structural   CdH12C14(SN2)2
_chemical_formula_sum   'Cd2 H24 C28 S4 N8'
_cell_volume   776.12034422
_cell_formula_units_Z   2
loop_
 _symmetry_equiv_pos_site_id
 _symmetry_equiv_pos_as_xyz
  1  'x, y, z'
loop_
 _atom_site_type_symbol
 _atom_site_label
 _atom_site_symmetry_multiplicity
 _atom_site_fract_x
 _atom_site_fract_y
 _atom_site_fract_z
 _atom_site_occupancy
 _atom_site_hle17_bader_spin_density
 _atom_site_hle17_ddec_charge
 _atom_site_hle17_ddec_spin_density
 _atom_site_hle17_ddec_sum_bond_order
 _atom_site_hle17_magmom
 _atom_site_hse06_10hf_bader_spin_density
 _atom_site_hse06_10hf_ddec_charge
 _atom_site_hse06_10hf_ddec_spin_density
 _atom_site_hse06_10hf_ddec_sum_bond_order
 _atom_site_hse06_10hf_magmom
 _atom_site_hse06_bader_spin_density
 _atom_site_hse06_ddec_charge
 _atom_site_hse06_ddec_spin_density
 _atom_site_hse06_ddec_sum_bond_order
 _atom_site_hse06_magmom
 _atom_site_pbe_bader_spin_density
 _atom_site_pbe_cm5_charge
 _atom_site_pbe_ddec_charge
 _atom_site_pbe_ddec_spin_density
 _atom_site_pbe_ddec_sum_bond_order
 _atom_site_pbe_magmom
Cd  Cd0  1  0.59951158  0.38273479  0.23716578  1  0  0.953039  0  2.009951  0  0  0.766826  0  2.48357  0  0  0.811707  0  2.445678  0  0  0.728641  0.736457  0  2.507493  0
Cd  Cd1  1  0.40049393  0.61725964  0.76283989  1  0  0.953034  0  2.010125  0  0  0.766843  0  2.483741  0  0  0.811718  0  2.445847  0  0  0.728619  0.736477  0  2.507673  0
H  H2  1  0.58298509  0.15091735  0.47192815  1  0  0.061795  0  0.974343  0  0  0.066752  0  1.048211  0  0  0.068864  0  1.046731  0  0  0.104429  0.06537  0  1.048856  0
H  H3  1  0.41701943  0.84908547  0.52807134  1  0  0.061796  0  0.974345  0  0  0.066742  0  1.048235  0  0  0.068853  0  1.046756  0  0  0.104424  0.065359  0  1.048884  0
H  H4  1  0.77231606  0.91737778  0.53622232  1  0  0.108836  0  0.947918  0  0  0.119558  0  1.006696  0  0  0.122839  0  1.006055  0  0  0.103273  0.117119  0  1.00779  0
H  H5  1  0.22768805  0.08262292  0.46377652  1  0  0.108808  0  0.947997  0  0  0.119582  0  1.006729  0  0  0.122863  0  1.006087  0  0  0.103262  0.117137  0  1.007824  0
H  H6  1  0.18594957  0.91192732  0.16763071  1  0  0.10992  0  0.965946  0  0  0.121441  0  1.026465  0  0  0.124543  0  1.025485  0  0  0.104877  0.119082  0  1.027584  0
H  H7  1  0.81405409  0.08807442  0.83236720  1  0  0.109982  0  0.965928  0  0  0.121445  0  1.026505  0  0  0.124553  0  1.025516  0  0  0.104851  0.119084  0  1.02763  0
H  H8  1  0.05498472  0.67290537  0.37433398  1  0  0.116988  0  0.963923  0  0  0.13446  0  1.03414  0  0  0.135112  0  1.035399  0  0  0.088559  0.133898  0  1.033194  0
H  H9  1  0.94501764  0.32709635  0.62566331  1  0  0.116959  0  0.964045  0  0  0.134437  0  1.034244  0  0  0.135086  0  1.035507  0  0  0.088545  0.133876  0  1.033296  0
H  H10  1  0.11133182  0.74983281  0.49062333  1  0  0.121253  0  0.951914  0  0  0.141945  0  1.011215  0  0  0.142897  0  1.01227  0  0  0.091087  0.141263  0  1.010286  0
H  H11  1  0.88867055  0.25016892  0.50937488  1  0  0.121286  0  0.951894  0  0  0.141984  0  1.011194  0  0  0.142936  0  1.01225  0  0  0.09111  0.141305  0  1.010259  0
H  H12  1  0.25366009  0.72630178  0.32315857  1  0  0.121778  0  0.962978  0  0  0.141873  0  1.024109  0  0  0.143152  0  1.024451  0  0  0.089725  0.140882  0  1.023758  0
H  H13  1  0.74634402  0.27369891  0.67683934  1  0  0.121831  0  0.962953  0  0  0.141921  0  1.02409  0  0  0.143197  0  1.024433  0  0  0.08976  0.140929  0  1.023741  0
H  H14  1  0.82633665  0.47405761  0.95293206  1  0  0.074561  0  0.960537  0  0  0.081908  0  1.026926  0  0  0.083531  0  1.026223  0  0  0.111074  0.080477  0  1.028208  0
H  H15  1  0.17366356  0.52594304  0.04706489  1  0  0.074558  0  0.960529  0  0  0.081917  0  1.026923  0  0  0.083538  0  1.026221  0  0  0.11106  0.08049  0  1.028184  0
H  H16  1  0.12295308  0.38747771  0.77577969  1  0  0.114941  0  0.972262  0  0  0.124838  0  1.031531  0  0  0.127494  0  1.031505  0  0  0.105526  0.122888  0  1.031703  0
H  H17  1  0.87704973  0.61252296  0.22421758  1  0  0.114916  0  0.972267  0  0  0.124828  0  1.031523  0  0  0.127481  0  1.031503  0  0  0.105534  0.122899  0  1.031673  0
H  H18  1  0.25865394  0.01139122  0.00023342  1  0  0.097492  0  1.00159  0  0  0.102618  0  1.076662  0  0  0.10621  0  1.075065  0  0  0.091428  0.100675  0  1.076474  0
H  H19  1  0.74134972  0.98861051  0.99976356  1  0  0.097491  0  1.001594  0  0  0.102618  0  1.076667  0  0  0.106201  0  1.075078  0  0  0.091437  0.100674  0  1.076482  0
H  H20  1  0.41249256  0.02760957  0.73844849  1  0  0.112629  0  0.959846  0  0  0.134462  0  1.019919  0  0  0.135526  0  1.02048  0  0  0.088027  0.133795  0  1.019501  0
H  H21  1  0.58751240  0.97239217  0.26154725  1  0  0.112624  0  0.959798  0  0  0.134459  0  1.019883  0  0  0.135525  0  1.020443  0  0  0.088041  0.13379  0  1.019466  0
H  H22  1  0.50816757  0.12009572  0.81541424  1  0  0.113133  0  0.959094  0  0  0.133286  0  1.02426  0  0  0.134347  0  1.024263  0  0  0.090162  0.132917  0  1.023334  0
H  H23  1  0.49183649  0.87990812  0.18458057  1  0  0.113158  0  0.959051  0  0  0.133293  0  1.024237  0  0  0.134357  0  1.024237  0  0  0.090158  0.132926  0  1.023305  0
H  H24  1  0.41075185  0.20263562  0.68799146  1  0  0.113642  0  0.959748  0  0  0.13383  0  1.021927  0  0  0.13484  0  1.022265  0  0  0.091221  0.133118  0  1.021826  0
H  H25  1  0.58924921  0.79736609  0.31200519  1  0  0.113708  0  0.959701  0  0  0.133899  0  1.021888  0  0  0.13491  0  1.022225  0  0  0.091256  0.133185  0  1.021793  0
C  C26  1  0.51415147  0.66021811  0.03833797  1  0  0.29963  0  4.028285  0  0  0.27741  0  4.333317  0  0  0.299442  0  4.34773  0  0  0.148573  0.262471  0  4.323094  0
C  C27  1  0.48582784  0.33976144  0.96168829  1  0  0.299464  0  4.027937  0  0  0.277275  0  4.332946  0  0  0.299313  0  4.347371  0  0  0.148593  0.262338  0  4.322725  0
C  C28  1  0.70016441  0.54633874  0.46432685  1  0  0.308463  0  3.987111  0  0  0.288177  0  4.287763  0  0  0.309599  0  4.301242  0  0  0.154398  0.273895  0  4.278332  0
C  C29  1  0.29983102  0.45366404  0.53567757  1  0  0.308536  0  3.986942  0  0  0.288262  0  4.287587  0  0  0.30968  0  4.301068  0  0  0.154411  0.273976  0  4.278158  0
C  C30  1  0.71895622  0.09440603  0.40801298  1  0  0.131028  0  3.764928  0  0  0.102417  0  4.019108  0  0  0.10961  0  4.037279  0  0  0.04273  0.098105  0  4.00631  0
C  C31  1  0.28104745  0.90559572  0.59198587  1  0  0.130982  0  3.764836  0  0  0.102379  0  4.019032  0  0  0.109572  0  4.037203  0  0  0.042762  0.098073  0  4.00623  0
C  C32  1  0.82397914  0.96513173  0.44285815  1  0  -0.172432  0  3.689148  0  0  -0.189227  0  3.93191  0  0  -0.197462  0  3.953206  0  0  -0.084953  -0.185332  0  3.918507  0
C  C33  1  0.17602237  0.03486893  0.55713943  1  0  -0.172437  0  3.689203  0  0  -0.1893  0  3.931973  0  0  -0.197539  0  3.953271  0  0  -0.08499  -0.1854  0  3.918556  0
C  C34  1  0.99634059  0.89601200  0.35569397  1  0  0.215203  0  3.728127  0  0  0.237618  0  3.963547  0  0  0.243645  0  3.985402  0  0  0.016384  0.234463  0  3.948104  0
C  C35  1  0.00366218  0.10399186  0.64430395  1  0  0.215195  0  3.728206  0  0  0.23765  0  3.963569  0  0  0.243678  0  3.985423  0  0  0.016392  0.2345  0  3.948118  0
C  C36  1  0.05343174  0.96368103  0.23765184  1  0  -0.197183  0  3.639032  0  0  -0.219347  0  3.874714  0  0  -0.227795  0  3.895535  0  0  -0.081392  -0.214494  0  3.862074  0
C  C37  1  0.94657022  0.03631859  0.76234573  1  0  -0.197209  0  3.639197  0  0  -0.219302  0  3.874877  0  0  -0.22775  0  3.895696  0  0  -0.081307  -0.214446  0  3.862239  0
C  C38  1  0.94108159  0.09492270  0.20886278  1  0  0.194454  0  3.74714  0  0  0.189084  0  3.990976  0  0  0.1974  0  4.009697  0  0  0.120718  0.183721  0  3.979154  0
C  C39  1  0.05892252  0.90507799  0.79113513  1  0  0.194477  0  3.747283  0  0  0.189019  0  3.991242  0  0  0.197332  0  4.009964  0  0  0.120687  0.183652  0  3.979426  0
C  C40  1  0.11172027  0.75482232  0.38732146  1  0  -0.367347  0  3.723259  0  0  -0.44819  0  3.955501  0  0  -0.451708  0  3.96515  0  0  -0.248098  -0.445144  0  3.947733  0
C  C41  1  0.88828295  0.24518047  0.61267647  1  0  -0.367415  0  3.723377  0  0  -0.44827  0  3.955604  0  0  -0.451786  0  3.96526  0  0  -0.248157  -0.445222  0  3.94783  0
C  C42  1  0.92593270  0.37185852  0.96054293  1  0  0.147267  0  3.720574  0  0  0.117384  0  3.973643  0  0  0.12489  0  3.992108  0  0  0.048209  0.112119  0  3.962359  0
C  C43  1  0.07406925  0.62814109  0.03945370  1  0  0.147165  0  3.720527  0  0  0.117247  0  3.973624  0  0  0.124756  0  3.992087  0  0  0.048134  0.111991  0  3.96234  0
C  C44  1  0.09064636  0.32227347  0.86109289  1  0  -0.16833  0  3.667171  0  0  -0.184981  0  3.908294  0  0  -0.193096  0  3.929779  0  0  -0.083343  -0.178898  0  3.893622  0
C  C45  1  0.90935515  0.67772720  0.13890469  1  0  -0.168268  0  3.667151  0  0  -0.184926  0  3.908291  0  0  -0.193038  0  3.929774  0  0  -0.083344  -0.178864  0  3.893604  0
C  C46  1  0.21431050  0.19046861  0.87428390  1  0  0.208856  0  3.72159  0  0  0.230367  0  3.959108  0  0  0.235409  0  3.981497  0  0  0.013785  0.226911  0  3.943587  0
C  C47  1  0.78569232  0.80953207  0.12571431  1  0  0.208845  0  3.721808  0  0  0.230359  0  3.959314  0  0  0.235403  0  3.981698  0  0  0.013816  0.226903  0  3.943795  0
C  C48  1  0.16433806  0.11465376  0.98851066  1  0  -0.196728  0  3.676896  0  0  -0.224135  0  3.926736  0  0  -0.231922  0  3.947302  0  0  -0.086507  -0.218266  0  3.912924  0
C  C49  1  0.83566605  0.88534692  0.01148538  1  0  -0.196658  0  3.676941  0  0  -0.224087  0  3.926788  0  0  -0.231867  0  3.947362  0  0  -0.086463  -0.218214  0  3.912973  0
C  C50  1  0.99742407  0.17104274  0.08506898  1  0  0.18088  0  3.758248  0  0  0.175612  0  4.003492  0  0  0.182627  0  4.022908  0  0  0.114941  0.17081  0  3.991112  0
C  C51  1  0.00257744  0.82895791  0.91492672  1  0  0.180816  0  3.758278  0  0  0.175588  0  4.00349  0  0  0.182601  0  4.022905  0  0  0.114908  0.170784  0  3.991114  0
C  C52  1  0.39602036  0.13237559  0.77244844  1  0  -0.342109  0  3.693687  0  0  -0.420631  0  3.921977  0  0  -0.42306  0  3.930819  0  0  -0.240332  -0.418596  0  3.915478  0
C  C53  1  0.60398155  0.86762719  0.22754884  1  0  -0.342224  0  3.693726  0  0  -0.420736  0  3.921994  0  0  -0.423165  0  3.930831  0  0  -0.24042  -0.418699  0  3.915497  0
S  S54  1  0.71453266  0.62643801  0.58580862  1  0  -0.339648  0  2.164961  0  0  -0.299526  0  2.484892  0  0  -0.316611  0  2.477665  0  0  -0.134691  -0.288898  0  2.490438  0
S  S55  1  0.28546449  0.37356695  0.41420177  1  0  -0.339712  0  2.165012  0  0  -0.299584  0  2.484935  0  0  -0.316674  0  2.47772  0  0  -0.134708  -0.288959  0  2.490477  0
S  S56  1  0.53014726  0.76513667  0.91317849  1  0  -0.343988  0  2.123781  0  0  -0.310953  0  2.440439  0  0  -0.327183  0  2.435007  0  0  -0.144611  -0.299595  0  2.44225  0
S  S57  1  0.46984574  0.23485345  0.08683142  1  0  -0.343866  0  2.124353  0  0  -0.310844  0  2.441009  0  0  -0.327076  0  2.435581  0  0  -0.144586  -0.299488  0  2.442799  0
N  N58  1  0.77513545  0.15780138  0.29423264  1  0  -0.367574  0  3.274127  0  0  -0.299922  0  3.535327  0  0  -0.319122  0  3.553913  0  0  -0.332715  -0.287135  0  3.52208  0
N  N59  1  0.22486651  0.84219823  0.70576493  1  0  -0.367501  0  3.273978  0  0  -0.299839  0  3.535217  0  0  -0.319037  0  3.553804  0  0  -0.332711  -0.287055  0  3.521975  0
N  N60  1  0.88041631  0.29916661  0.06995530  1  0  -0.356525  0  3.261082  0  0  -0.286928  0  3.520151  0  0  -0.305985  0  3.539283  0  0  -0.330548  -0.274719  0  3.507597  0
N  N61  1  0.11958520  0.70083405  0.93004227  1  0  -0.356464  0  3.26109  0  0  -0.286849  0  3.520142  0  0  -0.305905  0  3.539276  0  0  -0.330503  -0.274641  0  3.507585  0
N  N62  1  0.50181298  0.58637491  0.13153759  1  0  -0.534637  0  2.889228  0  0  -0.474252  0  3.169017  0  0  -0.496231  0  3.176298  0  0  -0.394961  -0.459031  0  3.163387  0
N  N63  1  0.49816263  0.41361928  0.86847224  1  0  -0.534662  0  2.888359  0  0  -0.474325  0  3.168244  0  0  -0.496277  0  3.175453  0  0  -0.39504  -0.459104  0  3.162624  0
N  N64  1  0.69357967  0.48840958  0.37513142  1  0  -0.519232  0  2.867292  0  0  -0.463707  0  3.141182  0  0  -0.483452  0  3.146876  0  0  -0.38557  -0.450268  0  3.136638  0
N  N65  1  0.30641792  0.51159428  0.62487334  1  0  -0.519268  0  2.867105  0  0  -0.463755  0  3.141004  0  0  -0.483498  0  3.146698  0  0  -0.385576  -0.450315  0  3.136464  0
