# generated using pymatgen
data_Zn4H40C48N4O13
_symmetry_space_group_name_H-M   'P 1'
_cell_length_a   23.83366010
_cell_length_b   23.83463760
_cell_length_c   23.83390461
_cell_angle_alpha   66.89349116
_cell_angle_beta   72.32137777
_cell_angle_gamma   107.68858693
_symmetry_Int_Tables_number   1
_chemical_formula_structural   Zn4H40C48N4O13
_chemical_formula_sum   'Zn8 H80 C96 N8 O26'
_cell_volume   10391.11603204
_cell_formula_units_Z   2
loop_
 _symmetry_equiv_pos_site_id
 _symmetry_equiv_pos_as_xyz
  1  'x, y, z'
loop_
 _atom_site_type_symbol
 _atom_site_label
 _atom_site_symmetry_multiplicity
 _atom_site_fract_x
 _atom_site_fract_y
 _atom_site_fract_z
 _atom_site_occupancy
 _atom_site_pbe_bader_charge
 _atom_site_pbe_bader_spin_density
 _atom_site_pbe_cm5_charge
 _atom_site_pbe_ddec_charge
 _atom_site_pbe_ddec_spin_density
 _atom_site_pbe_ddec_sum_bond_order
 _atom_site_pbe_magmom
Zn  Zn0  1  0.05706000  0.95741593  0.48648397  1  1.316743  0  0.671157  0.956235  0  2.395022  0
Zn  Zn1  1  0.05705266  0.09964048  0.45646913  1  1.315363  0  0.671406  0.956744  0  2.394612  0
Zn  Zn2  1  0.94292709  0.98647317  0.45741929  1  1.316729  0  0.671357  0.956594  0  2.394701  0
Zn  Zn3  1  0.94294803  0.95646553  0.59964189  1  1.315274  0  0.671183  0.956171  0  2.394866  0
Zn  Zn4  1  0.94389061  0.54353826  0.01352263  1  1.31486  0  0.671212  0.956356  0  2.394927  0
Zn  Zn5  1  0.05612120  0.51352996  0.04353824  1  1.314697  0  0.671339  0.956595  0  2.394543  0
Zn  Zn6  1  0.94388935  0.40036073  0.04258912  1  1.315876  0  0.671331  0.956586  0  2.394684  0
Zn  Zn7  1  0.05609744  0.54258004  0.90036144  1  1.31591  0  0.671153  0.956283  0  2.395131  0
H  H8  1  0.92331081  0.65105148  0.11322263  1  0.093818  0  0.1063  0.11848  0  0.997233  0
H  H9  1  0.07668261  0.61320185  0.15108476  1  0.105368  0  0.106309  0.118483  0  0.997325  0
H  H10  1  0.92505331  0.88964507  0.34740126  1  0.072679  0  0.105251  0.116666  0  0.997575  0
H  H11  1  0.07490202  0.84738926  0.38968639  1  0.072043  0  0.105201  0.116489  0  0.997574  0
H  H12  1  0.07670563  0.46345247  0.77228198  1  0.091148  0  0.10639  0.118525  0  0.997238  0
H  H13  1  0.92333196  0.27223536  0.96348455  1  0.080464  0  0.106343  0.118512  0  0.997447  0
H  H14  1  0.07491387  0.22754076  0.53541746  1  0.107464  0  0.105237  0.116587  0  0.997523  0
H  H15  1  0.92506329  0.03541958  0.72751379  1  0.107216  0  0.105244  0.116584  0  0.997441  0
H  H16  1  0.73705959  0.46458353  0.11036102  1  0.061251  0  0.105254  0.116606  0  0.99767  0
H  H17  1  0.73705515  0.27247901  0.15260440  1  0.073668  0  0.105279  0.116523  0  0.997462  0
H  H18  1  0.26428146  0.22776899  0.34889422  1  0.079857  0  0.106399  0.118661  0  0.997297  0
H  H19  1  0.26427225  0.03654899  0.38674888  1  0.093134  0  0.106374  0.11852  0  0.997218  0
H  H20  1  0.26296114  0.61035264  0.96457471  1  0.062726  0  0.105264  0.116607  0  0.997512  0
H  H21  1  0.26292925  0.65259637  0.77247488  1  0.073127  0  0.1053  0.116761  0  0.997591  0
H  H22  1  0.73572813  0.84891770  0.72776152  1  0.079761  0  0.106346  0.118559  0  0.997491  0
H  H23  1  0.73571665  0.88677485  0.53654022  1  0.104434  0  0.106354  0.118555  0  0.99725  0
H  H24  1  0.91557532  0.84118757  0.74936978  1  0.483834  0  0.289683  0.300355  0  1.004567  0
H  H25  1  0.90894918  0.80311957  0.83070980  1  0.433814  0  0.292512  0.278339  0  0.975419  0
H  H26  1  0.09052592  0.66491658  0.75064080  1  0.472369  0  0.289691  0.300272  0  1.004914  0
H  H27  1  0.13381700  0.73963915  0.66931347  1  0.430764  0  0.292373  0.27825  0  0.975313  0
H  H28  1  0.90944367  0.65882474  0.92560995  1  0.46985  0  0.289631  0.30027  0  1.004737  0
H  H29  1  0.86617183  0.69688764  0.89416289  1  0.432378  0  0.292467  0.278288  0  0.975474  0
H  H30  1  0.08445558  0.83507967  0.57439619  1  0.476471  0  0.289712  0.300242  0  1.004985  0
H  H31  1  0.09106037  0.76035801  0.60583495  1  0.426071  0  0.292393  0.278235  0  0.975185  0
H  H32  1  0.91554182  0.07439220  0.33504107  1  0.479455  0  0.289684  0.300424  0  1.004679  0
H  H33  1  0.90893384  0.10583996  0.26031387  1  0.425729  0  0.292684  0.27849  0  0.974632  0
H  H34  1  0.09056455  0.42560995  0.15885537  1  0.470675  0  0.289741  0.300526  0  1.004526  0
H  H35  1  0.13383746  0.39416084  0.19692176  1  0.43123  0  0.292669  0.278436  0  0.974793  0
H  H36  1  0.90947027  0.25066111  0.16490500  1  0.471804  0  0.289839  0.300702  0  1.004657  0
H  H37  1  0.86618774  0.16932031  0.23961225  1  0.430758  0  0.292417  0.278538  0  0.975148  0
H  H38  1  0.08442625  0.24934023  0.34120025  1  0.484435  0  0.289876  0.300744  0  1.004423  0
H  H39  1  0.09105026  0.33067783  0.30314819  1  0.434235  0  0.29259  0.278608  0  0.974875  0
H  H40  1  0.08005084  0.62368817  0.26099193  1  0.042601  0  0.096676  0.133931  0  0.983795  0
H  H41  1  0.08750267  0.70482450  0.24793132  1  0.010562  0  0.086684  0.12043  0  1.062632  0
H  H42  1  0.14360023  0.70199980  0.18147783  1  0.049745  0  0.096053  0.132776  0  0.984512  0
H  H43  1  0.91993595  0.76090920  0.12371584  1  0.042541  0  0.096759  0.134014  0  0.98377  0
H  H44  1  0.91247991  0.74788854  0.20484349  1  0.011177  0  0.086699  0.120421  0  1.062564  0
H  H45  1  0.85636787  0.68141565  0.20203594  1  0.048758  0  0.096019  0.132669  0  0.984259  0
H  H46  1  0.14304977  0.81862306  0.29781599  1  0.050489  0  0.096304  0.133374  0  0.984724  0
H  H47  1  0.08551392  0.75020872  0.29837754  1  0.044372  0  0.087261  0.121799  0  1.061876  0
H  H48  1  0.08060116  0.74026088  0.37785065  1  0.052431  0  0.096129  0.133181  0  0.984699  0
H  H49  1  0.85690175  0.79776045  0.31860677  1  0.051172  0  0.096236  0.133248  0  0.984508  0
H  H50  1  0.91446688  0.79834713  0.25020917  1  0.043387  0  0.08728  0.121728  0  1.061822  0
H  H51  1  0.91938150  0.87781693  0.24027839  1  0.052325  0  0.096064  0.133001  0  0.984864  0
H  H52  1  0.91994379  0.15897404  0.95637334  1  0.032204  0  0.096638  0.133816  0  0.984116  0
H  H53  1  0.91251049  0.16457287  0.88267781  1  0.012404  0  0.086639  0.120347  0  1.062647  0
H  H54  1  0.85639900  0.17493304  0.94158359  1  0.043785  0  0.096064  0.132721  0  0.984435  0
H  H55  1  0.08006183  0.45633748  0.65903232  1  0.032988  0  0.096733  0.134  0  0.983796  0
H  H56  1  0.08752567  0.38266744  0.66460344  1  0.012551  0  0.086709  0.120416  0  1.062584  0
H  H57  1  0.14363540  0.44159228  0.67496689  1  0.04324  0  0.096038  0.132705  0  0.984231  0
H  H58  1  0.85690723  0.05913191  0.82444555  1  0.040952  0  0.096137  0.1332  0  0.984561  0
H  H59  1  0.91445193  0.11610408  0.83530970  1  0.041822  0  0.087309  0.121948  0  1.061871  0
H  H60  1  0.91938181  0.04155970  0.84032088  1  0.052074  0  0.096108  0.133143  0  0.984733  0
H  H61  1  0.14304667  0.32446211  0.55917016  1  0.041865  0  0.096066  0.132895  0  0.985149  0
H  H62  1  0.08548527  0.33531922  0.61612924  1  0.040331  0  0.087242  0.121619  0  1.062021  0
H  H63  1  0.08058871  0.34034189  0.54156622  1  0.050182  0  0.096121  0.132985  0  0.984855  0
H  H64  1  0.61638387  0.17553683  0.18137630  1  0.040162  0  0.096262  0.133365  0  0.984419  0
H  H65  1  0.54856960  0.16468719  0.24978565  1  0.041694  0  0.087305  0.12187  0  1.061723  0
H  H66  1  0.61811687  0.15967829  0.25970835  1  0.052004  0  0.096097  0.133129  0  0.984737  0
H  H67  1  0.61642730  0.44086468  0.20221046  1  0.039466  0  0.096217  0.133251  0  0.984541  0
H  H68  1  0.54857169  0.38388808  0.20164580  1  0.045541  0  0.087332  0.121884  0  1.061828  0
H  H69  1  0.61809809  0.45844154  0.12217416  1  0.042205  0  0.096018  0.132994  0  0.985035  0
H  H70  1  0.38462299  0.04366015  0.37626745  1  0.036032  0  0.096759  0.133982  0  0.983835  0
H  H71  1  0.45272996  0.11732881  0.29514085  1  0.00064  0  0.086678  0.120345  0  1.062641  0
H  H72  1  0.38345072  0.05841146  0.29794033  1  0.039764  0  0.09601  0.132645  0  0.983975  0
H  H73  1  0.38467245  0.34104082  0.23899963  1  0.028425  0  0.096715  0.133913  0  0.984012  0
H  H74  1  0.45275363  0.33542145  0.25205892  1  0.013302  0  0.086606  0.120332  0  1.062589  0
H  H75  1  0.38347627  0.32506494  0.31851740  1  0.043168  0  0.096116  0.132853  0  0.984413  0
H  H76  1  0.38358580  0.68136207  0.67553516  1  0.040072  0  0.096136  0.133171  0  0.984335  0
H  H77  1  0.45140910  0.74977563  0.66468077  1  0.041842  0  0.087271  0.1219  0  1.062016  0
H  H78  1  0.38185976  0.75968984  0.65968375  1  0.051718  0  0.09615  0.133097  0  0.984523  0
H  H79  1  0.38361045  0.70219600  0.94084699  1  0.040161  0  0.096086  0.13295  0  0.985026  0
H  H80  1  0.45144796  0.70162673  0.88387374  1  0.045538  0  0.087279  0.121772  0  1.061839  0
H  H81  1  0.38192556  0.62215533  0.95843164  1  0.043276  0  0.096042  0.132914  0  0.984783  0
H  H82  1  0.61535706  0.87627910  0.54365511  1  0.036006  0  0.096782  0.134088  0  0.983779  0
H  H83  1  0.54724789  0.79515328  0.61732226  1  0.001934  0  0.086608  0.120284  0  1.062565  0
H  H84  1  0.61651927  0.79795648  0.55840819  1  0.039478  0  0.096025  0.132663  0  0.984469  0
H  H85  1  0.61534302  0.73901968  0.84102821  1  0.029488  0  0.09677  0.133942  0  0.98414  0
H  H86  1  0.54725952  0.75207865  0.83541400  1  0.013852  0  0.086691  0.120376  0  1.062629  0
H  H87  1  0.61655650  0.81854332  0.82504793  1  0.042973  0  0.096102  0.132693  0  0.984316  0
C  C88  1  0.18221978  0.09113282  0.40885456  1  1.550077  0  0.226297  0.605967  0  4.162635  0
C  C89  1  0.99998729  0.13925503  0.36071561  1  1.484525  0  0.223317  0.624921  0  4.111335  0
C  C90  1  0.99996527  0.90946319  0.40951363  1  1.509077  0  0.225298  0.608178  0  4.159343  0
C  C91  1  0.81777723  0.90886839  0.59112097  1  1.550458  0  0.226306  0.606106  0  4.162473  0
C  C92  1  0.00002653  0.86074584  0.63928056  1  1.485384  0  0.222999  0.62393  0  4.112004  0
C  C93  1  0.99999985  0.09052598  0.59049885  1  1.513142  0  0.225456  0.60804  0  4.159903  0
C  C94  1  0.00000117  0.59109966  0.09112400  1  1.526037  0  0.226493  0.606262  0  4.161844  0
C  C95  1  0.00003221  0.36074677  0.13926632  1  1.481879  0  0.22336  0.624925  0  4.111424  0
C  C96  1  0.81897535  0.40948825  0.09051049  1  1.508867  0  0.225381  0.608075  0  4.159954  0
C  C97  1  0.00000688  0.40887050  0.90891172  1  1.541573  0  0.226486  0.606377  0  4.162081  0
C  C98  1  0.99998157  0.63926551  0.86072747  1  1.482845  0  0.223443  0.62467  0  4.111553  0
C  C99  1  0.18102746  0.59051202  0.90948757  1  1.508531  0  0.225475  0.608217  0  4.159769  0
C  C100  1  0.00001936  0.80460801  0.69541240  1  0.032077  0  -0.041491  -0.25268  0  3.950637  0
C  C101  1  0.99998797  0.69540517  0.80459262  1  -0.015536  0  -0.041782  -0.252768  0  3.950655  0
C  C102  1  0.95663603  0.77725994  0.76678021  1  0.450709  0  0.078046  0.174713  0  4.048503  0
C  C103  1  0.04402678  0.72340720  0.73322973  1  0.490098  0  0.078156  0.174715  0  4.048308  0
C  C104  1  0.95596887  0.72275063  0.82062307  1  0.387  0  0.078174  0.174641  0  4.048676  0
C  C105  1  0.04337946  0.77659938  0.67938508  1  0.377119  0  0.078184  0.174757  0  4.048424  0
C  C106  1  0.00000074  0.19539653  0.30457844  1  -0.028882  0  -0.041708  -0.253082  0  3.950099  0
C  C107  1  0.00002766  0.30460686  0.19539357  1  -0.013776  0  -0.04175  -0.253105  0  3.950246  0
C  C108  1  0.95662949  0.17938542  0.27656703  1  0.380286  0  0.078247  0.174912  0  4.048576  0
C  C109  1  0.04404840  0.32061779  0.22275378  1  0.389484  0  0.078217  0.174807  0  4.048582  0
C  C110  1  0.95597988  0.23323700  0.22338636  1  0.487924  0  0.078117  0.174778  0  4.048353  0
C  C111  1  0.04337069  0.26676223  0.27726158  1  0.509129  0  0.078096  0.174865  0  4.047979  0
C  C112  1  0.99998484  0.62855695  0.12861780  1  -0.023193  0  -0.020746  -0.029556  0  4.032813  0
C  C113  1  0.95671055  0.65694085  0.13566072  1  0.010081  0  -0.08849  -0.16876  0  3.963028  0
C  C114  1  0.95591650  0.69233023  0.17027433  1  -0.041991  0  -0.00043  0.137394  0  3.937156  0
C  C115  1  0.99996904  0.69918217  0.19928160  1  0.083973  0  0.001735  0.016241  0  4.020881  0
C  C116  1  0.04403900  0.67020133  0.19240914  1  -0.045461  0  -0.000389  0.136939  0  3.937907  0
C  C117  1  0.04326894  0.63561657  0.15699660  1  -0.001371  0  -0.088707  -0.168869  0  3.964149  0
C  C118  1  0.99995836  0.73487762  0.23499197  1  -0.232362  0  -0.036951  -0.090684  0  4.120785  0
C  C119  1  0.99994045  0.76566999  0.26581343  1  -0.161589  0  -0.036637  -0.091019  0  4.12024  0
C  C120  1  0.99994789  0.80138716  0.30149549  1  0.138707  0  -0.000216  0.014777  0  4.019552  0
C  C121  1  0.95651645  0.83117121  0.30752047  1  0.002704  0  0.00038  0.137997  0  3.93749  0
C  C122  1  0.95767962  0.86623523  0.34244849  1  -0.022304  0  -0.088731  -0.167688  0  3.964092  0
C  C123  1  0.99996618  0.87200617  0.37205785  1  -0.012812  0  -0.022136  -0.032863  0  4.034537  0
C  C124  1  0.04226396  0.84240992  0.36628481  1  -0.022135  0  -0.088936  -0.16783  0  3.963438  0
C  C125  1  0.04340789  0.80744733  0.33126282  1  0.002778  0  0.000582  0.138562  0  3.936694  0
C  C126  1  0.00002596  0.37139254  0.87143477  1  -0.021071  0  -0.020626  -0.029425  0  4.032468  0
C  C127  1  0.04329811  0.40762049  0.79978019  1  0.01218  0  -0.08862  -0.168965  0  3.963173  0
C  C128  1  0.04408608  0.37380326  0.76359540  1  -0.039479  0  -0.000434  0.137393  0  3.936884  0
C  C129  1  0.00002219  0.30075196  0.80078966  1  0.087431  0  0.001719  0.016321  0  4.020563  0
C  C130  1  0.95595935  0.26355291  0.87384241  1  -0.048695  0  -0.000487  0.136715  0  3.93787  0
C  C131  1  0.95673768  0.29973401  0.90765857  1  0.023796  0  -0.088782  -0.168839  0  3.964026  0
C  C132  1  0.99999523  0.26505480  0.76508159  1  -0.231441  0  -0.036865  -0.090554  0  4.121336  0
C  C133  1  0.99996840  0.23425991  0.73426881  1  -0.162308  0  -0.036785  -0.091216  0  4.120634  0
C  C134  1  0.99996466  0.19856305  0.69855707  1  0.070468  0  -5e-06  0.014906  0  4.019556  0
C  C135  1  0.04341779  0.23596473  0.62534570  1  0.044109  0  0.000422  0.138233  0  3.937272  0
C  C136  1  0.04228072  0.19987585  0.59145084  1  -0.093918  0  -0.088875  -0.16797  0  3.963486  0
C  C137  1  0.99998409  0.12797545  0.62796420  1  0.062574  0  -0.021925  -0.032357  0  4.034224  0
C  C138  1  0.95769372  0.09145816  0.69985073  1  -0.095036  0  -0.088883  -0.167838  0  3.964083  0
C  C139  1  0.95653317  0.12534752  0.73595087  1  0.044344  0  0.000238  0.137974  0  3.937696  0
C  C140  1  0.74406597  0.37203826  0.12796356  1  -0.005792  0  -0.022019  -0.032782  0  4.034262  0
C  C141  1  0.70868610  0.40855369  0.13374206  1  -0.01654  0  -0.088755  -0.167728  0  3.96389  0
C  C142  1  0.63870157  0.37466483  0.16876986  1  -0.005477  0  0.000428  0.137891  0  3.937047  0
C  C143  1  0.60287724  0.30144825  0.19852478  1  0.111823  0  -0.000101  0.016306  0  4.016968  0
C  C144  1  0.63869772  0.26404570  0.19249237  1  0.049881  0  0.000294  0.137651  0  3.937161  0
C  C145  1  0.70868167  0.30014284  0.15756318  1  -0.031927  0  -0.088933  -0.167709  0  3.963822  0
C  C146  1  0.53147923  0.26575943  0.23419098  1  -0.096594  0  -0.036852  -0.091643  0  4.1197  0
C  C147  1  0.46986638  0.23494881  0.26500520  1  -0.308471  0  -0.03676  -0.09103  0  4.120446  0
C  C148  1  0.39846467  0.19926050  0.30069497  1  0.108133  0  0.001719  0.0178  0  4.018144  0
C  C149  1  0.36260390  0.23645129  0.30757321  1  -0.033151  0  -0.00046  0.136032  0  3.937648  0
C  C150  1  0.29260725  0.20026729  0.34298604  1  0.019155  0  -0.088849  -0.169003  0  3.964171  0
C  C151  1  0.25717486  0.12861072  0.37135735  1  -0.056438  0  -0.0206  -0.029274  0  4.032532  0
C  C152  1  0.29260258  0.09238002  0.36431431  1  -0.085433  0  -0.088594  -0.169229  0  3.963064  0
C  C153  1  0.36260012  0.12619877  0.32970753  1  0.065931  0  -0.000318  0.137752  0  3.935424  0
C  C154  1  0.25593607  0.62795342  0.87202973  1  -0.005372  0  -0.022033  -0.032605  0  4.034141  0
C  C155  1  0.29132382  0.63373082  0.90854811  1  -0.017825  0  -0.088827  -0.167891  0  3.963487  0
C  C156  1  0.36130629  0.66875053  0.87466059  1  -0.005168  0  0.000448  0.137864  0  3.936881  0
C  C157  1  0.39712380  0.69849812  0.80144470  1  0.111854  0  -0.000196  0.016359  0  4.01712  0
C  C158  1  0.36129329  0.69247330  0.76404436  1  0.049726  0  0.000271  0.137616  0  3.937091  0
C  C159  1  0.29130632  0.65755456  0.80013818  1  -0.03209  0  -0.088835  -0.167973  0  3.96425  0
C  C160  1  0.46852048  0.73417514  0.76575167  1  -0.096863  0  -0.036725  -0.091708  0  4.119697  0
C  C161  1  0.53013229  0.76499359  0.73494223  1  -0.308605  0  -0.036813  -0.090935  0  4.120167  0
C  C162  1  0.60153471  0.80070762  0.69925176  1  0.108064  0  0.001651  0.017471  0  4.018129  0
C  C163  1  0.63739853  0.80758999  0.73644600  1  -0.033012  0  -0.000517  0.136239  0  3.937668  0
C  C164  1  0.70739543  0.84300401  0.70026021  1  0.018872  0  -0.0886  -0.168716  0  3.964302  0
C  C165  1  0.74282387  0.87138281  0.62860264  1  -0.057619  0  -0.020695  -0.029583  0  4.032856  0
C  C166  1  0.70739062  0.86434042  0.59237148  1  -0.097255  0  -0.088546  -0.169115  0  3.963015  0
C  C167  1  0.63739127  0.82971991  0.62618993  1  0.067085  0  -0.000509  0.137642  0  3.935636  0
C  C168  1  0.09117271  0.67569130  0.22241380  1  -0.031845  0  -0.235719  -0.40643  0  3.972525  0
C  C169  1  0.90880664  0.72235153  0.17572620  1  -0.0314  0  -0.235822  -0.40664  0  3.972517  0
C  C170  1  0.09047946  0.77737637  0.32586602  1  -0.073226  0  -0.236121  -0.408057  0  3.975137  0
C  C171  1  0.90948553  0.82582237  0.27738879  1  -0.072782  0  -0.236069  -0.407606  0  3.974914  0
C  C172  1  0.90882953  0.18642137  0.91548521  1  -0.020584  0  -0.235583  -0.406103  0  3.972606  0
C  C173  1  0.09119965  0.41546493  0.68646151  1  -0.020545  0  -0.235778  -0.406603  0  3.972348  0
C  C174  1  0.90948984  0.08366289  0.81310484  1  -0.067728  0  -0.23598  -0.407896  0  3.975056  0
C  C175  1  0.09047146  0.31311747  0.58367608  1  -0.065199  0  -0.235927  -0.407075  0  3.975294  0
C  C176  1  0.60322344  0.18689525  0.22260260  1  -0.085775  0  -0.236104  -0.408065  0  3.9751  0
C  C177  1  0.60322924  0.41633743  0.17415756  1  -0.049228  0  -0.236027  -0.407855  0  3.975336  0
C  C178  1  0.39807558  0.08453856  0.32425735  1  -0.00536  0  -0.235831  -0.406787  0  3.971969  0
C  C179  1  0.39809410  0.31357984  0.27757754  1  -0.019694  0  -0.235766  -0.406394  0  3.972585  0
C  C180  1  0.39676590  0.72259262  0.68689289  1  -0.085335  0  -0.235994  -0.407843  0  3.974861  0
C  C181  1  0.39679486  0.67414346  0.91632384  1  -0.051192  0  -0.235897  -0.407315  0  3.975134  0
C  C182  1  0.60191555  0.82427525  0.58452764  1  -0.006002  0  -0.235732  -0.40686  0  3.9726  0
C  C183  1  0.60191899  0.77759133  0.81357007  1  -0.020883  0  -0.235798  -0.406259  0  3.97279  0
N  N184  1  0.91142705  0.79950167  0.78893979  1  -1.247074  0  -0.614506  -0.621632  0  3.334538  0
N  N185  1  0.08842106  0.70035073  0.71106939  1  -1.226552  0  -0.6144  -0.621505  0  3.334471  0
N  N186  1  0.91156005  0.70050916  0.88807168  1  -1.244455  0  -0.614577  -0.621639  0  3.33474  0
N  N187  1  0.08859501  0.79964864  0.61193650  1  -1.22419  0  -0.614535  -0.621525  0  3.334624  0
N  N188  1  0.91140655  0.11193769  0.29960939  1  -1.227144  0  -0.614883  -0.622055  0  3.333913  0
N  N189  1  0.08844562  0.38806168  0.20054040  1  -1.245557  0  -0.614873  -0.622028  0  3.334052  0
N  N190  1  0.91157838  0.21108525  0.20032365  1  -1.225811  0  -0.614559  -0.622177  0  3.334421  0
N  N191  1  0.08858067  0.28891780  0.29951775  1  -1.248087  0  -0.614761  -0.622297  0  3.333754  0
O  O192  1  0.99999750  0.99999850  0.49999939  1  -1.234834  0  -0.575314  -1.022064  0  2.570088  0
O  O193  1  0.15296964  0.02656210  0.42990074  1  -1.173138  0  -0.318239  -0.54969  0  2.338377  0
O  O194  1  0.04445884  0.15532470  0.37988565  1  -1.176566  0  -0.316453  -0.552005  0  2.375278  0
O  O195  1  0.96349726  0.93926735  0.40890079  1  -1.171346  0  -0.319304  -0.55262  0  2.33963  0
O  O196  1  0.15296528  0.12642379  0.41708718  1  -1.171111  0  -0.318268  -0.549801  0  2.33924  0
O  O197  1  0.03644922  0.90885349  0.43932047  1  -1.170698  0  -0.319167  -0.552663  0  2.338918  0
O  O198  1  0.95550431  0.07562594  0.38911059  1  -1.186768  0  -0.316102  -0.551614  0  2.375383  0
O  O199  1  0.84702427  0.92992218  0.52656656  1  -1.173106  0  -0.318175  -0.549596  0  2.339015  0
O  O200  1  0.95554835  0.87989717  0.65535623  1  -1.177079  0  -0.316099  -0.551182  0  2.375218  0
O  O201  1  0.84702684  0.91708278  0.62643881  1  -1.170898  0  -0.318295  -0.549871  0  2.338429  0
O  O202  1  0.04449590  0.88913838  0.57564960  1  -1.186889  0  -0.316256  -0.551377  0  2.375202  0
O  O203  1  0.03647326  0.12760374  0.52423075  1  -1.174126  0  -0.319268  -0.552692  0  2.339788  0
O  O204  1  0.96352046  0.02424138  0.62759140  1  -1.173713  0  -0.319365  -0.552512  0  2.339037  0
O  O205  1  0.00000225  0.50000479  0.00000273  1  -1.234041  0  -0.575357  -1.022165  0  2.570046  0
O  O206  1  0.95647600  0.58289870  0.07007581  1  -1.169346  0  -0.318209  -0.549697  0  2.338053  0
O  O207  1  0.03526958  0.42437691  0.12011799  1  -1.181352  0  -0.316113  -0.551592  0  2.375345  0
O  O208  1  0.84816640  0.37240432  0.09112630  1  -1.171927  0  -0.319221  -0.552529  0  2.339724  0
O  O209  1  0.04352765  0.57007954  0.08289787  1  -1.169424  0  -0.318321  -0.549801  0  2.338701  0
O  O210  1  0.84816938  0.47577264  0.06070473  1  -1.166417  0  -0.319305  -0.552645  0  2.339186  0
O  O211  1  0.96479078  0.34467776  0.11086496  1  -1.179809  0  -0.316458  -0.551969  0  2.375349  0
O  O212  1  0.95648225  0.37357930  0.97345477  1  -1.178204  0  -0.318287  -0.549857  0  2.339026  0
O  O213  1  0.03520344  0.61085710  0.84465712  1  -1.18044  0  -0.3164  -0.551726  0  2.375586  0
O  O214  1  0.04352511  0.47344063  0.87359466  1  -1.177241  0  -0.318366  -0.549856  0  2.338165  0
O  O215  1  0.96475437  0.62011697  0.92435708  1  -1.18092  0  -0.316229  -0.551538  0  2.375054  0
O  O216  1  0.15183794  0.56071317  0.97576028  1  -1.166551  0  -0.319339  -0.552681  0  2.339673  0
O  O217  1  0.15182676  0.59112766  0.87239621  1  -1.171483  0  -0.319323  -0.552729  0  2.339034  0
