# generated using pymatgen
data_ZnH8C12N2O5
_symmetry_space_group_name_H-M   'P 1'
_cell_length_a   9.63868006
_cell_length_b   12.83153491
_cell_length_c   13.76934360
_cell_angle_alpha   89.99992963
_cell_angle_beta   89.99992778
_cell_angle_gamma   104.69508481
_symmetry_Int_Tables_number   1
_chemical_formula_structural   ZnH8C12N2O5
_chemical_formula_sum   'Zn4 H32 C48 N8 O20'
_cell_volume   1647.27418865
_cell_formula_units_Z   4
loop_
 _symmetry_equiv_pos_site_id
 _symmetry_equiv_pos_as_xyz
  1  'x, y, z'
loop_
 _atom_site_type_symbol
 _atom_site_label
 _atom_site_symmetry_multiplicity
 _atom_site_fract_x
 _atom_site_fract_y
 _atom_site_fract_z
 _atom_site_occupancy
 _atom_site_hle17_bader_spin_density
 _atom_site_hle17_ddec_charge
 _atom_site_hle17_ddec_spin_density
 _atom_site_hle17_ddec_sum_bond_order
 _atom_site_hle17_magmom
 _atom_site_hse06_10hf_bader_spin_density
 _atom_site_hse06_10hf_ddec_charge
 _atom_site_hse06_10hf_ddec_spin_density
 _atom_site_hse06_10hf_ddec_sum_bond_order
 _atom_site_hse06_10hf_magmom
 _atom_site_hse06_bader_spin_density
 _atom_site_hse06_ddec_charge
 _atom_site_hse06_ddec_spin_density
 _atom_site_hse06_ddec_sum_bond_order
 _atom_site_hse06_magmom
 _atom_site_pbe_bader_spin_density
 _atom_site_pbe_cm5_charge
 _atom_site_pbe_ddec_charge
 _atom_site_pbe_ddec_spin_density
 _atom_site_pbe_ddec_sum_bond_order
 _atom_site_pbe_magmom
Zn  Zn0  1  0.92382459  0.41066282  0.13946933  1  0  1.048225  0  1.790131  0  0  0.85921  0  2.251816  0  0  0.908046  0  2.196023  0  0  0.690179  0.825233  0  2.290097  0
Zn  Zn1  1  0.57617508  0.08933880  0.63946954  1  0  1.048247  0  1.79007  0  0  0.859258  0  2.251752  0  0  0.908089  0  2.195959  0  0  0.690192  0.825283  0  2.290023  0
Zn  Zn2  1  0.07617448  0.58933844  0.86053085  1  0  1.04826  0  1.790085  0  0  0.859254  0  2.251772  0  0  0.908086  0  2.195979  0  0  0.690205  0.825278  0  2.290052  0
Zn  Zn3  1  0.42382579  0.91066164  0.36052919  1  0  1.04826  0  1.790118  0  0  0.859266  0  2.251799  0  0  0.908096  0  2.196006  0  0  0.690188  0.825288  0  2.290063  0
H  H4  1  0.65236541  0.49750467  0.12176050  1  0  0.087302  0  0.961986  0  0  0.093481  0  1.029413  0  0  0.096693  0  1.026074  0  0  0.116565  0.091073  0  1.031939  0
H  H5  1  0.84763430  0.00249698  0.62176129  1  0  0.087328  0  0.961978  0  0  0.09344  0  1.029469  0  0  0.096676  0  1.026104  0  0  0.116564  0.091033  0  1.031996  0
H  H6  1  0.34763179  0.50249417  0.87823968  1  0  0.087272  0  0.962004  0  0  0.093443  0  1.029434  0  0  0.096669  0  1.02608  0  0  0.116553  0.091034  0  1.03196  0
H  H7  1  0.15236532  0.99750588  0.37823744  1  0  0.087285  0  0.962  0  0  0.093441  0  1.029455  0  0  0.096677  0  1.026091  0  0  0.116561  0.091031  0  1.031981  0
H  H8  1  0.38376679  0.41157283  0.14139414  1  0  0.112552  0  0.953542  0  0  0.120072  0  1.01525  0  0  0.123814  0  1.013695  0  0  0.107237  0.117395  0  1.016472  0
H  H9  1  0.11623086  0.08842755  0.64139576  1  0  0.112575  0  0.9535  0  0  0.120066  0  1.015241  0  0  0.123806  0  1.013691  0  0  0.107216  0.117387  0  1.01647  0
H  H10  1  0.61623145  0.58842600  0.85860605  1  0  0.112556  0  0.953523  0  0  0.120069  0  1.015236  0  0  0.123812  0  1.013681  0  0  0.107227  0.117393  0  1.016461  0
H  H11  1  0.88376662  0.91157210  0.35860515  1  0  0.112567  0  0.953512  0  0  0.120055  0  1.015258  0  0  0.123797  0  1.013704  0  0  0.107215  0.117379  0  1.016483  0
H  H12  1  0.31377522  0.23825833  0.23577131  1  0  0.096058  0  0.959893  0  0  0.108029  0  1.019124  0  0  0.110457  0  1.017369  0  0  0.112324  0.106275  0  1.020393  0
H  H13  1  0.18622427  0.26174187  0.73577195  1  0  0.096009  0  0.959988  0  0  0.108014  0  1.019181  0  0  0.11044  0  1.017433  0  0  0.112323  0.106262  0  1.020448  0
H  H14  1  0.68622453  0.76173888  0.76422887  1  0  0.096028  0  0.959988  0  0  0.108035  0  1.019168  0  0  0.110461  0  1.017421  0  0  0.112321  0.106281  0  1.020439  0
H  H15  1  0.81377632  0.73825776  0.26422750  1  0  0.096027  0  0.959982  0  0  0.108033  0  1.019171  0  0  0.110459  0  1.017424  0  0  0.112329  0.106279  0  1.020439  0
H  H16  1  0.93767166  0.12868843  0.47241855  1  0  0.09592  0  0.954451  0  0  0.106476  0  1.015885  0  0  0.109014  0  1.014399  0  0  0.108275  0.104589  0  1.01703  0
H  H17  1  0.56232976  0.37131098  0.97241917  1  0  0.095846  0  0.954504  0  0  0.106397  0  1.015959  0  0  0.108934  0  1.014476  0  0  0.108222  0.104507  0  1.017105  0
H  H18  1  0.06233426  0.87131764  0.52758381  1  0  0.095857  0  0.954525  0  0  0.106422  0  1.015973  0  0  0.108954  0  1.014483  0  0  0.108229  0.10453  0  1.017113  0
H  H19  1  0.43766681  0.62868303  0.02758464  1  0  0.095855  0  0.954512  0  0  0.106417  0  1.015963  0  0  0.108949  0  1.014474  0  0  0.108236  0.104526  0  1.017101  0
H  H20  1  0.15189031  0.17938031  0.36037140  1  0  0.120434  0  0.969923  0  0  0.126236  0  1.034529  0  0  0.130537  0  1.031998  0  0  0.109893  0.123113  0  1.03651  0
H  H21  1  0.34811075  0.32062208  0.86037256  1  0  0.12045  0  0.969912  0  0  0.126265  0  1.034505  0  0  0.130569  0  1.031968  0  0  0.109878  0.123139  0  1.036487  0
H  H22  1  0.84811139  0.82062255  0.63962733  1  0  0.120481  0  0.969899  0  0  0.12629  0  1.034496  0  0  0.130595  0  1.03196  0  0  0.109897  0.123166  0  1.036478  0
H  H23  1  0.65188956  0.67937674  0.13962762  1  0  0.120456  0  0.969915  0  0  0.126268  0  1.034512  0  0  0.130573  0  1.031973  0  0  0.109887  0.123144  0  1.036491  0
H  H24  1  0.12866392  0.29047282  0.21157559  1  0  0.086897  0  0.953866  0  0  0.097135  0  1.014295  0  0  0.099537  0  1.011794  0  0  0.121025  0.095272  0  1.016232  0
H  H25  1  0.37133618  0.20952904  0.71157685  1  0  0.08689  0  0.95388  0  0  0.097078  0  1.014354  0  0  0.099518  0  1.011806  0  0  0.121028  0.095216  0  1.016291  0
H  H26  1  0.87133431  0.70952601  0.78842096  1  0  0.08688  0  0.953902  0  0  0.097055  0  1.014388  0  0  0.099503  0  1.011831  0  0  0.121022  0.095195  0  1.016326  0
H  H27  1  0.62866863  0.79047381  0.28842116  1  0  0.086858  0  0.953908  0  0  0.097034  0  1.014392  0  0  0.099482  0  1.011836  0  0  0.121016  0.095175  0  1.016326  0
H  H28  1  0.10662272  0.35762039  0.01641883  1  0  0.433619  0  0.837852  0  0  0.40673  0  0.9067  0  0  0.416485  0  0.892485  0  0  0.302738  0.399774  0  0.916487  0
H  H29  1  0.39337598  0.14237941  0.51641797  1  0  0.433606  0  0.837886  0  0  0.406717  0  0.906722  0  0  0.416472  0  0.892508  0  0  0.302722  0.399758  0  0.916526  0
H  H30  1  0.89337531  0.64238087  0.98358062  1  0  0.433609  0  0.837878  0  0  0.406724  0  0.906711  0  0  0.416479  0  0.892498  0  0  0.302726  0.399766  0  0.916517  0
H  H31  1  0.60662385  0.85762103  0.48358148  1  0  0.433625  0  0.837843  0  0  0.406736  0  0.906696  0  0  0.416492  0  0.89248  0  0  0.302739  0.399778  0  0.916488  0
H  H32  1  0.15936918  0.47687629  0.04812759  1  0  0.421819  0  0.884417  0  0  0.387234  0  0.954778  0  0  0.398485  0  0.938487  0  0  0.288489  0.379294  0  0.966261  0
H  H33  1  0.34062944  0.02312345  0.54812691  1  0  0.421787  0  0.884465  0  0  0.387201  0  0.95483  0  0  0.398452  0  0.938538  0  0  0.28847  0.379258  0  0.966319  0
H  H34  1  0.84062650  0.52312417  0.95187259  1  0  0.421744  0  0.884525  0  0  0.387201  0  0.954822  0  0  0.398453  0  0.93853  0  0  0.288464  0.379261  0  0.966305  0
H  H35  1  0.65937039  0.97687699  0.45187182  1  0  0.421782  0  0.884471  0  0  0.387196  0  0.954837  0  0  0.398448  0  0.938546  0  0  0.288467  0.379256  0  0.966321  0
C  C36  1  0.61045916  0.42416995  0.16345100  1  0  0.137297  0  3.719183  0  0  0.100999  0  3.97963  0  0  0.108609  0  3.996473  0  0  0.047091  0.096046  0  3.968211  0
C  C37  1  0.88954045  0.07583163  0.66345312  1  0  0.137262  0  3.719245  0  0  0.10102  0  3.979704  0  0  0.108606  0  3.996533  0  0  0.047075  0.096063  0  3.968285  0
C  C38  1  0.38953936  0.57582969  0.83654846  1  0  0.137287  0  3.719211  0  0  0.100996  0  3.97968  0  0  0.108591  0  3.996514  0  0  0.047059  0.096042  0  3.968253  0
C  C39  1  0.11045965  0.92416962  0.33654706  1  0  0.137315  0  3.719244  0  0  0.101022  0  3.979724  0  0  0.108609  0  3.996554  0  0  0.047067  0.096068  0  3.968293  0
C  C40  1  0.46463016  0.37652349  0.17408704  1  0  -0.119046  0  3.741481  0  0  -0.127987  0  3.992906  0  0  -0.1355  0  4.013941  0  0  -0.081445  -0.123231  0  3.978814  0
C  C41  1  0.03536920  0.12347602  0.67408942  1  0  -0.119052  0  3.741505  0  0  -0.127956  0  3.992909  0  0  -0.13547  0  4.013952  0  0  -0.081403  -0.123197  0  3.978817  0
C  C42  1  0.53536780  0.62347454  0.82591242  1  0  -0.119064  0  3.741485  0  0  -0.127993  0  3.992903  0  0  -0.135508  0  4.013945  0  0  -0.081445  -0.123239  0  3.978812  0
C  C43  1  0.96463035  0.87652362  0.32591149  1  0  -0.119034  0  3.741498  0  0  -0.127928  0  3.992911  0  0  -0.135444  0  4.013955  0  0  -0.081401  -0.123174  0  3.978819  0
C  C44  1  0.42566184  0.28128128  0.22675338  1  0  -0.009296  0  3.700256  0  0  -0.037849  0  3.941593  0  0  -0.03361  0  3.959967  0  0  -0.058292  -0.040385  0  3.929214  0
C  C45  1  0.07433766  0.21871894  0.72675562  1  0  -0.009314  0  3.700351  0  0  -0.037894  0  3.94169  0  0  -0.033666  0  3.960065  0  0  -0.058339  -0.040432  0  3.929305  0
C  C46  1  0.57433791  0.71871593  0.77324535  1  0  -0.009255  0  3.700317  0  0  -0.037824  0  3.941638  0  0  -0.033596  0  3.960015  0  0  -0.058247  -0.04036  0  3.929256  0
C  C47  1  0.92566320  0.78128150  0.27324529  1  0  -0.009338  0  3.700375  0  0  -0.037918  0  3.941702  0  0  -0.033686  0  3.960076  0  0  -0.058344  -0.040458  0  3.929323  0
C  C48  1  0.52873894  0.23619570  0.26937994  1  0  -0.094108  0  3.650469  0  0  -0.072025  0  3.886607  0  0  -0.081673  0  3.90669  0  0  0.005964  -0.066205  0  3.873563  0
C  C49  1  0.97126118  0.26380487  0.76938105  1  0  -0.094055  0  3.650366  0  0  -0.07201  0  3.886536  0  0  -0.081622  0  3.906601  0  0  0.006009  -0.066169  0  3.873479  0
C  C50  1  0.47126006  0.76380232  0.73061879  1  0  -0.094093  0  3.650451  0  0  -0.072049  0  3.8866  0  0  -0.08166  0  3.906663  0  0  0.005981  -0.066211  0  3.873544  0
C  C51  1  0.02874044  0.73619475  0.23061986  1  0  -0.094015  0  3.650393  0  0  -0.071951  0  3.886566  0  0  -0.081569  0  3.906631  0  0  0.006028  -0.066112  0  3.87351  0
C  C52  1  0.67399683  0.29120719  0.25743229  1  0  0.196739  0  3.660781  0  0  0.170207  0  3.922017  0  0  0.178686  0  3.939363  0  0  0.136045  0.164581  0  3.910422  0
C  C53  1  0.82600228  0.20879341  0.75743359  1  0  0.196763  0  3.660651  0  0  0.170271  0  3.921914  0  0  0.178702  0  3.939257  0  0  0.136038  0.16461  0  3.910317  0
C  C54  1  0.32600272  0.70879244  0.74256644  1  0  0.196801  0  3.660721  0  0  0.170292  0  3.921988  0  0  0.178722  0  3.939333  0  0  0.136045  0.164622  0  3.910394  0
C  C55  1  0.17399858  0.79120703  0.24256804  1  0  0.196642  0  3.660825  0  0  0.170102  0  3.922133  0  0  0.178536  0  3.939476  0  0  0.135997  0.164438  0  3.910534  0
C  C56  1  0.80079266  0.25771409  0.29577395  1  0  0.199524  0  3.654969  0  0  0.188262  0  3.896905  0  0  0.197673  0  3.913553  0  0  0.142197  0.18193  0  3.885871  0
C  C57  1  0.69920739  0.24228644  0.79577460  1  0  0.199534  0  3.654946  0  0  0.188201  0  3.896943  0  0  0.197641  0  3.913565  0  0  0.142196  0.181891  0  3.885893  0
C  C58  1  0.19920689  0.74228555  0.70422551  1  0  0.199477  0  3.654978  0  0  0.188186  0  3.896948  0  0  0.197626  0  3.913572  0  0  0.142188  0.181889  0  3.885888  0
C  C59  1  0.30079555  0.75771398  0.20422704  1  0  0.199618  0  3.6549  0  0  0.188339  0  3.896866  0  0  0.197776  0  3.913487  0  0  0.142241  0.182034  0  3.885815  0
C  C60  1  0.80680178  0.20229423  0.38325309  1  0  -0.098958  0  3.658719  0  0  -0.081019  0  3.893436  0  0  -0.090617  0  3.913202  0  0  0.003389  -0.07527  0  3.880672  0
C  C61  1  0.69319806  0.29770614  0.88325368  1  0  -0.099031  0  3.658662  0  0  -0.081035  0  3.893316  0  0  -0.090636  0  3.913071  0  0  0.00338  -0.075291  0  3.880547  0
C  C62  1  0.19319992  0.79770862  0.61674709  1  0  -0.098966  0  3.658627  0  0  -0.080998  0  3.8933  0  0  -0.090603  0  3.913061  0  0  0.003421  -0.075259  0  3.880535  0
C  C63  1  0.30680197  0.70229188  0.11674868  1  0  -0.099028  0  3.658582  0  0  -0.081033  0  3.893271  0  0  -0.090628  0  3.913015  0  0  0.003358  -0.0753  0  3.880508  0
C  C64  1  0.93313684  0.17207169  0.40496796  1  0  -0.00739  0  3.690318  0  0  -0.034848  0  3.934523  0  0  -0.030113  0  3.95239  0  0  -0.059994  -0.03772  0  3.922498  0
C  C65  1  0.56686398  0.32792864  0.90497008  1  0  -0.007215  0  3.690205  0  0  -0.034681  0  3.934382  0  0  -0.029947  0  3.952251  0  0  -0.059895  -0.037552  0  3.922352  0
C  C66  1  0.06686513  0.82793197  0.59503222  1  0  -0.007282  0  3.690314  0  0  -0.034766  0  3.934533  0  0  -0.030023  0  3.952397  0  0  -0.059945  -0.037631  0  3.922498  0
C  C67  1  0.43313577  0.67206858  0.09503301  1  0  -0.00731  0  3.690302  0  0  -0.034793  0  3.934503  0  0  -0.030053  0  3.952366  0  0  -0.059977  -0.037653  0  3.922465  0
C  C68  1  0.05161529  0.20044015  0.34389570  1  0  -0.118473  0  3.72464  0  0  -0.129695  0  3.97673  0  0  -0.137387  0  3.997335  0  0  -0.078519  -0.124832  0  3.963023  0
C  C69  1  0.44838553  0.29956146  0.84389680  1  0  -0.118574  0  3.724849  0  0  -0.12982  0  3.976921  0  0  -0.137517  0  3.997536  0  0  -0.078536  -0.12496  0  3.963215  0
C  C70  1  0.94838669  0.79956351  0.65610375  1  0  -0.118564  0  3.724829  0  0  -0.129796  0  3.976884  0  0  -0.137494  0  3.9975  0  0  -0.078518  -0.124932  0  3.963178  0
C  C71  1  0.55161478  0.70043736  0.15610411  1  0  -0.118554  0  3.724854  0  0  -0.129789  0  3.976916  0  0  -0.137487  0  3.997533  0  0  -0.078517  -0.124933  0  3.963211  0
C  C72  1  0.04015594  0.26074623  0.26175814  1  0  0.146785  0  3.690913  0  0  0.113046  0  3.938847  0  0  0.121192  0  3.956189  0  0  0.057178  0.107723  0  3.927167  0
C  C73  1  0.45984432  0.23925635  0.76176001  1  0  0.146875  0  3.691137  0  0  0.113192  0  3.939052  0  0  0.12131  0  3.956384  0  0  0.057207  0.10786  0  3.927378  0
C  C74  1  0.95984313  0.73925502  0.73823914  1  0  0.146848  0  3.691158  0  0  0.113178  0  3.939063  0  0  0.121289  0  3.956394  0  0  0.057195  0.107842  0  3.927399  0
C  C75  1  0.54015890  0.76074489  0.23823872  1  0  0.146978  0  3.690948  0  0  0.113309  0  3.938863  0  0  0.121419  0  3.956194  0  0  0.057276  0.107976  0  3.927191  0
C  C76  1  0.46867759  0.13066338  0.32086832  1  0  0.657766  0  3.930397  0  0  0.604006  0  4.232212  0  0  0.638676  0  4.224551  0  0  0.207062  0.580488  0  4.236672  0
C  C77  1  0.03132169  0.36933667  0.82087042  1  0  0.657774  0  3.930469  0  0  0.604041  0  4.232248  0  0  0.638703  0  4.224594  0  0  0.207084  0.580522  0  4.23671  0
C  C78  1  0.53132603  0.86933301  0.67912823  1  0  0.657662  0  3.930554  0  0  0.603969  0  4.232291  0  0  0.63863  0  4.224637  0  0  0.20702  0.580462  0  4.236737  0
C  C79  1  0.96867993  0.63066296  0.17913412  1  0  0.65785  0  3.930315  0  0  0.604118  0  4.232087  0  0  0.638783  0  4.224429  0  0  0.207101  0.580601  0  4.236549  0
C  C80  1  0.69422621  0.18672996  0.46173329  1  0  0.644763  0  3.928183  0  0  0.590377  0  4.22962  0  0  0.623711  0  4.223442  0  0  0.202638  0.567771  0  4.233076  0
C  C81  1  0.80577041  0.31327351  0.96173376  1  0  0.644836  0  3.928081  0  0  0.590487  0  4.229433  0  0  0.623821  0  4.223253  0  0  0.202633  0.567878  0  4.232892  0
C  C82  1  0.30577183  0.81327129  0.53826616  1  0  0.644741  0  3.928223  0  0  0.590402  0  4.229581  0  0  0.623735  0  4.223404  0  0  0.202604  0.567791  0  4.233042  0
C  C83  1  0.19422734  0.68672694  0.03826787  1  0  0.644802  0  3.928203  0  0  0.590386  0  4.229659  0  0  0.623718  0  4.223484  0  0  0.202593  0.56778  0  4.233115  0
N  N84  1  0.71054494  0.38204784  0.20346596  1  0  -0.352378  0  3.240376  0  0  -0.281684  0  3.513046  0  0  -0.299275  0  3.527374  0  0  -0.316205  -0.269852  0  3.503292  0
N  N85  1  0.78945429  0.11795286  0.70346667  1  0  -0.352373  0  3.240321  0  0  -0.281689  0  3.512974  0  0  -0.29925  0  3.527293  0  0  -0.316177  -0.269832  0  3.503205  0
N  N86  1  0.28945385  0.61795261  0.79653350  1  0  -0.352375  0  3.240312  0  0  -0.281694  0  3.512994  0  0  -0.299256  0  3.527312  0  0  -0.316183  -0.269833  0  3.503223  0
N  N87  1  0.21054553  0.88204758  0.29653351  1  0  -0.352332  0  3.240454  0  0  -0.281639  0  3.513144  0  0  -0.299201  0  3.527465  0  0  -0.316147  -0.269778  0  3.503366  0
N  N88  1  0.91879092  0.28784479  0.23881401  1  0  -0.347618  0  3.267479  0  0  -0.271182  0  3.536806  0  0  -0.289855  0  3.549304  0  0  -0.316372  -0.258672  0  3.528337  0
N  N89  1  0.58120824  0.21215585  0.73881407  1  0  -0.347653  0  3.267559  0  0  -0.271224  0  3.536916  0  0  -0.289904  0  3.549417  0  0  -0.316387  -0.258716  0  3.528444  0
N  N90  1  0.08120788  0.71215566  0.76118544  1  0  -0.347656  0  3.267584  0  0  -0.271235  0  3.536926  0  0  -0.289916  0  3.549431  0  0  -0.316423  -0.258729  0  3.528455  0
N  N91  1  0.41879366  0.78784459  0.26118611  1  0  -0.347763  0  3.26744  0  0  -0.271354  0  3.536805  0  0  -0.290034  0  3.549309  0  0  -0.316459  -0.258846  0  3.528332  0
O  O92  1  0.36068147  0.12412930  0.37380263  1  0  -0.63094  0  1.960607  0  0  -0.58071  0  2.187579  0  0  -0.605166  0  2.177249  0  0  -0.313852  -0.563247  0  2.194015  0
O  O93  1  0.13931562  0.37587067  0.87380391  1  0  -0.630955  0  1.960743  0  0  -0.580729  0  2.187701  0  0  -0.605187  0  2.17738  0  0  -0.313859  -0.563266  0  2.194138  0
O  O94  1  0.63931773  0.87586631  0.62619537  1  0  -0.63086  0  1.960881  0  0  -0.580655  0  2.187825  0  0  -0.605115  0  2.177507  0  0  -0.313803  -0.5632  0  2.194259  0
O  O95  1  0.86068318  0.62412978  0.12619846  1  0  -0.631001  0  1.960566  0  0  -0.580786  0  2.187532  0  0  -0.605245  0  2.177208  0  0  -0.313877  -0.563322  0  2.193971  0
O  O96  1  0.52839637  0.05374049  0.30324949  1  0  -0.632153  0  2.012107  0  0  -0.563327  0  2.267417  0  0  -0.59273  0  2.254479  0  0  -0.325523  -0.542654  0  2.275579  0
O  O97  1  0.97160422  0.44626164  0.80324894  1  0  -0.632167  0  2.012066  0  0  -0.56335  0  2.267376  0  0  -0.59275  0  2.254433  0  0  -0.325543  -0.542675  0  2.275542  0
O  O98  1  0.47160836  0.94625912  0.69674924  1  0  -0.63213  0  2.011906  0  0  -0.563348  0  2.267224  0  0  -0.592751  0  2.254284  0  0  -0.32555  -0.542677  0  2.275383  0
O  O99  1  0.02839589  0.55373961  0.19675197  1  0  -0.632181  0  2.012138  0  0  -0.563365  0  2.267441  0  0  -0.592767  0  2.254501  0  0  -0.325532  -0.542691  0  2.275608  0
O  O100  1  0.63501178  0.25949457  0.48055988  1  0  -0.569763  0  1.864986  0  0  -0.532409  0  2.065192  0  0  -0.553918  0  2.058413  0  0  -0.313473  -0.517109  0  2.069282  0
O  O101  1  0.86499114  0.24050320  0.98056256  1  0  -0.569905  0  1.86471  0  0  -0.53257  0  2.064889  0  0  -0.554084  0  2.058109  0  0  -0.313556  -0.517271  0  2.068982  0
O  O102  1  0.36498797  0.74050265  0.51943812  1  0  -0.569809  0  1.864878  0  0  -0.532473  0  2.065064  0  0  -0.553985  0  2.058285  0  0  -0.313507  -0.517172  0  2.069155  0
O  O103  1  0.13501125  0.75949562  0.01944052  1  0  -0.569858  0  1.864912  0  0  -0.532499  0  2.065126  0  0  -0.554011  0  2.058348  0  0  -0.313505  -0.517199  0  2.069215  0
O  O104  1  0.67517333  0.09593399  0.50923598  1  0  -0.690561  0  2.143439  0  0  -0.604759  0  2.406871  0  0  -0.636064  0  2.393316  0  0  -0.324247  -0.582847  0  2.415602  0
O  O105  1  0.82482769  0.40406786  0.00923514  1  0  -0.690526  0  2.143681  0  0  -0.604744  0  2.407085  0  0  -0.636049  0  2.393526  0  0  -0.324207  -0.582822  0  2.41581  0
O  O106  1  0.32482857  0.90406644  0.49076420  1  0  -0.690506  0  2.143619  0  0  -0.604725  0  2.407039  0  0  -0.636028  0  2.393482  0  0  -0.324186  -0.582807  0  2.415765  0
O  O107  1  0.17517270  0.59593420  0.99076504  1  0  -0.690514  0  2.143565  0  0  -0.604693  0  2.407004  0  0  -0.636  0  2.393451  0  0  -0.324194  -0.582778  0  2.415731  0
O  O108  1  0.12711828  0.40223356  0.07550803  1  0  -0.815  0  1.875091  0  0  -0.753997  0  2.076593  0  0  -0.775701  0  2.042585  0  0  -0.570364  -0.738533  0  2.099794  0
O  O109  1  0.37288132  0.09776613  0.57550724  1  0  -0.814986  0  1.875134  0  0  -0.75397  0  2.076602  0  0  -0.775677  0  2.0426  0  0  -0.570348  -0.738503  0  2.099819  0
O  O110  1  0.87288079  0.59776769  0.92449215  1  0  -0.814925  0  1.875185  0  0  -0.753945  0  2.076611  0  0  -0.775654  0  2.042611  0  0  -0.570334  -0.738479  0  2.099828  0
O  O111  1  0.62711851  0.90223432  0.42449149  1  0  -0.814999  0  1.875111  0  0  -0.753978  0  2.076586  0  0  -0.775686  0  2.042584  0  0  -0.570356  -0.738515  0  2.099789  0
