# generated using pymatgen
data_CdH16C16Br2(NO2)2
_symmetry_space_group_name_H-M   'P 1'
_cell_length_a   7.64129320
_cell_length_b   9.32118936
_cell_length_c   13.94940730
_cell_angle_alpha   74.56737538
_cell_angle_beta   86.84824899
_cell_angle_gamma   72.86837593
_symmetry_Int_Tables_number   1
_chemical_formula_structural   CdH16C16Br2(NO2)2
_chemical_formula_sum   'Cd2 H32 C32 Br4 N4 O8'
_cell_volume   914.94624439
_cell_formula_units_Z   2
loop_
 _symmetry_equiv_pos_site_id
 _symmetry_equiv_pos_as_xyz
  1  'x, y, z'
loop_
 _atom_site_type_symbol
 _atom_site_label
 _atom_site_symmetry_multiplicity
 _atom_site_fract_x
 _atom_site_fract_y
 _atom_site_fract_z
 _atom_site_occupancy
 _atom_site_hle17_bader_spin_density
 _atom_site_hle17_ddec_charge
 _atom_site_hle17_ddec_spin_density
 _atom_site_hle17_ddec_sum_bond_order
 _atom_site_hle17_magmom
 _atom_site_hse06_10hf_bader_spin_density
 _atom_site_hse06_10hf_ddec_charge
 _atom_site_hse06_10hf_ddec_spin_density
 _atom_site_hse06_10hf_ddec_sum_bond_order
 _atom_site_hse06_10hf_magmom
 _atom_site_hse06_bader_spin_density
 _atom_site_hse06_ddec_charge
 _atom_site_hse06_ddec_spin_density
 _atom_site_hse06_ddec_sum_bond_order
 _atom_site_hse06_magmom
 _atom_site_pbe_bader_spin_density
 _atom_site_pbe_cm5_charge
 _atom_site_pbe_ddec_charge
 _atom_site_pbe_ddec_spin_density
 _atom_site_pbe_ddec_sum_bond_order
 _atom_site_pbe_magmom
Cd  Cd0  1  0.46256189  0.16006999  0.24871411  1  0  0.990971  0  1.814111  0  0  0.831739  0  2.272474  0  0  0.889678  0  2.220195  0  0  0.587698  0.789789  0  2.30969  0
Cd  Cd1  1  0.53743600  0.83992823  0.75128725  1  0  0.990992  0  1.814189  0  0  0.831766  0  2.272549  0  0  0.889704  0  2.220271  0  0  0.587699  0.789805  0  2.30979  0
H  H2  1  0.27608757  0.52151957  0.47341642  1  0  0.099842  0  0.93153  0  0  0.108298  0  0.995049  0  0  0.111356  0  0.992399  0  0  0.128868  0.106311  0  0.996254  0
H  H3  1  0.72391430  0.47848219  0.52658277  1  0  0.099814  0  0.93161  0  0  0.108285  0  0.995106  0  0  0.111351  0  0.992447  0  0  0.128857  0.106299  0  0.996311  0
H  H4  1  0.03266069  0.69546409  0.34770787  1  0  0.128509  0  0.948398  0  0  0.133865  0  1.014988  0  0  0.137895  0  1.012677  0  0  0.110816  0.128898  0  1.021074  0
H  H5  1  0.96733857  0.30453764  0.65229140  1  0  0.128491  0  0.94845  0  0  0.133845  0  1.015049  0  0  0.137877  0  1.012731  0  0  0.110809  0.128895  0  1.021111  0
H  H6  1  0.80981851  0.95216233  0.56504497  1  0  0.125158  0  0.963187  0  0  0.128311  0  1.031461  0  0  0.132746  0  1.028923  0  0  0.105502  0.125176  0  1.033127  0
H  H7  1  0.19017766  0.04783704  0.43495552  1  0  0.125146  0  0.96319  0  0  0.128299  0  1.031463  0  0  0.132735  0  1.028925  0  0  0.105502  0.125162  0  1.033131  0
H  H8  1  0.07002614  0.77384619  0.68118651  1  0  0.123323  0  0.93443  0  0  0.12536  0  1.004285  0  0  0.129294  0  1.000119  0  0  0.129529  0.122301  0  1.007597  0
H  H9  1  0.92997223  0.22615437  0.31881299  1  0  0.123293  0  0.934435  0  0  0.125338  0  1.004292  0  0  0.129272  0  1.000126  0  0  0.12953  0.122278  0  1.007605  0
H  H10  1  0.37553400  0.62165123  0.68558490  1  0  0.101905  0  0.959154  0  0  0.113112  0  1.027201  0  0  0.114739  0  1.025998  0  0  0.11077  0.111528  0  1.028698  0
H  H11  1  0.62446442  0.37835283  0.31441469  1  0  0.101861  0  0.959225  0  0  0.113089  0  1.027259  0  0  0.114715  0  1.026057  0  0  0.110753  0.111509  0  1.028752  0
H  H12  1  0.44546082  0.49232379  0.60826650  1  0  0.068973  0  0.926443  0  0  0.084954  0  0.988668  0  0  0.085813  0  0.987776  0  0  0.107832  0.084212  0  0.989491  0
H  H13  1  0.55454159  0.50768382  0.39173090  1  0  0.068969  0  0.926441  0  0  0.084953  0  0.988667  0  0  0.085813  0  0.987769  0  0  0.107837  0.084238  0  0.989465  0
H  H14  1  0.25433120  0.33207583  0.69521316  1  0  0.07936  0  0.961981  0  0  0.096193  0  1.023241  0  0  0.097271  0  1.023832  0  0  0.088609  0.095586  0  1.022381  0
H  H15  1  0.74567756  0.66792133  0.30478521  1  0  0.079345  0  0.962004  0  0  0.096176  0  1.023257  0  0  0.097257  0  1.023851  0  0  0.088615  0.09557  0  1.022398  0
H  H16  1  0.13523735  0.47628462  0.75532553  1  0  0.073005  0  0.972937  0  0  0.085878  0  1.044834  0  0  0.087312  0  1.044415  0  0  0.078705  0.084701  0  1.045063  0
H  H17  1  0.86476620  0.52371248  0.24467086  1  0  0.072958  0  0.972889  0  0  0.085824  0  1.04481  0  0  0.087263  0  1.044388  0  0  0.078666  0.084647  0  1.045044  0
H  H18  1  0.54842903  0.31039964  0.78763270  1  0  0.084552  0  0.949875  0  0  0.101395  0  1.011396  0  0  0.102579  0  1.011512  0  0  0.083758  0.098292  0  1.01618  0
H  H19  1  0.45157283  0.68960213  0.21236934  1  0  0.084492  0  0.949946  0  0  0.101307  0  1.011473  0  0  0.102491  0  1.011589  0  0  0.083738  0.098205  0  1.01626  0
H  H20  1  0.40926420  0.43087821  0.85746363  1  0  0.078696  0  0.941962  0  0  0.094279  0  1.003767  0  0  0.095221  0  1.004398  0  0  0.088268  0.093392  0  1.003304  0
H  H21  1  0.59073244  0.56912350  0.14253714  1  0  0.078693  0  0.941944  0  0  0.094265  0  1.003752  0  0  0.095208  0  1.00438  0  0  0.088246  0.09339  0  1.003272  0
H  H22  1  0.38591282  0.11291118  0.84227548  1  0  0.095225  0  0.972627  0  0  0.104193  0  1.044694  0  0  0.10592  0  1.043446  0  0  0.106058  0.102346  0  1.04653  0
H  H23  1  0.61408727  0.88708823  0.15772489  1  0  0.09521  0  0.972627  0  0  0.1042  0  1.044685  0  0  0.105928  0  1.043436  0  0  0.106019  0.102354  0  1.046521  0
H  H24  1  0.48141671  0.14928308  0.94445161  1  0  0.099091  0  0.944104  0  0  0.112456  0  1.007843  0  0  0.114259  0  1.00612  0  0  0.112647  0.111137  0  1.008995  0
H  H25  1  0.51858427  0.85071751  0.05554781  1  0  0.09908  0  0.944091  0  0  0.112458  0  1.007844  0  0  0.11426  0  1.006122  0  0  0.112644  0.11114  0  1.008994  0
H  H26  1  0.28870897  0.32375291  0.02897481  1  0  0.109925  0  0.939989  0  0  0.116519  0  1.005011  0  0  0.119624  0  1.002401  0  0  0.129813  0.114413  0  1.006348  0
H  H27  1  0.71129064  0.67624416  0.97102671  1  0  0.109898  0  0.940022  0  0  0.11651  0  1.005012  0  0  0.119614  0  1.002403  0  0  0.129824  0.114402  0  1.006353  0
H  H28  1  0.00137256  0.34832119  0.12725544  1  0  0.121353  0  0.964186  0  0  0.123821  0  1.035461  0  0  0.128193  0  1.032591  0  0  0.106279  0.120493  0  1.038028  0
H  H29  1  0.99862919  0.65167357  0.87274643  1  0  0.121218  0  0.964155  0  0  0.123725  0  1.035416  0  0  0.128097  0  1.032545  0  0  0.106227  0.120397  0  1.037986  0
H  H30  1  0.79807111  0.14754738  0.92680699  1  0  0.12401  0  0.94735  0  0  0.129839  0  1.012786  0  0  0.133832  0  1.010745  0  0  0.111669  0.126683  0  1.015057  0
H  H31  1  0.20192767  0.85245202  0.07319485  1  0  0.123972  0  0.947459  0  0  0.129841  0  1.012846  0  0  0.133834  0  1.010807  0  0  0.111662  0.126681  0  1.015116  0
H  H32  1  0.09417309  0.13173358  0.83587008  1  0  0.124502  0  0.948611  0  0  0.129821  0  1.013512  0  0  0.133753  0  1.010033  0  0  0.13153  0.126803  0  1.016299  0
H  H33  1  0.90582782  0.86826350  0.16413140  1  0  0.124499  0  0.948535  0  0  0.129819  0  1.013449  0  0  0.133749  0  1.009972  0  0  0.131534  0.126801  0  1.01624  0
C  C34  1  0.75394149  0.94964263  0.37250758  1  0  0.620808  0  3.926287  0  0  0.575628  0  4.212628  0  0  0.609053  0  4.206636  0  0  0.195261  0.553179  0  4.215225  0
C  C35  1  0.24605818  0.05035794  0.62749260  1  0  0.620697  0  3.926263  0  0  0.575541  0  4.21262  0  0  0.608966  0  4.20663  0  0  0.195234  0.553098  0  4.215209  0
C  C36  1  0.17101240  0.61985379  0.48900340  1  0  0.079919  0  3.611714  0  0  0.036523  0  3.867696  0  0  0.043688  0  3.882557  0  0  0.061204  0.032312  0  3.856609  0
C  C37  1  0.82898686  0.38014794  0.51099587  1  0  0.079875  0  3.611803  0  0  0.036463  0  3.867773  0  0  0.043622  0  3.88263  0  0  0.061187  0.032248  0  3.856691  0
C  C38  1  0.03426068  0.71611039  0.42076748  1  0  -0.102486  0  3.709082  0  0  -0.129824  0  3.971759  0  0  -0.134448  0  3.990188  0  0  -0.069292  -0.127659  0  3.961231  0
C  C39  1  0.96573769  0.28389016  0.57923202  1  0  -0.102472  0  3.709082  0  0  -0.129776  0  3.971763  0  0  -0.134401  0  3.990195  0  0  -0.069271  -0.127621  0  3.961209  0
C  C40  1  0.90225633  0.83955816  0.44646576  1  0  0.025723  0  3.66901  0  0  0.04014  0  3.902591  0  0  0.040598  0  3.919771  0  0  0.019145  0.039591  0  3.889896  0
C  C41  1  0.09773984  0.16044121  0.55353401  1  0  0.025826  0  3.668816  0  0  0.040154  0  3.902512  0  0  0.040613  0  3.919693  0  0  0.019155  0.039604  0  3.889818  0
C  C42  1  0.91143936  0.85937449  0.54151933  1  0  -0.104498  0  3.699715  0  0  -0.127044  0  3.951289  0  0  -0.133791  0  3.971446  0  0  -0.065437  -0.122934  0  3.937664  0
C  C43  1  0.08855681  0.14062488  0.45848116  1  0  -0.104524  0  3.69966  0  0  -0.127041  0  3.951273  0  0  -0.133794  0  3.971432  0  0  -0.06546  -0.122935  0  3.937648  0
C  C44  1  0.05284266  0.76144527  0.60702035  1  0  0.113204  0  3.564027  0  0  0.072547  0  3.816686  0  0  0.081552  0  3.829529  0  0  0.073627  0.066724  0  3.808342  0
C  C45  1  0.94715612  0.23855413  0.39298006  1  0  0.1133  0  3.563988  0  0  0.07262  0  3.816663  0  0  0.08163  0  3.829502  0  0  0.073672  0.066803  0  3.808312  0
C  C46  1  0.33144810  0.54523236  0.65096206  1  0  -0.010422  0  3.584184  0  0  -0.074619  0  3.842377  0  0  -0.070615  0  3.8526  0  0  -0.054109  -0.076972  0  3.835273  0
C  C47  1  0.66855335  0.45477056  0.34903692  1  0  -0.010454  0  3.584168  0  0  -0.074671  0  3.842334  0  0  -0.070669  0  3.852576  0  0  -0.05414  -0.07705  0  3.835234  0
C  C48  1  0.27054868  0.42166572  0.72892711  1  0  -0.132144  0  3.665796  0  0  -0.170811  0  3.921117  0  0  -0.173028  0  3.935167  0  0  -0.173227  -0.168561  0  3.910514  0
C  C49  1  0.72945622  0.57833490  0.27107075  1  0  -0.131969  0  3.665668  0  0  -0.170614  0  3.920903  0  0  -0.172849  0  3.934972  0  0  -0.173147  -0.168363  0  3.910312  0
C  C50  1  0.40920950  0.34627065  0.81557254  1  0  -0.121384  0  3.67665  0  0  -0.157623  0  3.929156  0  0  -0.160012  0  3.943576  0  0  -0.16729  -0.15582  0  3.918958  0
C  C51  1  0.59079189  0.65372877  0.18442779  1  0  -0.121397  0  3.676646  0  0  -0.157602  0  3.929173  0  0  -0.159984  0  3.943595  0  0  -0.167252  -0.155806  0  3.918971  0
C  C52  1  0.37868897  0.19884500  0.88356629  1  0  -0.03533  0  3.585998  0  0  -0.101732  0  3.844721  0  0  -0.098136  0  3.85445  0  0  -0.063513  -0.103671  0  3.838014  0
C  C53  1  0.62131070  0.80115558  0.11643389  1  0  -0.035267  0  3.585904  0  0  -0.101745  0  3.844697  0  0  -0.09815  0  3.85443  0  0  -0.063491  -0.103687  0  3.837992  0
C  C54  1  0.17296541  0.29108991  0.00884394  1  0  0.092178  0  3.586879  0  0  0.051291  0  3.836625  0  0  0.057773  0  3.852677  0  0  0.066732  0.047909  0  3.825191  0
C  C55  1  0.82703550  0.70890718  0.99115826  1  0  0.092188  0  3.58696  0  0  0.051321  0  3.836692  0  0  0.057805  0  3.852745  0  0  0.066744  0.047942  0  3.825254  0
C  C56  1  0.01404123  0.30285668  0.06217014  1  0  -0.106023  0  3.734824  0  0  -0.12973  0  3.992802  0  0  -0.135019  0  4.012454  0  0  -0.06966  -0.127311  0  3.980353  0
C  C57  1  0.98596010  0.69713924  0.93783154  1  0  -0.105845  0  3.734739  0  0  -0.12965  0  3.992754  0  0  -0.134936  0  4.012397  0  0  -0.069655  -0.127239  0  3.980316  0
C  C58  1  0.87731567  0.24738941  0.03567887  1  0  0.016205  0  3.678462  0  0  0.028375  0  3.914779  0  0  0.028494  0  3.931779  0  0  0.014478  0.027586  0  3.903022  0
C  C59  1  0.12268483  0.75260884  0.96432241  1  0  0.016163  0  3.67842  0  0  0.028413  0  3.914665  0  0  0.028531  0  3.931665  0  0  0.014514  0.027626  0  3.9029  0
C  C60  1  0.90134155  0.19014341  0.95137974  1  0  -0.097008  0  3.692911  0  0  -0.121744  0  3.95251  0  0  -0.126725  0  3.971147  0  0  -0.065463  -0.119604  0  3.941432  0
C  C61  1  0.09865764  0.80985483  0.04862230  1  0  -0.097052  0  3.69291  0  0  -0.121823  0  3.952477  0  0  -0.126804  0  3.971113  0  0  -0.065447  -0.11967  0  3.941392  0
C  C62  1  0.06343101  0.17970615  0.90025553  1  0  0.098276  0  3.54236  0  0  0.055191  0  3.79594  0  0  0.06276  0  3.809746  0  0  0.068846  0.051078  0  3.786757  0
C  C63  1  0.93656818  0.82029208  0.09974507  1  0  0.098442  0  3.542157  0  0  0.055313  0  3.795815  0  0  0.062885  0  3.809619  0  0  0.068874  0.051191  0  3.786641  0
C  C64  1  0.71819370  0.23672752  0.10373976  1  0  0.623504  0  3.929885  0  0  0.578616  0  4.215853  0  0  0.612389  0  4.209003  0  0  0.196264  0.556023  0  4.218509  0
C  C65  1  0.28180425  0.76327420  0.89626026  1  0  0.623495  0  3.929797  0  0  0.578592  0  4.21577  0  0  0.612364  0  4.20892  0  0  0.196264  0.556  0  4.218425  0
Br  Br66  1  0.23878094  0.43414901  0.25358320  1  0  -0.59172  0  0.867815  0  0  -0.534205  0  1.139856  0  0  -0.55596  0  1.120906  0  0  -0.303323  -0.5153  0  1.156269  0
Br  Br67  1  0.76121135  0.56585028  0.74640953  1  0  -0.591705  0  0.867822  0  0  -0.534197  0  1.139864  0  0  -0.555955  0  1.120917  0  0  -0.303314  -0.515292  0  1.156284  0
Br  Br68  1  0.24777955  0.98475935  0.24855375  1  0  -0.568368  0  0.864303  0  0  -0.50519  0  1.130578  0  0  -0.52686  0  1.112127  0  0  -0.2955  -0.487168  0  1.146928  0
Br  Br69  1  0.75222639  0.01522730  0.75145232  1  0  -0.568371  0  0.864331  0  0  -0.505203  0  1.130631  0  0  -0.526875  0  1.112181  0  0  -0.295491  -0.487184  0  1.146988  0
N  N70  1  0.18096492  0.64555449  0.57943141  1  0  0.008707  0  3.526779  0  0  0.105114  0  3.732345  0  0  0.092901  0  3.757785  0  0  -0.202962  0.112915  0  3.715086  0
N  N71  1  0.81903605  0.35444610  0.42056873  1  0  0.008729  0  3.526719  0  0  0.105141  0  3.732281  0  0  0.092927  0  3.75772  0  0  -0.202953  0.112937  0  3.715032  0
N  N72  1  0.19760562  0.22596396  0.93136560  1  0  0.017286  0  3.504792  0  0  0.115192  0  3.70944  0  0  0.103397  0  3.734582  0  0  -0.201642  0.122757  0  3.691969  0
N  N73  1  0.80239488  0.77403429  0.06863568  1  0  0.017192  0  3.504805  0  0  0.115131  0  3.70947  0  0  0.103334  0  3.734613  0  0  -0.20167  0.1227  0  3.691997  0
O  O74  1  0.74763778  0.92079765  0.28921630  1  0  -0.618158  0  2.006074  0  0  -0.56291  0  2.241871  0  0  -0.590277  0  2.234887  0  0  -0.31637  -0.54333  0  2.245641  0
O  O75  1  0.25236058  0.07920291  0.71078391  1  0  -0.618136  0  2.006081  0  0  -0.562874  0  2.241845  0  0  -0.590243  0  2.234869  0  0  -0.316368  -0.543297  0  2.245615  0
O  O76  1  0.64384778  0.06453089  0.39823650  1  0  -0.601017  0  1.931681  0  0  -0.542879  0  2.160723  0  0  -0.57108  0  2.15211  0  0  -0.327884  -0.523073  0  2.165727  0
O  O77  1  0.35615539  0.93547089  0.60176264  1  0  -0.601023  0  1.931692  0  0  -0.54289  0  2.160733  0  0  -0.571091  0  2.15212  0  0  -0.327908  -0.523087  0  2.165737  0
O  O78  1  0.59654406  0.18322157  0.07938588  1  0  -0.630088  0  1.962306  0  0  -0.572907  0  2.200619  0  0  -0.600785  0  2.191808  0  0  -0.324607  -0.552975  0  2.205681  0
O  O79  1  0.40345134  0.81678362  0.92061288  1  0  -0.63006  0  1.962315  0  0  -0.572873  0  2.2006  0  0  -0.600746  0  2.191786  0  0  -0.324608  -0.552957  0  2.205697  0
O  O80  1  0.72027755  0.27485242  0.18417493  1  0  -0.605552  0  1.991202  0  0  -0.54742  0  2.227906  0  0  -0.57534  0  2.221111  0  0  -0.313622  -0.527746  0  2.231924  0
O  O81  1  0.27971951  0.72514812  0.81582533  1  0  -0.605574  0  1.991122  0  0  -0.547444  0  2.227832  0  0  -0.575365  0  2.221037  0  0  -0.313636  -0.52775  0  2.23181  0
