# generated using pymatgen
data_Ni3H30C20(NO5)4
_symmetry_space_group_name_H-M   'P 1'
_cell_length_a   7.41305449
_cell_length_b   8.70194691
_cell_length_c   11.63747146
_cell_angle_alpha   92.58236455
_cell_angle_beta   102.21957031
_cell_angle_gamma   91.96317750
_symmetry_Int_Tables_number   1
_chemical_formula_structural   Ni3H30C20(NO5)4
_chemical_formula_sum   'Ni3 H30 C20 N4 O20'
_cell_volume   732.21896096
_cell_formula_units_Z   1
loop_
 _symmetry_equiv_pos_site_id
 _symmetry_equiv_pos_as_xyz
  1  'x, y, z'
loop_
 _atom_site_type_symbol
 _atom_site_label
 _atom_site_symmetry_multiplicity
 _atom_site_fract_x
 _atom_site_fract_y
 _atom_site_fract_z
 _atom_site_occupancy
 _atom_site_hle17_ddec_charge
 _atom_site_hle17_ddec_spin_density
 _atom_site_hle17_ddec_sum_bond_order
 _atom_site_hle17_magmom
 _atom_site_hse06_10hf_ddec_charge
 _atom_site_hse06_10hf_ddec_spin_density
 _atom_site_hse06_10hf_ddec_sum_bond_order
 _atom_site_hse06_10hf_magmom
 _atom_site_hse06_ddec_charge
 _atom_site_hse06_ddec_spin_density
 _atom_site_hse06_ddec_sum_bond_order
 _atom_site_hse06_magmom
 _atom_site_pbe_cm5_charge
 _atom_site_pbe_ddec_charge
 _atom_site_pbe_ddec_spin_density
 _atom_site_pbe_ddec_sum_bond_order
 _atom_site_pbe_magmom
Ni  Ni0  1  0.99999970  0.00000033  0.49999982  1  1.049761  1.908373  1.771975  1.564  1.066121  1.916369  2.152471  1.682  1.141599  1.966969  2.089959  1.754  0.614217  1.004433  1.869802  2.205381  1.616
Ni  Ni1  1  0.74464847  0.28014468  0.84399430  1  0.847697  -1.790659  1.903837  -1.501  0.8457  -1.841111  2.290666  -1.628  0.936594  -1.897849  2.22127  -1.716  0.640396  0.778187  -1.789651  2.342508  -1.551
Ni  Ni2  1  0.25535175  0.71985439  0.15600617  1  0.847706  -1.790662  1.903838  -1.501  0.845724  -1.841114  2.290642  -1.628  0.936577  -1.89785  2.221315  -1.716  0.640388  0.778224  -1.789651  2.342454  -1.551
H  H3  1  0.48882411  0.80056229  0.89557433  1  0.123038  -0.000489  0.961755  0.0  0.129881  -0.000505  1.030366  -0.001  0.134787  -0.000345  1.025828  0.0  0.116845  0.125782  -0.000762  1.034522  -0.001
H  H4  1  0.51117752  0.19943910  0.10442125  1  0.123061  -0.000487  0.961668  0.0  0.129877  -0.000505  1.030333  -0.001  0.134784  -0.000345  1.025793  0.0  0.116849  0.125773  -0.000762  1.034487  -0.001
H  H5  1  0.28351235  0.56161344  0.55766997  1  0.133635  -0.000141  0.918235  0.0  0.140607  -0.000246  0.97772  0.0  0.145451  -0.00017  0.973365  0.0  0.12249  0.136603  -0.00034  0.98155  -0.001
H  H6  1  0.71648919  0.43838449  0.44232891  1  0.133615  -0.000138  0.918182  0.0  0.140582  -0.000246  0.977674  0.0  0.145425  -0.00017  0.973322  0.0  0.122487  0.136579  -0.000341  0.98151  -0.001
H  H7  1  0.81101264  0.09870125  0.07091728  1  0.081367  -5.7e-05  0.939856  0.0  0.095881  -0.000121  1.004762  0.0  0.096485  -6.8e-05  1.004792  0.0  0.106121  0.095466  -0.000187  1.004908  0.0
H  H8  1  0.18898891  0.90129668  0.92908247  1  0.081366  -5.7e-05  0.939812  0.0  0.095867  -0.000121  1.004694  0.0  0.096471  -6.9e-05  1.004722  0.0  0.106111  0.095455  -0.000187  1.004836  0.0
H  H9  1  0.97508819  0.25480696  0.08984099  1  0.081095  -0.000526  0.941926  -0.001  0.097017  -0.000279  1.001498  -0.001  0.097415  -0.000147  1.001535  -0.001  0.105996  0.096691  -0.000446  1.001734  -0.001
H  H10  1  0.02491199  0.74519096  0.91015944  1  0.08119  -0.000526  0.941918  -0.001  0.097047  -0.000279  1.001519  -0.001  0.097445  -0.000146  1.001559  -0.001  0.106016  0.096721  -0.000446  1.00176  -0.001
H  H11  1  0.76776993  0.92656036  0.89084470  1  0.066122  -0.000111  0.939564  0.0  0.084072  -0.000105  1.002809  0.0  0.083641  -6.3e-05  1.003847  0.0  0.103349  0.084452  -0.000129  1.002297  0.0
H  H12  1  0.23223162  0.07343758  0.10915505  1  0.06613  -0.000111  0.939565  0.0  0.084079  -0.000105  1.002813  0.0  0.083647  -6.3e-05  1.003851  0.0  0.10334  0.084457  -0.000129  1.002297  0.0
H  H13  1  0.90220445  0.96133072  0.78490027  1  0.095481  -0.000625  0.944813  -0.001  0.110561  -0.000364  1.004629  -0.001  0.111366  -0.000253  1.004193  -0.001  0.11088  0.109842  -0.000497  1.005118  -0.001
H  H14  1  0.09779848  0.03866723  0.21509966  1  0.095477  -0.000625  0.944861  -0.001  0.1106  -0.000364  1.00461  -0.001  0.111406  -0.000253  1.004173  -0.001  0.110894  0.10988  -0.000497  1.005095  -0.001
H  H15  1  0.06057075  0.16892701  0.91419033  1  0.251697  0.000319  0.924883  0.001  0.248051  -0.000244  0.976039  0.0  0.253321  -7.2e-05  0.974604  0.0  0.295455  0.244363  -0.000475  0.977041  0.0
H  H16  1  0.93942810  0.83107205  0.08580996  1  0.251705  0.000318  0.92489  0.001  0.248055  -0.000244  0.976052  0.0  0.253326  -7.2e-05  0.974614  0.0  0.295451  0.244367  -0.000475  0.977049  0.0
H  H17  1  0.47275517  0.07238463  0.83980500  1  0.427952  2e-05  0.871915  0.001  0.399432  -0.000384  0.933272  0.0  0.411234  -0.000233  0.916292  0.0  0.295581  0.390815  -0.00054  0.945655  -0.001
H  H18  1  0.52724368  0.92761443  0.16019529  1  0.427973  2e-05  0.871884  0.001  0.399449  -0.000383  0.933247  0.0  0.411252  -0.000233  0.916266  0.0  0.295599  0.390831  -0.00054  0.945631  -0.001
H  H19  1  0.70021088  0.87245667  0.55070629  1  0.431394  0.000207  0.867476  0.0  0.403947  0.000399  0.925833  0.0  0.415971  0.00024  0.908456  0.0  0.291007  0.395136  0.000551  0.938522  0.0
H  H20  1  0.29979077  0.12754357  0.44929441  1  0.431392  0.000208  0.867474  0.0  0.403946  0.000399  0.925833  0.0  0.415969  0.00024  0.908457  0.0  0.291015  0.395134  0.000551  0.938524  0.0
H  H21  1  0.43991350  0.22011129  0.91462484  1  0.412805  0.00018  0.896085  0.001  0.380832  -0.000202  0.963257  0.0  0.392024  -2.7e-05  0.947385  0.0  0.28924  0.37312  -0.000407  0.974143  0.0
H  H22  1  0.56008399  0.77988775  0.08537700  1  0.412791  0.00018  0.896106  0.001  0.380815  -0.000202  0.96328  0.0  0.392006  -2.8e-05  0.947413  0.0  0.28925  0.373104  -0.000407  0.974166  0.0
H  H23  1  0.09245818  0.38067226  0.82994419  1  0.418187  7.3e-05  0.888802  0.001  0.38188  -0.00019  0.964699  0.0  0.395454  -6.1e-05  0.945093  0.0  0.292853  0.372251  -0.000314  0.978596  0.0
H  H24  1  0.90753929  0.61932678  0.17005592  1  0.418151  7.3e-05  0.888821  0.001  0.381835  -0.00019  0.964756  0.0  0.39541  -6.1e-05  0.945148  0.0  0.29284  0.372208  -0.000314  0.978651  0.0
H  H25  1  0.70990668  0.05002916  0.59915233  1  0.424025  0.000192  0.873451  0.0  0.396711  0.000447  0.93268  0.001  0.409058  0.000333  0.914717  0.0  0.291019  0.387549  0.000532  0.945966  0.001
H  H26  1  0.29009360  0.94997106  0.40084905  1  0.424031  0.000192  0.873454  0.0  0.39671  0.000447  0.93269  0.001  0.409059  0.000333  0.914725  0.0  0.291027  0.387547  0.000532  0.945978  0.001
H  H27  1  0.80861237  0.89827756  0.31349652  1  0.408423  -0.000321  0.905839  -0.001  0.374879  7.6e-05  0.975336  0.0  0.387232  -5.3e-05  0.957529  0.0  0.286084  0.36599  0.000208  0.988126  0.0
H  H28  1  0.19138642  0.10172034  0.68650287  1  0.408399  -0.000321  0.90587  -0.001  0.374863  7.6e-05  0.975352  0.0  0.387216  -5.3e-05  0.957548  0.0  0.286065  0.365977  0.000208  0.988137  0.0
H  H29  1  0.95395053  0.48195750  0.74312719  1  0.431887  -4.3e-05  0.799026  0.0  0.421937  -0.000397  0.841496  0.0  0.42982  -0.000191  0.834273  0.0  0.335925  0.415984  -0.000687  0.847186  0.0
H  H30  1  0.04604693  0.51804154  0.25687293  1  0.431883  -4.3e-05  0.799022  0.0  0.421933  -0.000397  0.841495  0.0  0.429815  -0.000191  0.834274  0.0  0.335915  0.415978  -0.000687  0.847178  0.0
H  H31  1  0.96034536  0.76677226  0.33697419  1  0.424543  0.000191  0.864685  0.0  0.404958  0.000468  0.911123  0.001  0.415447  0.000338  0.895987  0.0  0.297375  0.397195  0.000579  0.92229  0.001
H  H32  1  0.03965349  0.23322680  0.66302610  1  0.424526  0.000192  0.864701  0.0  0.404939  0.000468  0.911147  0.001  0.415427  0.000338  0.896012  0.0  0.297362  0.397176  0.000579  0.922315  0.001
C  C33  1  0.71632388  0.55797815  0.98608054  1  0.614017  0.002741  3.896765  0.004  0.558582  1.5e-05  4.205287  0.0  0.59272  -1e-05  4.199624  0.0  0.21498  0.53501  0.000154  4.208582  0.001
C  C34  1  0.28367642  0.44202322  0.01391916  1  0.613965  0.002738  3.896838  0.004  0.558559  1.5e-05  4.205351  0.0  0.592698  -1e-05  4.199686  0.0  0.214958  0.534981  0.000155  4.208654  0.001
C  C35  1  0.59186097  0.57550850  0.86807564  1  0.082756  0.007578  3.756596  0.01  0.087584  0.001647  4.01143  0.003  0.088917  0.001959  4.030259  0.003  0.103275  0.085439  0.001852  4.000348  0.003
C  C36  1  0.40814071  0.42449289  0.13192424  1  0.082759  0.007604  3.756632  0.01  0.08755  0.001646  4.011511  0.003  0.088883  0.001958  4.030338  0.003  0.10325  0.085398  0.001852  4.000433  0.003
C  C37  1  0.48670534  0.70154120  0.83475461  1  -0.088055  -0.007869  3.650428  -0.009  -0.126127  -0.002347  3.901544  -0.003  -0.125523  -0.002464  3.915794  -0.003  -0.063014  -0.126974  -0.002532  3.894179  -0.003
C  C38  1  0.51329500  0.29846132  0.16524427  1  -0.088012  -0.007902  3.650336  -0.009  -0.126088  -0.002346  3.901432  -0.003  -0.125485  -0.002463  3.915684  -0.003  -0.062979  -0.126928  -0.002531  3.894058  -0.003
C  C39  1  0.37515557  0.69844511  0.72128819  1  -0.004153  0.015595  3.663902  0.018  0.014651  0.006252  3.903202  0.007  0.013077  0.005206  3.917094  0.006  0.009336  0.013821  0.007993  3.896103  0.009
C  C40  1  0.62484475  0.30155741  0.27870983  1  -0.004204  0.015628  3.663912  0.018  0.014682  0.006251  3.903106  0.007  0.013106  0.005206  3.916996  0.006  0.009328  0.013855  0.007992  3.895989  0.009
C  C41  1  0.26681915  0.83770229  0.68205234  1  0.654722  -0.003729  3.876793  -0.007  0.607206  -0.00051  4.174697  -0.002  0.642903  -0.000492  4.166115  -0.002  0.221288  0.582089  -0.000781  4.180637  -0.003
C  C42  1  0.73318113  0.16229908  0.31794564  1  0.654636  -0.003734  3.876846  -0.007  0.60708  -0.00051  4.174766  -0.002  0.642784  -0.000492  4.166172  -0.002  0.221204  0.581972  -0.000781  4.180684  -0.003
C  C43  1  0.37089896  0.56808081  0.64550167  1  -0.051828  -0.009287  3.605445  -0.011  -0.08851  -0.002919  3.856512  -0.004  -0.085898  -0.002991  3.866459  -0.004  -0.046948  -0.090168  -0.003061  3.851856  -0.004
C  C44  1  0.62910133  0.43192057  0.35449717  1  -0.051832  -0.009324  3.605498  -0.011  -0.088544  -0.002918  3.856513  -0.004  -0.085933  -0.002991  3.866459  -0.004  -0.04696  -0.090205  -0.00306  3.851861  -0.004
C  C45  1  0.48434226  0.44746227  0.68370018  1  0.118561  0.010471  3.687367  0.013  0.122053  0.003237  3.939914  0.005  0.126501  0.003362  3.954492  0.005  0.123503  0.117125  0.003645  3.931948  0.005
C  C46  1  0.51565796  0.55253680  0.31629943  1  0.118631  0.010497  3.687558  0.013  0.122177  0.003237  3.939997  0.005  0.126628  0.003361  3.95457  0.005  0.123529  0.117238  0.003645  3.932046  0.005
C  C47  1  0.50555377  0.30347403  0.61011226  1  0.62293  0.001597  3.894307  0.002  0.571781  -0.000752  4.203862  -0.001  0.606576  -0.000725  4.197695  -0.001  0.216455  0.54788  -0.000669  4.206737  0.0
C  C48  1  0.49444513  0.69652618  0.38988893  1  0.622926  0.001594  3.894529  0.002  0.571766  -0.000752  4.204055  -0.001  0.606561  -0.000725  4.19789  -0.001  0.216447  0.547858  -0.000669  4.20694  0.0
C  C49  1  0.94729830  0.13490246  0.05618414  1  -0.011738  -0.003292  3.621133  -0.002  -0.068463  -0.002345  3.890095  -0.002  -0.064471  -0.001321  3.903212  0.0  -0.083986  -0.070712  -0.003387  3.880053  -0.003
C  C50  1  0.05270055  0.86509659  0.94381615  1  -0.011867  -0.003293  3.621249  -0.002  -0.068441  -0.002345  3.890043  -0.002  -0.06445  -0.001322  3.903162  0.0  -0.083994  -0.070694  -0.003387  3.880009  -0.003
C  C51  1  0.90499622  0.96654626  0.87979672  1  -0.006716  -0.002806  3.62246  -0.002  -0.062597  -0.001808  3.889442  -0.001  -0.058404  -0.000854  3.90244  0.0  -0.078732  -0.065556  -0.002805  3.880208  -0.002
C  C52  1  0.09500267  0.03345394  0.12020362  1  -0.006729  -0.002807  3.622466  -0.002  -0.062599  -0.001808  3.889475  -0.001  -0.058406  -0.000854  3.902472  0.0  -0.078722  -0.065558  -0.002805  3.880235  -0.002
N  N53  1  0.59036226  0.45376283  0.79234060  1  -0.324219  -0.057311  3.436995  -0.086  -0.294427  -0.037049  3.717904  -0.056  -0.319601  -0.03085  3.739737  -0.048  -0.340411  -0.277587  -0.041561  3.704769  -0.061
N  N54  1  0.40963930  0.54623511  0.20766001  1  -0.324239  -0.057332  3.43708  -0.086  -0.294452  -0.037048  3.717962  -0.056  -0.319619  -0.030849  3.739795  -0.048  -0.340402  -0.277608  -0.041561  3.704823  -0.061
N  N55  1  0.93459284  0.12836836  0.92666491  1  -0.375775  -0.057591  3.210268  -0.086  -0.338719  -0.032567  3.492065  -0.049  -0.368075  -0.02502  3.507327  -0.039  -0.490396  -0.317082  -0.038301  3.480384  -0.056
N  N56  1  0.06540872  0.87162958  0.07333569  1  -0.375817  -0.05759  3.210385  -0.086  -0.338801  -0.032566  3.492159  -0.049  -0.368151  -0.025019  3.507414  -0.039  -0.490415  -0.317165  -0.038301  3.480482  -0.056
O  O57  1  0.61728302  0.20572093  0.66356168  1  -0.602055  -0.053822  2.010729  -0.086  -0.569209  -0.032421  2.265745  -0.054  -0.608308  -0.023163  2.256044  -0.04  -0.30174  -0.538991  -0.04185  2.270958  -0.067
O  O58  1  0.38271866  0.79427930  0.33644074  1  -0.602144  -0.053816  2.010907  -0.086  -0.569271  -0.032418  2.265884  -0.054  -0.608372  -0.023162  2.256199  -0.04  -0.301782  -0.539045  -0.041848  2.271088  -0.067
O  O59  1  0.41920818  0.29048024  0.50537905  1  -0.572304  -0.00849  1.974458  -0.012  -0.530127  -0.003794  2.195025  -0.006  -0.556377  -0.001657  2.187161  -0.002  -0.297663  -0.510396  -0.006974  2.19947  -0.01
O  O60  1  0.58079339  0.70951769  0.49462156  1  -0.572268  -0.008489  1.9745  -0.012  -0.530102  -0.003794  2.195068  -0.006  -0.556351  -0.001657  2.187206  -0.002  -0.297625  -0.510371  -0.006974  2.199517  -0.01
O  O61  1  0.80227031  0.43476734  0.00027367  1  -0.567055  -0.045265  2.049333  -0.071  -0.539843  -0.032613  2.320215  -0.053  -0.574912  -0.024642  2.314599  -0.041  -0.29268  -0.514145  -0.039966  2.323422  -0.063
O  O62  1  0.19773148  0.56523635  0.99972716  1  -0.567038  -0.045264  2.049326  -0.071  -0.539852  -0.032615  2.32025  -0.053  -0.574912  -0.024643  2.314629  -0.041  -0.292677  -0.514158  -0.039968  2.323464  -0.063
O  O63  1  0.73139231  0.66554170  0.06689857  1  -0.626647  -0.003172  2.030911  -0.005  -0.553944  -0.002292  2.238935  -0.004  -0.580125  -0.001114  2.229449  -0.002  -0.303638  -0.535991  -0.003531  2.245379  -0.006
O  O64  1  0.26860797  0.33445967  0.93309941  1  -0.62659  -0.003172  2.030888  -0.005  -0.553944  -0.002292  2.238945  -0.004  -0.580124  -0.001114  2.229457  -0.002  -0.303623  -0.535973  -0.003531  2.245377  -0.006
O  O65  1  0.30549745  0.96092928  0.74818063  1  -0.641104  -0.001276  2.023788  -0.001  -0.576447  -0.00086  2.239728  -0.001  -0.6022  -0.000755  2.22796  -0.001  -0.310129  -0.558806  -0.00116  2.248335  -0.001
O  O66  1  0.69449872  0.03907320  0.25181600  1  -0.641049  -0.001274  2.023802  -0.001  -0.576359  -0.000861  2.239727  -0.001  -0.602114  -0.000755  2.227956  -0.001  -0.310076  -0.558726  -0.00116  2.248333  -0.001
O  O67  1  0.14604382  0.82146302  0.58720930  1  -0.583583  0.048339  2.025192  0.075  -0.558506  0.029783  2.282319  0.048  -0.59185  0.022907  2.271141  0.038  -0.298537  -0.533058  0.036805  2.289542  0.058
O  O68  1  0.85395780  0.17853721  0.41278882  1  -0.583541  0.048343  2.025229  0.075  -0.558466  0.029783  2.282376  0.048  -0.591813  0.022907  2.271195  0.038  -0.298514  -0.533027  0.036807  2.289597  0.058
O  O69  1  0.53870608  0.15083473  0.90084099  1  -0.791354  -0.049568  1.942797  -0.077  -0.768403  -0.035608  2.159485  -0.056  -0.80052  -0.027109  2.125898  -0.044  -0.569877  -0.743972  -0.043463  2.183375  -0.066
O  O70  1  0.46129549  0.84916321  0.09915962  1  -0.79133  -0.049568  1.942759  -0.077  -0.768412  -0.035608  2.159513  -0.056  -0.800522  -0.027109  2.125927  -0.044  -0.569905  -0.743982  -0.043462  2.183401  -0.066
O  O71  1  0.97220828  0.37768641  0.76898320  1  -0.794732  -0.029864  1.94141  -0.045  -0.759139  -0.026017  2.139223  -0.04  -0.786463  -0.020575  2.107683  -0.032  -0.54517  -0.738731  -0.031179  2.161984  -0.046
O  O72  1  0.02778923  0.62231378  0.23101696  1  -0.794687  -0.029863  1.941392  -0.045  -0.759107  -0.026017  2.139248  -0.04  -0.786425  -0.020574  2.10771  -0.032  -0.545156  -0.738703  -0.031179  2.162  -0.046
O  O73  1  0.87894218  0.83061433  0.37373123  1  -0.80587  0.043293  1.941403  0.064  -0.775606  0.029106  2.135767  0.044  -0.803686  0.023023  2.101459  0.035  -0.578489  -0.753025  0.034644  2.16035  0.051
O  O74  1  0.12105536  0.16938701  0.62626811  1  -0.805824  0.043294  1.941449  0.064  -0.775553  0.029107  2.135804  0.044  -0.803633  0.023023  2.101493  0.035  -0.578459  -0.75297  0.034644  2.160389  0.051
O  O75  1  0.78584001  0.96085901  0.58747356  1  -0.830031  0.041331  1.932696  0.062  -0.8012  0.028436  2.123162  0.044  -0.830383  0.022422  2.086893  0.035  -0.575136  -0.777815  0.033787  2.149195  0.051
O  O76  1  0.21416163  0.03914122  0.41252628  1  -0.830021  0.041331  1.932678  0.062  -0.801199  0.028436  2.123151  0.044  -0.830382  0.022422  2.086881  0.035  -0.575161  -0.777812  0.033787  2.14918  0.051
