# generated using pymatgen
data_AgH12C15(NO)2
_symmetry_space_group_name_H-M   'P 1'
_cell_length_a   10.27848415
_cell_length_b   15.60395911
_cell_length_c   18.45195218
_cell_angle_alpha   89.99978757
_cell_angle_beta   90.00005904
_cell_angle_gamma   103.50984253
_symmetry_Int_Tables_number   1
_chemical_formula_structural   AgH12C15(NO)2
_chemical_formula_sum   'Ag8 H96 C120 N16 O16'
_cell_volume   2877.52955147
_cell_formula_units_Z   8
loop_
 _symmetry_equiv_pos_site_id
 _symmetry_equiv_pos_as_xyz
  1  'x, y, z'
loop_
 _atom_site_type_symbol
 _atom_site_label
 _atom_site_symmetry_multiplicity
 _atom_site_fract_x
 _atom_site_fract_y
 _atom_site_fract_z
 _atom_site_occupancy
 _atom_site_pbe_bader_charge
 _atom_site_pbe_bader_spin_density
 _atom_site_pbe_cm5_charge
 _atom_site_pbe_ddec_charge
 _atom_site_pbe_ddec_spin_density
 _atom_site_pbe_ddec_sum_bond_order
 _atom_site_pbe_magmom
Ag  Ag0  1  0.59740188  0.28566861  0.72926130  1  0.576846  0  0.460035  0.329942  0  2.011224  0
Ag  Ag1  1  0.40259732  0.21432652  0.22925898  1  0.576741  0  0.460042  0.330035  0  2.011043  0
Ag  Ag2  1  0.40259579  0.71432752  0.27073947  1  0.576855  0  0.460046  0.329999  0  2.011186  0
Ag  Ag3  1  0.59739723  0.78567164  0.77073907  1  0.576825  0  0.460021  0.329967  0  2.01111  0
Ag  Ag4  1  0.56983845  0.08630482  0.25581197  1  0.583033  0  0.456996  0.325706  0  2.044702  0
Ag  Ag5  1  0.43016593  0.41369608  0.75580785  1  0.583121  0  0.457013  0.325668  0  2.044825  0
Ag  Ag6  1  0.43016271  0.91369788  0.74418826  1  0.583034  0  0.456978  0.325652  0  2.044778  0
Ag  Ag7  1  0.56983834  0.58630460  0.24419183  1  0.583135  0  0.457001  0.32567  0  2.044826  0
H  H8  1  0.43225819  0.04403273  0.51454668  1  0.134865  0  0.09663  0.129998  0  1.037673  0
H  H9  1  0.56774498  0.45597653  0.01453937  1  0.134371  0  0.096663  0.130015  0  1.037533  0
H  H10  1  0.56774196  0.95596734  0.48545409  1  0.13456  0  0.096599  0.129903  0  1.037668  0
H  H11  1  0.43226523  0.54403201  0.98545869  1  0.134573  0  0.09666  0.13002  0  1.037588  0
H  H12  1  0.53861176  0.14997916  0.52707042  1  0.084981  0  0.097275  0.127654  0  1.023421  0
H  H13  1  0.46139141  0.35003004  0.02706447  1  0.085101  0  0.097309  0.127771  0  1.023477  0
H  H14  1  0.46139180  0.85002219  0.47293197  1  0.084968  0  0.097273  0.127626  0  1.023532  0
H  H15  1  0.53861876  0.64997585  0.97293251  1  0.084984  0  0.097247  0.127634  0  1.023444  0
H  H16  1  0.20217111  0.02220610  0.49717180  1  0.037924  0  0.096403  0.098359  0  1.014431  0
H  H17  1  0.79783374  0.47779970  0.99716875  1  0.037816  0  0.096372  0.098302  0  1.014451  0
H  H18  1  0.79782900  0.97779132  0.50283493  1  0.037998  0  0.096385  0.098351  0  1.014442  0
H  H19  1  0.20217811  0.52220552  0.00282985  1  0.037823  0  0.096385  0.098339  0  1.014422  0
H  H20  1  0.99443474  0.07992069  0.49713669  1  0.00741  0  0.092095  0.086894  0  1.037589  0
H  H21  1  0.00556640  0.42008052  0.99714209  1  0.007356  0  0.092119  0.086999  0  1.037591  0
H  H22  1  0.00556536  0.92007673  0.50286950  1  0.007467  0  0.092171  0.087006  0  1.03751  0
H  H23  1  0.99444469  0.57992272  0.00285868  1  0.007586  0  0.092132  0.086876  0  1.03754  0
H  H24  1  0.01422680  0.24240607  0.49667337  1  0.041387  0  0.095578  0.092946  0  0.995634  0
H  H25  1  0.98577190  0.25759384  0.99668355  1  0.041438  0  0.095455  0.092726  0  0.995562  0
H  H26  1  0.98577351  0.75758936  0.50332686  1  0.041391  0  0.095495  0.092773  0  0.995508  0
H  H27  1  0.01423772  0.74240809  0.00332209  1  0.041529  0  0.095499  0.092794  0  0.995632  0
H  H28  1  0.24067725  0.34479180  0.49477049  1  0.025851  0  0.096303  0.096286  0  1.003958  0
H  H29  1  0.75931813  0.15521214  0.99478033  1  0.025846  0  0.096273  0.096358  0  1.003823  0
H  H30  1  0.75931823  0.65520369  0.50522649  1  0.025925  0  0.096284  0.096338  0  1.003922  0
H  H31  1  0.24068985  0.84479312  0.00522802  1  0.025825  0  0.09627  0.096285  0  1.00396  0
H  H32  1  0.47338578  0.36984901  0.47246230  1  0.044344  0  0.095733  0.115968  0  0.982999  0
H  H33  1  0.52661447  0.13015762  0.97246723  1  0.044376  0  0.095722  0.116022  0  0.982984  0
H  H34  1  0.52661050  0.63015111  0.52753847  1  0.044305  0  0.095701  0.115959  0  0.98305  0
H  H35  1  0.47339545  0.86984762  0.02753300  1  0.044268  0  0.095718  0.11599  0  0.983055  0
H  H36  1  0.55416943  0.28092129  0.46135740  1  0.041078  0  0.095574  0.116643  0  1.013402  0
H  H37  1  0.44583322  0.21908403  0.96135334  1  0.040915  0  0.09558  0.116679  0  1.013481  0
H  H38  1  0.44582441  0.71907754  0.53864229  1  0.041064  0  0.095607  0.116674  0  1.013362  0
H  H39  1  0.55418179  0.78092180  0.03864418  1  0.040938  0  0.095611  0.116708  0  1.01335  0
H  H40  1  0.39533133  0.21000056  0.84960202  1  0.127356  0  0.11826  0.095629  0  1.023319  0
H  H41  1  0.60466847  0.28999800  0.34960228  1  0.126929  0  0.118239  0.0956  0  1.023113  0
H  H42  1  0.60466128  0.78999762  0.15040037  1  0.126856  0  0.118233  0.095532  0  1.023239  0
H  H43  1  0.39532801  0.71000013  0.65039523  1  0.127353  0  0.118248  0.095606  0  1.023118  0
H  H44  1  0.17732715  0.09945538  0.86285114  1  0.071227  0  0.108539  0.114808  0  0.991294  0
H  H45  1  0.82267485  0.40054375  0.36284738  1  0.071477  0  0.108497  0.11478  0  0.991369  0
H  H46  1  0.82266786  0.90054144  0.13715125  1  0.070682  0  0.10852  0.114771  0  0.991261  0
H  H47  1  0.17732281  0.59945238  0.63715068  1  0.071597  0  0.108517  0.114817  0  0.991309  0
H  H48  1  0.22054446  0.02627232  0.63916707  1  0.110607  0  0.112429  0.126073  0  1.01362  0
H  H49  1  0.77946314  0.47372243  0.13915927  1  0.110921  0  0.112412  0.126044  0  1.013626  0
H  H50  1  0.77945080  0.97372516  0.36083640  1  0.110637  0  0.1124  0.126039  0  1.013599  0
H  H51  1  0.22053650  0.52627632  0.86083879  1  0.110614  0  0.112423  0.126049  0  1.01357  0
H  H52  1  0.43068874  0.14169191  0.63529636  1  0.117738  0  0.119876  0.092371  0  1.025709  0
H  H53  1  0.56931289  0.35830757  0.13529422  1  0.117875  0  0.119909  0.09238  0  1.025777  0
H  H54  1  0.56930173  0.85830828  0.36470604  1  0.117728  0  0.119875  0.092428  0  1.02567  0
H  H55  1  0.43068174  0.64169589  0.86470438  1  0.117945  0  0.119901  0.092378  0  1.025788  0
H  H56  1  0.06061216  0.95387904  0.86761028  1  0.08628  0  0.110246  0.117916  0  0.988581  0
H  H57  1  0.93938562  0.54611168  0.36760657  1  0.086135  0  0.110241  0.117908  0  0.98841  0
H  H58  1  0.93937877  0.04611982  0.13239212  1  0.086062  0  0.11026  0.117953  0  0.988542  0
H  H59  1  0.06061225  0.45388246  0.63239149  1  0.086174  0  0.110243  0.117912  0  0.988463  0
H  H60  1  0.83076034  0.85281688  0.86855090  1  0.14183  0  0.115787  0.09957  0  1.013711  0
H  H61  1  0.16923795  0.64717515  0.36854867  1  0.141969  0  0.115777  0.09962  0  1.013732  0
H  H62  1  0.16923228  0.14718130  0.13145203  1  0.141964  0  0.115801  0.099607  0  1.013684  0
H  H63  1  0.83076089  0.35281897  0.63144939  1  0.1419  0  0.115784  0.099602  0  1.013699  0
H  H64  1  0.76870528  0.90273564  0.65308201  1  0.164534  0  0.115979  0.097767  0  1.029654  0
H  H65  1  0.23129571  0.59726724  0.15307834  1  0.164319  0  0.115983  0.097718  0  1.029711  0
H  H66  1  0.23128800  0.09725922  0.34691930  1  0.164566  0  0.116007  0.09784  0  1.029661  0
H  H67  1  0.76870246  0.40273020  0.84691864  1  0.164496  0  0.115963  0.097758  0  1.029723  0
H  H68  1  0.99274965  0.00860920  0.64286880  1  0.101585  0  0.107569  0.113583  0  1.013011  0
H  H69  1  0.00725683  0.49139018  0.14286489  1  0.10144  0  0.107527  0.113553  0  1.013092  0
H  H70  1  0.00724650  0.99138298  0.35713305  1  0.101481  0  0.107573  0.113621  0  1.012938  0
H  H71  1  0.99274323  0.50860459  0.85713208  1  0.10122  0  0.107567  0.113625  0  1.013007  0
H  H72  1  0.41448920  0.94665236  0.35911946  1  0.102389  0  0.122411  0.098325  0  0.998977  0
H  H73  1  0.58550210  0.55335703  0.85911761  1  0.102613  0  0.122375  0.098216  0  0.99913  0
H  H74  1  0.58551002  0.05335037  0.64087914  1  0.102362  0  0.122437  0.098352  0  0.999022  0
H  H75  1  0.41449523  0.44664837  0.14088316  1  0.10262  0  0.122406  0.098286  0  0.999086  0
H  H76  1  0.20244028  0.83166340  0.36367087  1  0.092539  0  0.115018  0.131695  0  0.985682  0
H  H77  1  0.79755679  0.66834325  0.86367039  1  0.092531  0  0.114989  0.131718  0  0.985701  0
H  H78  1  0.79756134  0.16833798  0.63632502  1  0.092503  0  0.114995  0.131694  0  0.985726  0
H  H79  1  0.20244656  0.33166009  0.13633200  1  0.092589  0  0.114993  0.131724  0  0.985667  0
H  H80  1  0.15249745  0.87996095  0.13542176  1  0.07634  0  0.106099  0.110219  0  1.010657  0
H  H81  1  0.84750674  0.62004528  0.63542092  1  0.076584  0  0.106072  0.110224  0  1.010637  0
H  H82  1  0.84750278  0.12004441  0.86457576  1  0.076659  0  0.106112  0.1103  0  1.010631  0
H  H83  1  0.15249728  0.37995474  0.36458148  1  0.076301  0  0.106074  0.110232  0  1.010664  0
H  H84  1  0.37243017  0.99068846  0.14027587  1  0.147549  0  0.118216  0.101369  0  0.999383  0
H  H85  1  0.62757158  0.50931645  0.64027418  1  0.14753  0  0.118222  0.101372  0  0.999396  0
H  H86  1  0.62757027  0.00931491  0.85972381  1  0.147585  0  0.118186  0.101315  0  0.999286  0
H  H87  1  0.37243101  0.49068491  0.35972713  1  0.147475  0  0.118211  0.101358  0  0.999463  0
H  H88  1  0.97388908  0.81058873  0.36176398  1  0.095594  0  0.103049  0.106445  0  1.037941  0
H  H89  1  0.02611287  0.68940527  0.86176359  1  0.095881  0  0.103056  0.106438  0  1.037835  0
H  H90  1  0.02611158  0.18941265  0.63823300  1  0.09551  0  0.103035  0.106456  0  1.037942  0
H  H91  1  0.97388875  0.31059610  0.13823717  1  0.089489  0  0.10307  0.106498  0  1.03789  0
H  H92  1  0.75137334  0.70455500  0.35750329  1  0.153981  0  0.114418  0.094524  0  1.028176  0
H  H93  1  0.24862885  0.79543968  0.85750269  1  0.15401  0  0.114438  0.094528  0  1.028322  0
H  H94  1  0.24862971  0.29544503  0.64249586  1  0.153927  0  0.11442  0.094552  0  1.02814  0
H  H95  1  0.75137306  0.20456500  0.14249808  1  0.154037  0  0.114435  0.09455  0  1.028281  0
H  H96  1  0.80184273  0.64194842  0.14321442  1  0.163043  0  0.11444  0.100805  0  1.026029  0
H  H97  1  0.19816071  0.85805580  0.64321631  1  0.163191  0  0.114447  0.100802  0  1.02602  0
H  H98  1  0.19815742  0.35805165  0.85678256  1  0.163226  0  0.114486  0.100828  0  1.026009  0
H  H99  1  0.80184159  0.14194226  0.35678229  1  0.163193  0  0.114444  0.100802  0  1.02603  0
H  H100  1  0.03267920  0.74045218  0.13905191  1  0.066207  0  0.102995  0.107156  0  1.041489  0
H  H101  1  0.96732545  0.75955270  0.63905233  1  0.066237  0  0.102977  0.107159  0  1.04146  0
H  H102  1  0.96732028  0.25955121  0.86094615  1  0.066259  0  0.103001  0.107177  0  1.04143  0
H  H103  1  0.03267680  0.24044270  0.36094573  1  0.066257  0  0.103028  0.107244  0  1.041427  0
C  C104  1  0.51893962  0.10820714  0.41685613  1  1.578829  0  0.186365  0.625337  0  4.194922  0
C  C105  1  0.48106275  0.39179771  0.91684831  1  1.578881  0  0.186495  0.625647  0  4.194553  0
C  C106  1  0.48106057  0.89179558  0.58314627  1  1.578842  0  0.186452  0.625469  0  4.194811  0
C  C107  1  0.51894544  0.60820556  0.08314758  1  1.57875  0  0.186453  0.625552  0  4.19501  0
C  C108  1  0.45788437  0.11168468  0.49283452  1  -0.13422  0  -0.18011  -0.375665  0  3.931253  0
C  C109  1  0.54211046  0.38831530  0.99282945  1  -0.133996  0  -0.180281  -0.37594  0  3.931181  0
C  C110  1  0.54210795  0.88831019  0.50716788  1  -0.133913  0  -0.180089  -0.37542  0  3.931078  0
C  C111  1  0.45789499  0.61168337  0.00716969  1  -0.133905  0  -0.18014  -0.375625  0  3.931086  0
C  C112  1  0.33670808  0.14991348  0.49450742  1  0.083535  0  -0.005913  0.108996  0  3.914497  0
C  C113  1  0.66329092  0.35008976  0.99450578  1  0.083653  0  -0.005959  0.108876  0  3.914616  0
C  C114  1  0.66328525  0.85008403  0.50549335  1  0.083708  0  -0.006004  0.108796  0  3.914598  0
C  C115  1  0.33671870  0.64991217  0.00549444  1  0.083609  0  -0.006038  0.108749  0  3.914549  0
C  C116  1  0.20886812  0.09316064  0.49601843  1  -0.146505  0  -0.09898  -0.148714  0  4.000993  0
C  C117  1  0.79113332  0.40684388  0.99601668  1  -0.146479  0  -0.098947  -0.148602  0  4.000897  0
C  C118  1  0.79113295  0.90683677  0.50398613  1  -0.146437  0  -0.098913  -0.148626  0  4.000974  0
C  C119  1  0.20887319  0.59316008  0.00398463  1  -0.146125  0  -0.098948  -0.14871  0  4.000899  0
C  C120  1  0.09288689  0.12527009  0.49645516  1  0.039655  0  -0.111232  -0.113913  0  4.080809  0
C  C121  1  0.90711480  0.37473508  0.99645845  1  0.039749  0  -0.111313  -0.114132  0  4.080921  0
C  C122  1  0.90711351  0.87473063  0.50354723  1  0.03955  0  -0.111364  -0.114166  0  4.080643  0
C  C123  1  0.09289629  0.62526815  0.00354341  1  0.039281  0  -0.111271  -0.113807  0  4.080675  0
C  C124  1  0.10395983  0.21627552  0.49579114  1  -0.104778  0  -0.109518  -0.109032  0  4.087797  0
C  C125  1  0.89603601  0.28372708  0.99579578  1  -0.105427  0  -0.1093  -0.108624  0  4.087605  0
C  C126  1  0.89603543  0.78372196  0.50420963  1  -0.104681  0  -0.109377  -0.108651  0  4.087273  0
C  C127  1  0.10396999  0.71627556  0.00420878  1  -0.105337  0  -0.109463  -0.108932  0  4.087709  0
C  C128  1  0.23071292  0.27354881  0.49446819  1  -0.075834  0  -0.099085  -0.147511  0  4.01172  0
C  C129  1  0.76928464  0.22645576  0.99447402  1  -0.075279  0  -0.099111  -0.147724  0  4.011822  0
C  C130  1  0.76928163  0.72644934  0.50552987  1  -0.075913  0  -0.099099  -0.147702  0  4.011795  0
C  C131  1  0.23072451  0.77354750  0.00552945  1  -0.075167  0  -0.099099  -0.147629  0  4.011786  0
C  C132  1  0.34762708  0.24190054  0.49337895  1  -0.021607  0  -0.005046  0.096916  0  3.903343  0
C  C133  1  0.65237486  0.25810531  0.99337704  1  -0.021529  0  -0.00505  0.097068  0  3.903465  0
C  C134  1  0.65237138  0.75810022  0.50662345  1  -0.02188  0  -0.005027  0.097055  0  3.903422  0
C  C135  1  0.34763699  0.74189990  0.00662481  1  -0.021716  0  -0.004943  0.09725  0  3.90328  0
C  C136  1  0.48234142  0.30594312  0.49422487  1  -0.044838  0  -0.167964  -0.336447  0  3.929616  0
C  C137  1  0.51765909  0.19406407  0.99422309  1  -0.044734  0  -0.167975  -0.33671  0  3.92972  0
C  C138  1  0.51765843  0.69405365  0.50577536  1  -0.044793  0  -0.168012  -0.336578  0  3.929633  0
C  C139  1  0.48234990  0.80594383  0.00577443  1  -0.04465  0  -0.168031  -0.336742  0  3.929615  0
C  C140  1  0.53570774  0.31978920  0.57295040  1  1.591094  0  0.182301  0.621637  0  4.200348  0
C  C141  1  0.46427997  0.18022001  0.07294985  1  1.591  0  0.18239  0.621891  0  4.199726  0
C  C142  1  0.46429287  0.68020954  0.42704711  1  1.59109  0  0.182315  0.621565  0  4.200376  0
C  C143  1  0.53571660  0.81978341  0.92704713  1  1.590613  0  0.182325  0.621822  0  4.20016  0
C  C144  1  0.35216020  0.16683816  0.80502034  1  0.443148  0  0.045872  0.088544  0  3.933116  0
C  C145  1  0.64784497  0.33316450  0.30501562  1  0.443663  0  0.045979  0.088759  0  3.933219  0
C  C146  1  0.64783485  0.83316132  0.19498205  1  0.443731  0  0.046032  0.088873  0  3.932793  0
C  C147  1  0.35215274  0.66683427  0.69498298  1  0.443302  0  0.04589  0.088596  0  3.933199  0
C  C148  1  0.23129374  0.10499281  0.81158448  1  0.025557  0  -0.081373  -0.166519  0  3.947063  0
C  C149  1  0.76870474  0.39499998  0.31158288  1  0.025355  0  -0.081339  -0.166515  0  3.946992  0
C  C150  1  0.76870051  0.89500204  0.18841791  1  0.026206  0  -0.081412  -0.166553  0  3.946966  0
C  C151  1  0.23129242  0.60499483  0.68841410  1  0.024995  0  -0.081335  -0.166503  0  3.946854  0
C  C152  1  0.17775836  0.05349418  0.75153237  1  -0.04259  0  0.008423  0.08873  0  4.002069  0
C  C153  1  0.82224791  0.44650407  0.25152088  1  -0.041989  0  0.008563  0.088937  0  4.001998  0
C  C154  1  0.82223665  0.94650265  0.24847111  1  -0.042162  0  0.008447  0.088757  0  4.002014  0
C  C155  1  0.17774781  0.55349209  0.74847718  1  -0.042228  0  0.008591  0.088897  0  4.00207  0
C  C156  1  0.25266929  0.06579614  0.68728334  1  -0.018918  0  -0.078159  -0.167856  0  3.9458  0
C  C157  1  0.74734027  0.43419837  0.18728106  1  -0.019402  0  -0.078278  -0.168145  0  3.946079  0
C  C158  1  0.74732740  0.93420000  0.31271797  1  -0.018898  0  -0.078084  -0.16782  0  3.945356  0
C  C159  1  0.25265987  0.56580170  0.81271646  1  -0.019099  0  -0.078288  -0.168139  0  3.946067  0
C  C160  1  0.37198111  0.12945438  0.68486456  1  0.483151  0  0.047662  0.091488  0  3.933772  0
C  C161  1  0.62801785  0.37054292  0.18485970  1  0.483237  0  0.047751  0.091809  0  3.933545  0
C  C162  1  0.62800834  0.87054318  0.31513675  1  0.483262  0  0.047613  0.091383  0  3.933561  0
C  C163  1  0.37198040  0.62945982  0.81513998  1  0.483043  0  0.047721  0.091695  0  3.933603  0
C  C164  1  0.04616239  0.99089464  0.75489043  1  -0.039453  0  0.010794  0.10366  0  3.981711  0
C  C165  1  0.95384220  0.50910179  0.25489119  1  -0.039753  0  0.010746  0.103465  0  3.981937  0
C  C166  1  0.95383212  0.00910087  0.24511250  1  -0.039637  0  0.010761  0.103602  0  3.981821  0
C  C167  1  0.04615593  0.49089301  0.74510904  1  -0.039384  0  0.010807  0.103608  0  3.982013  0
C  C168  1  0.99871617  0.94593434  0.81900320  1  -0.01276  0  -0.084344  -0.174173  0  3.959175  0
C  C169  1  0.00127889  0.55405464  0.31899413  1  -0.012577  0  -0.084331  -0.173992  0  3.959303  0
C  C170  1  0.00127787  0.05406250  0.18100028  1  -0.012892  0  -0.084377  -0.174209  0  3.959096  0
C  C171  1  0.99871781  0.44594150  0.68100285  1  -0.012886  0  -0.084433  -0.174184  0  3.959408  0
C  C172  1  0.87306503  0.88871796  0.81993812  1  0.434821  0  0.040836  0.078862  0  3.947284  0
C  C173  1  0.12693689  0.61127623  0.31993597  1  0.434971  0  0.040871  0.078786  0  3.94705  0
C  C174  1  0.12693074  0.11128085  0.18006590  1  0.435054  0  0.040856  0.078872  0  3.947287  0
C  C175  1  0.87306536  0.38871917  0.68006317  1  0.435129  0  0.040866  0.078832  0  3.947044  0
C  C176  1  0.83756207  0.91659406  0.69893407  1  0.440562  0  0.047597  0.092049  0  3.9135  0
C  C177  1  0.16243453  0.58340470  0.19892986  1  0.440731  0  0.047623  0.09222  0  3.913717  0
C  C178  1  0.16243513  0.08340339  0.30106833  1  0.440559  0  0.047557  0.092008  0  3.91366  0
C  C179  1  0.83756557  0.41659272  0.80106874  1  0.440966  0  0.047563  0.092033  0  3.913862  0
C  C180  1  0.96216050  0.97493516  0.69400716  1  -0.016484  0  -0.080863  -0.169678  0  3.936562  0
C  C181  1  0.03785163  0.52506607  0.19399711  1  -0.01676  0  -0.080753  -0.169589  0  3.936473  0
C  C182  1  0.03783813  0.02506096  0.30599469  1  -0.016474  0  -0.080869  -0.169732  0  3.936599  0
C  C183  1  0.96215045  0.47493397  0.80599933  1  -0.016919  0  -0.080803  -0.169661  0  3.936578  0
C  C184  1  0.35342314  0.92924906  0.31065523  1  0.493022  0  0.046943  0.090768  0  3.941495  0
C  C185  1  0.64657125  0.57075852  0.81065227  1  0.492806  0  0.046953  0.090783  0  3.941848  0
C  C186  1  0.64657318  0.07075371  0.68934229  1  0.493283  0  0.04689  0.090744  0  3.941696  0
C  C187  1  0.35342919  0.42924486  0.18934796  1  0.49269  0  0.046998  0.090813  0  3.941741  0
C  C188  1  0.23341728  0.86610539  0.31293418  1  -0.059721  0  -0.082237  -0.178188  0  3.9575  0
C  C189  1  0.76657800  0.63389687  0.81293489  1  -0.059656  0  -0.082142  -0.178061  0  3.957163  0
C  C190  1  0.76658165  0.13389404  0.68706279  1  -0.059755  0  -0.082234  -0.17825  0  3.9575  0
C  C191  1  0.23342485  0.36610515  0.18706534  1  -0.059676  0  -0.082179  -0.178141  0  3.95718  0
C  C192  1  0.15590566  0.84721162  0.24976418  1  0.042457  0  0.00743  0.092924  0  4.002241  0
C  C193  1  0.84409712  0.65279280  0.74976053  1  0.04242  0  0.007422  0.092943  0  4.002209  0
C  C194  1  0.84409407  0.15279243  0.75023387  1  0.042439  0  0.007535  0.093093  0  4.002207  0
C  C195  1  0.15590690  0.34720722  0.25023915  1  0.042441  0  0.007455  0.093002  0  4.002172  0
C  C196  1  0.20802230  0.89157951  0.18613997  1  -0.091589  0  -0.082207  -0.169322  0  3.952611  0
C  C197  1  0.79198410  0.60842713  0.68614184  1  -0.092379  0  -0.08228  -0.169499  0  3.95288  0
C  C198  1  0.79198155  0.10842515  0.81385755  1  -0.091908  0  -0.082347  -0.169639  0  3.952854  0
C  C199  1  0.20801895  0.39157290  0.31385893  1  -0.092032  0  -0.082287  -0.169502  0  3.952955  0
C  C200  1  0.32993541  0.95299235  0.18801721  1  0.495481  0  0.045838  0.087971  0  3.930843  0
C  C201  1  0.67006544  0.54701501  0.68801650  1  0.496074  0  0.045815  0.087937  0  3.930552  0
C  C202  1  0.67006702  0.04701365  0.81197976  1  0.495676  0  0.045886  0.088052  0  3.930612  0
C  C203  1  0.32993715  0.45298635  0.31198481  1  0.496007  0  0.045815  0.08795  0  3.930584  0
C  C204  1  0.02389051  0.78507449  0.25027368  1  -0.037135  0  0.00718  0.098274  0  3.981721  0
C  C205  1  0.97611024  0.71492465  0.75027640  1  -0.039703  0  0.007262  0.098403  0  3.981584  0
C  C206  1  0.97611060  0.21492556  0.74972330  1  -0.037018  0  0.007275  0.098355  0  3.981611  0
C  C207  1  0.02388940  0.28507410  0.24972382  1  -0.040135  0  0.007239  0.098318  0  3.981654  0
C  C208  1  0.94236115  0.77354536  0.31223593  1  -0.078778  0  -0.085104  -0.173379  0  3.947003  0
C  C209  1  0.05763817  0.72645221  0.81223328  1  -0.079086  0  -0.085109  -0.173389  0  3.94697  0
C  C210  1  0.05763854  0.22645604  0.68775996  1  -0.078807  0  -0.085112  -0.17338  0  3.947068  0
C  C211  1  0.94236467  0.27354981  0.18776640  1  -0.072771  0  -0.085116  -0.173458  0  3.947047  0
C  C212  1  0.81753246  0.71520270  0.31045136  1  0.459942  0  0.042412  0.084568  0  3.931003  0
C  C213  1  0.18247123  0.78479614  0.81045293  1  0.460064  0  0.042339  0.084476  0  3.930984  0
C  C214  1  0.18246841  0.28479669  0.68954670  1  0.460125  0  0.0423  0.084338  0  3.930972  0
C  C215  1  0.81752921  0.21520723  0.18954730  1  0.460095  0  0.042328  0.084439  0  3.930775  0
C  C216  1  0.84701117  0.67989959  0.19041588  1  0.461228  0  0.039183  0.07802  0  3.934327  0
C  C217  1  0.15299347  0.82010242  0.69041895  1  0.46117  0  0.039122  0.077918  0  3.934665  0
C  C218  1  0.15299311  0.32010108  0.80958164  1  0.461036  0  0.039106  0.077924  0  3.934428  0
C  C219  1  0.84700811  0.17989631  0.30958127  1  0.461438  0  0.039139  0.077916  0  3.934631  0
C  C220  1  0.97322894  0.73637062  0.18839273  1  -0.000995  0  -0.085318  -0.170248  0  3.946962  0
C  C221  1  0.02677768  0.76363402  0.68839158  1  0.001301  0  -0.085282  -0.170255  0  3.946837  0
C  C222  1  0.02677319  0.26363207  0.81160424  1  -0.001194  0  -0.085331  -0.170276  0  3.946967  0
C  C223  1  0.97322339  0.23636339  0.31160865  1  0.001725  0  -0.085338  -0.170273  0  3.946802  0
N  N224  1  0.42152181  0.17957210  0.74243835  1  -1.179986  0  -0.345819  -0.18957  0  3.617323  0
N  N225  1  0.57847697  0.32042694  0.24243254  1  -1.180233  0  -0.346024  -0.189977  0  3.617473  0
N  N226  1  0.57847055  0.82042542  0.25756513  1  -1.180489  0  -0.345894  -0.189695  0  3.617319  0
N  N227  1  0.42151544  0.67957323  0.75756498  1  -1.180075  0  -0.345924  -0.189704  0  3.617401  0
N  N228  1  0.79353805  0.87410773  0.76097959  1  -1.204526  0  -0.34444  -0.182044  0  3.593871  0
N  N229  1  0.20645808  0.62588945  0.26097636  1  -1.204551  0  -0.344536  -0.182237  0  3.59388  0
N  N230  1  0.20645136  0.12588719  0.23902335  1  -1.204565  0  -0.344438  -0.182133  0  3.594124  0
N  N231  1  0.79353841  0.37410868  0.73902333  1  -1.204429  0  -0.344426  -0.182027  0  3.593803  0
N  N232  1  0.40150725  0.97238092  0.24948929  1  -1.193727  0  -0.3452  -0.189112  0  3.60289  0
N  N233  1  0.59848391  0.52762366  0.74949131  1  -1.193747  0  -0.345156  -0.189007  0  3.602709  0
N  N234  1  0.59848856  0.02762053  0.75050660  1  -1.194051  0  -0.345184  -0.189044  0  3.602863  0
N  N235  1  0.40151628  0.47237906  0.25050837  1  -1.193678  0  -0.345217  -0.189093  0  3.602754  0
N  N236  1  0.77024793  0.66886012  0.25055369  1  -1.185742  0  -0.347804  -0.18901  0  3.614636  0
N  N237  1  0.22975084  0.83113640  0.75055297  1  -1.185758  0  -0.347741  -0.188865  0  3.614616  0
N  N238  1  0.22975512  0.33113991  0.74944600  1  -1.185753  0  -0.347717  -0.188765  0  3.614302  0
N  N239  1  0.77024640  0.16886370  0.24944725  1  -1.185999  0  -0.347739  -0.188839  0  3.614571  0
O  O240  1  0.46478440  0.14039211  0.36434834  1  -1.187557  0  -0.349625  -0.594476  0  2.277162  0
O  O241  1  0.53521806  0.35960569  0.86434336  1  -1.187583  0  -0.349555  -0.59449  0  2.276976  0
O  O242  1  0.53521406  0.85960864  0.63565297  1  -1.187557  0  -0.349588  -0.594495  0  2.277202  0
O  O243  1  0.46478811  0.64039231  0.13565524  1  -1.187549  0  -0.349527  -0.594424  0  2.277196  0
O  O244  1  0.61762868  0.07278246  0.41194236  1  -1.202697  0  -0.358038  -0.604471  0  2.137975  0
O  O245  1  0.38237023  0.42721849  0.91193330  1  -1.202721  0  -0.358044  -0.604498  0  2.137905  0
O  O246  1  0.38236637  0.92721702  0.58805732  1  -1.202802  0  -0.358088  -0.604538  0  2.137974  0
O  O247  1  0.61763678  0.57278679  0.08806421  1  -1.202733  0  -0.358091  -0.60457  0  2.138168  0
O  O248  1  0.62541822  0.27976124  0.59120547  1  -1.18644  0  -0.360959  -0.597333  0  2.179831  0
O  O249  1  0.37457008  0.22025450  0.09119769  1  -1.18603  0  -0.361109  -0.597463  0  2.179466  0
O  O250  1  0.37457877  0.72023820  0.40879313  1  -1.186435  0  -0.361004  -0.59732  0  2.179789  0
O  O251  1  0.62542236  0.77974832  0.90879549  1  -1.18596  0  -0.361047  -0.597423  0  2.179727  0
O  O252  1  0.48238142  0.36764427  0.61350808  1  -1.202168  0  -0.357444  -0.610759  0  2.18645  0
O  O253  1  0.51761048  0.13236802  0.11350987  1  -1.202451  0  -0.357384  -0.610807  0  2.18611  0
O  O254  1  0.51762062  0.63235313  0.38649268  1  -1.202178  0  -0.357385  -0.610672  0  2.186478  0
O  O255  1  0.48238955  0.86763934  0.88649036  1  -1.202245  0  -0.357367  -0.610781  0  2.186435  0
