# generated using pymatgen
data_Cd2H10C8O13
_symmetry_space_group_name_H-M   'P 1'
_cell_length_a   7.58378113
_cell_length_b   11.00859045
_cell_length_c   18.04346871
_cell_angle_alpha   89.99983349
_cell_angle_beta   90.00013010
_cell_angle_gamma   89.99966006
_symmetry_Int_Tables_number   1
_chemical_formula_structural   Cd2H10C8O13
_chemical_formula_sum   'Cd8 H40 C32 O52'
_cell_volume   1506.39038904
_cell_formula_units_Z   4
loop_
 _symmetry_equiv_pos_site_id
 _symmetry_equiv_pos_as_xyz
  1  'x, y, z'
loop_
 _atom_site_type_symbol
 _atom_site_label
 _atom_site_symmetry_multiplicity
 _atom_site_fract_x
 _atom_site_fract_y
 _atom_site_fract_z
 _atom_site_occupancy
 _atom_site_hle17_bader_spin_density
 _atom_site_hle17_ddec_charge
 _atom_site_hle17_ddec_spin_density
 _atom_site_hle17_ddec_sum_bond_order
 _atom_site_hle17_magmom
 _atom_site_hse06_10hf_bader_spin_density
 _atom_site_hse06_10hf_ddec_charge
 _atom_site_hse06_10hf_ddec_spin_density
 _atom_site_hse06_10hf_ddec_sum_bond_order
 _atom_site_hse06_10hf_magmom
 _atom_site_hse06_bader_spin_density
 _atom_site_hse06_ddec_charge
 _atom_site_hse06_ddec_spin_density
 _atom_site_hse06_ddec_sum_bond_order
 _atom_site_hse06_magmom
 _atom_site_pbe_bader_spin_density
 _atom_site_pbe_cm5_charge
 _atom_site_pbe_ddec_charge
 _atom_site_pbe_ddec_spin_density
 _atom_site_pbe_ddec_sum_bond_order
 _atom_site_pbe_magmom
Cd  Cd0  1  0.65736472  0.23442557  0.37956737  1  0  1.233898  0  1.604868  0  0  1.058668  0  2.04953  0  0  1.116116  0  1.988364  0  0  0.781602  1.017168  0  2.092114  0
Cd  Cd1  1  0.84262627  0.76557830  0.87956951  1  0  1.233866  0  1.604938  0  0  1.058586  0  2.049627  0  0  1.116035  0  1.988461  0  0  0.781573  1.017086  0  2.092208  0
Cd  Cd2  1  0.15737453  0.26557536  0.62043265  1  0  1.233913  0  1.604912  0  0  1.058629  0  2.049584  0  0  1.11608  0  1.988417  0  0  0.781616  1.017129  0  2.092167  0
Cd  Cd3  1  0.34262577  0.73442273  0.12043311  1  0  1.233924  0  1.604855  0  0  1.058637  0  2.049548  0  0  1.116087  0  1.988379  0  0  0.781609  1.017139  0  2.092122  0
Cd  Cd4  1  0.73814153  0.74419912  0.37988008  1  0  1.234748  0  1.587877  0  0  1.054761  0  2.030229  0  0  1.11297  0  1.970165  0  0  0.782595  1.01271  0  2.071919  0
Cd  Cd5  1  0.76185737  0.25579476  0.87988085  1  0  1.234786  0  1.587879  0  0  1.054774  0  2.030252  0  0  1.112984  0  1.970186  0  0  0.782599  1.012724  0  2.071942  0
Cd  Cd6  1  0.23814219  0.75579781  0.62011634  1  0  1.234748  0  1.587942  0  0  1.054751  0  2.030279  0  0  1.112965  0  1.970213  0  0  0.782609  1.012703  0  2.071976  0
Cd  Cd7  1  0.26186206  0.24420573  0.12011595  1  0  1.234753  0  1.58788  0  0  1.054764  0  2.030233  0  0  1.112977  0  1.97017  0  0  0.782604  1.012713  0  2.071912  0
H  H8  1  0.44760095  0.36674702  0.46646341  1  0  0.389976  0  0.874373  0  0  0.365011  0  0.944233  0  0  0.376349  0  0.931567  0  0  0.305537  0.35697  0  0.953184  0
H  H9  1  0.05239856  0.63325217  0.96646440  1  0  0.39002  0  0.874293  0  0  0.365029  0  0.944217  0  0  0.376371  0  0.931542  0  0  0.305528  0.356984  0  0.953177  0
H  H10  1  0.94759545  0.13325453  0.53353800  1  0  0.389985  0  0.874313  0  0  0.36499  0  0.944246  0  0  0.376334  0  0.931569  0  0  0.305502  0.356946  0  0.953209  0
H  H11  1  0.55240029  0.86674462  0.03353739  1  0  0.390001  0  0.874326  0  0  0.365022  0  0.944219  0  0  0.376362  0  0.931549  0  0  0.305535  0.356981  0  0.953173  0
H  H12  1  0.93453371  0.64491236  0.48588372  1  0  0.382753  0  0.907903  0  0  0.357213  0  0.979066  0  0  0.368931  0  0.966142  0  0  0.295708  0.348942  0  0.988158  0
H  H13  1  0.56546048  0.35508920  0.98588245  1  0  0.382628  0  0.908077  0  0  0.357123  0  0.979171  0  0  0.368841  0  0.966249  0  0  0.295701  0.348855  0  0.988253  0
H  H14  1  0.43453429  0.85508829  0.51411456  1  0  0.382748  0  0.908042  0  0  0.35722  0  0.979184  0  0  0.36894  0  0.966257  0  0  0.295723  0.348952  0  0.98827  0
H  H15  1  0.06545886  0.14491212  0.01411692  1  0  0.382766  0  0.908077  0  0  0.357227  0  0.979225  0  0  0.368947  0  0.966297  0  0  0.295728  0.348951  0  0.988325  0
H  H16  1  0.62932342  0.50095936  0.35602674  1  0  0.38631  0  0.866133  0  0  0.360206  0  0.941268  0  0  0.369326  0  0.930782  0  0  0.310638  0.353686  0  0.948812  0
H  H17  1  0.87068853  0.49903645  0.85603050  1  0  0.386231  0  0.866318  0  0  0.360152  0  0.941383  0  0  0.369269  0  0.930906  0  0  0.310661  0.353629  0  0.948931  0
H  H18  1  0.12932084  0.99903893  0.64397180  1  0  0.386312  0  0.866133  0  0  0.360206  0  0.941271  0  0  0.369327  0  0.930782  0  0  0.310622  0.353685  0  0.948822  0
H  H19  1  0.37068091  0.00096178  0.14397139  1  0  0.386302  0  0.866143  0  0  0.360199  0  0.941271  0  0  0.369319  0  0.930782  0  0  0.310618  0.353676  0  0.948815  0
H  H20  1  0.92694077  0.29822272  0.27163199  1  0  0.395897  0  0.866761  0  0  0.368356  0  0.941995  0  0  0.380398  0  0.928258  0  0  0.302217  0.359761  0  0.951783  0
H  H21  1  0.57306283  0.70177440  0.77163509  1  0  0.395963  0  0.866689  0  0  0.368425  0  0.941911  0  0  0.380466  0  0.928175  0  0  0.302245  0.359829  0  0.951695  0
H  H22  1  0.42694510  0.20177528  0.72836718  1  0  0.395842  0  0.866856  0  0  0.368298  0  0.942078  0  0  0.380337  0  0.92835  0  0  0.302195  0.359703  0  0.951862  0
H  H23  1  0.07305445  0.79822594  0.22836672  1  0  0.395856  0  0.86684  0  0  0.368306  0  0.942078  0  0  0.380348  0  0.928344  0  0  0.302203  0.359709  0  0.951865  0
H  H24  1  0.65170589  0.99111658  0.32925042  1  0  0.420535  0  0.884875  0  0  0.391194  0  0.946003  0  0  0.401465  0  0.9311  0  0  0.292316  0.383925  0  0.956528  0
H  H25  1  0.84829669  0.00888208  0.82924728  1  0  0.420584  0  0.884809  0  0  0.391235  0  0.94595  0  0  0.401507  0  0.931046  0  0  0.292331  0.383968  0  0.956471  0
H  H26  1  0.15170760  0.50887797  0.67075590  1  0  0.420563  0  0.884798  0  0  0.391209  0  0.945945  0  0  0.401487  0  0.931036  0  0  0.292348  0.383941  0  0.956469  0
H  H27  1  0.34829825  0.49112260  0.17075293  1  0  0.420525  0  0.884854  0  0  0.391181  0  0.945998  0  0  0.401452  0  0.931095  0  0  0.292325  0.383913  0  0.956521  0
H  H28  1  0.84209240  0.05866533  0.31534382  1  0  0.428049  0  0.882506  0  0  0.39582  0  0.94768  0  0  0.406967  0  0.931651  0  0  0.289491  0.387979  0  0.958934  0
H  H29  1  0.65790747  0.94133612  0.81534159  1  0  0.428065  0  0.88248  0  0  0.395831  0  0.947659  0  0  0.406978  0  0.931629  0  0  0.289494  0.38799  0  0.958917  0
H  H30  1  0.34209712  0.44132939  0.68466081  1  0  0.428024  0  0.882547  0  0  0.395777  0  0.947741  0  0  0.406923  0  0.931714  0  0  0.289489  0.387939  0  0.958991  0
H  H31  1  0.15790617  0.55866567  0.18465974  1  0  0.428103  0  0.882437  0  0  0.395847  0  0.947646  0  0  0.406992  0  0.93162  0  0  0.28952  0.388005  0  0.958906  0
H  H32  1  0.57114888  0.41505971  0.56490459  1  0  0.105704  0  0.952165  0  0  0.109962  0  1.017842  0  0  0.112745  0  1.01598  0  0  0.126234  0.107951  0  1.019324  0
H  H33  1  0.92885098  0.58493747  0.06490485  1  0  0.105794  0  0.952132  0  0  0.109977  0  1.017846  0  0  0.112768  0  1.015989  0  0  0.126217  0.107964  0  1.019336  0
H  H34  1  0.07113154  0.08493886  0.43509479  1  0  0.105633  0  0.95222  0  0  0.109975  0  1.017825  0  0  0.112758  0  1.015964  0  0  0.126173  0.107969  0  1.019306  0
H  H35  1  0.42885329  0.91505866  0.93509619  1  0  0.105753  0  0.952141  0  0  0.109977  0  1.01785  0  0  0.112762  0  1.015981  0  0  0.12621  0.10797  0  1.019337  0
H  H36  1  0.79190226  0.56712864  0.57591907  1  0  0.091856  0  0.936681  0  0  0.094495  0  1.007275  0  0  0.097245  0  1.004852  0  0  0.121828  0.092492  0  1.009136  0
H  H37  1  0.70809370  0.43286939  0.07591773  1  0  0.091826  0  0.936767  0  0  0.094502  0  1.007334  0  0  0.097253  0  1.004915  0  0  0.121829  0.0925  0  1.009199  0
H  H38  1  0.29190170  0.93287623  0.42407852  1  0  0.091877  0  0.936683  0  0  0.094489  0  1.007268  0  0  0.097237  0  1.004857  0  0  0.121809  0.092495  0  1.00912  0
H  H39  1  0.20808967  0.06712497  0.92408012  1  0  0.091891  0  0.936679  0  0  0.094558  0  1.007275  0  0  0.09731  0  1.004858  0  0  0.121862  0.09256  0  1.009128  0
H  H40  1  0.61749748  0.57605109  0.20792155  1  0  0.100687  0  0.929365  0  0  0.106032  0  0.994317  0  0  0.108176  0  0.993245  0  0  0.123823  0.104502  0  0.995234  0
H  H41  1  0.88250974  0.42394996  0.70792601  1  0  0.100707  0  0.929404  0  0  0.106051  0  0.994346  0  0  0.108196  0  0.993274  0  0  0.123837  0.104522  0  0.995266  0
H  H42  1  0.11750950  0.92394724  0.79207753  1  0  0.100752  0  0.929316  0  0  0.10609  0  0.994232  0  0  0.108233  0  0.993157  0  0  0.12384  0.10456  0  0.995148  0
H  H43  1  0.38249303  0.07605458  0.29207755  1  0  0.100751  0  0.929298  0  0  0.106123  0  0.994204  0  0  0.108271  0  0.993129  0  0  0.123829  0.104589  0  0.995131  0
H  H44  1  0.81001690  0.40041336  0.18513129  1  0  0.092956  0  0.935809  0  0  0.096949  0  1.002265  0  0  0.099338  0  1.000551  0  0  0.12257  0.095146  0  1.003731  0
H  H45  1  0.68999546  0.59959052  0.68513469  1  0  0.092995  0  0.935801  0  0  0.097056  0  1.002211  0  0  0.099455  0  1.000476  0  0  0.122588  0.095249  0  1.003677  0
H  H46  1  0.31001729  0.09958512  0.81486832  1  0  0.09291  0  0.935826  0  0  0.09694  0  1.002273  0  0  0.099323  0  1.000569  0  0  0.122603  0.095141  0  1.003738  0
H  H47  1  0.18997614  0.90041841  0.31486890  1  0  0.092966  0  0.935782  0  0  0.096934  0  1.002248  0  0  0.099318  0  1.000541  0  0  0.122598  0.095131  0  1.003715  0
C  C48  1  0.80809554  0.33955009  0.52668041  1  0  0.674491  0  3.816235  0  0  0.615698  0  4.123983  0  0  0.650818  0  4.116544  0  0  0.218728  0.591721  0  4.128303  0
C  C49  1  0.69190807  0.66044999  0.02668197  1  0  0.674595  0  3.816274  0  0  0.615708  0  4.124107  0  0  0.650855  0  4.116645  0  0  0.218706  0.591728  0  4.128431  0
C  C50  1  0.30807514  0.16045203  0.47331975  1  0  0.674464  0  3.816366  0  0  0.615634  0  4.124237  0  0  0.650764  0  4.116784  0  0  0.218701  0.59165  0  4.128569  0
C  C51  1  0.19191254  0.83954894  0.97332217  1  0  0.674384  0  3.816285  0  0  0.615569  0  4.124039  0  0  0.650686  0  4.116604  0  0  0.218662  0.591588  0  4.128368  0
C  C52  1  0.65662847  0.43039948  0.51650317  1  0  0.049449  0  3.608589  0  0  0.023948  0  3.858115  0  0  0.024741  0  3.865746  0  0  -0.008621  0.023188  0  3.853257  0
C  C53  1  0.84336981  0.56959792  0.01650338  1  0  0.049194  0  3.608699  0  0  0.023884  0  3.858099  0  0  0.024623  0  3.8658  0  0  -0.008631  0.023127  0  3.853249  0
C  C54  1  0.15661944  0.06959964  0.48349518  1  0  0.049508  0  3.608718  0  0  0.023851  0  3.858379  0  0  0.024632  0  3.866034  0  0  -0.008583  0.023085  0  3.853535  0
C  C55  1  0.34337093  0.93039765  0.98349759  1  0  0.049319  0  3.608929  0  0  0.023896  0  3.858442  0  0  0.024694  0  3.866072  0  0  -0.008616  0.023124  0  3.853602  0
C  C56  1  0.72109446  0.56118447  0.52273137  1  0  0.06328  0  3.626793  0  0  0.037519  0  3.878222  0  0  0.038877  0  3.885847  0  0  -0.009184  0.036373  0  3.873371  0
C  C57  1  0.77890518  0.43881200  0.02273065  1  0  0.063359  0  3.626856  0  0  0.037454  0  3.87842  0  0  0.038816  0  3.886069  0  0  -0.009162  0.036302  0  3.873576  0
C  C58  1  0.22109018  0.93881616  0.47726559  1  0  0.063064  0  3.626985  0  0  0.037473  0  3.878299  0  0  0.038826  0  3.885924  0  0  -0.009222  0.03632  0  3.873461  0
C  C59  1  0.27890543  0.06118388  0.97726727  1  0  0.063222  0  3.626902  0  0  0.037285  0  3.878551  0  0  0.038629  0  3.886196  0  0  -0.009238  0.036146  0  3.873699  0
C  C60  1  0.56605797  0.65116996  0.52890631  1  0  0.657406  0  3.827889  0  0  0.600561  0  4.134481  0  0  0.635053  0  4.127929  0  0  0.215301  0.577053  0  4.138181  0
C  C61  1  0.93394169  0.34882830  0.02890644  1  0  0.657493  0  3.82792  0  0  0.600667  0  4.134529  0  0  0.635162  0  4.127969  0  0  0.215318  0.577154  0  4.138235  0
C  C62  1  0.06606365  0.84882677  0.47109106  1  0  0.657746  0  3.827431  0  0  0.600766  0  4.134151  0  0  0.635267  0  4.127591  0  0  0.215326  0.577257  0  4.137858  0
C  C63  1  0.43393193  0.15117330  0.97109273  1  0  0.657574  0  3.827435  0  0  0.600782  0  4.134009  0  0  0.635277  0  4.127449  0  0  0.215344  0.577269  0  4.13772  0
C  C64  1  0.87508392  0.61847008  0.23781057  1  0  0.661716  0  3.834637  0  0  0.603325  0  4.142855  0  0  0.63742  0  4.135625  0  0  0.216009  0.580138  0  4.146992  0
C  C65  1  0.62492345  0.38153264  0.73781042  1  0  0.661754  0  3.834695  0  0  0.60338  0  4.142919  0  0  0.637474  0  4.135689  0  0  0.216084  0.580188  0  4.147062  0
C  C66  1  0.37508692  0.88151810  0.76218765  1  0  0.661754  0  3.834755  0  0  0.603399  0  4.142888  0  0  0.637492  0  4.135654  0  0  0.216095  0.580206  0  4.147032  0
C  C67  1  0.12491546  0.11848387  0.26218513  1  0  0.661582  0  3.834951  0  0  0.603359  0  4.142927  0  0  0.637453  0  4.135694  0  0  0.216063  0.580169  0  4.147065  0
C  C68  1  0.70693860  0.54353528  0.25163661  1  0  0.056908  0  3.603972  0  0  0.032701  0  3.853732  0  0  0.03381  0  3.861326  0  0  -0.006457  0.031657  0  3.848964  0
C  C69  1  0.79306752  0.45646647  0.75163982  1  0  0.056954  0  3.60391  0  0  0.032713  0  3.85368  0  0  0.033819  0  3.861279  0  0  -0.006428  0.031672  0  3.848909  0
C  C70  1  0.20694353  0.95646359  0.74836089  1  0  0.056687  0  3.60412  0  0  0.032627  0  3.853693  0  0  0.033747  0  3.861265  0  0  -0.006442  0.031594  0  3.848914  0
C  C71  1  0.29305878  0.04353662  0.24836088  1  0  0.056736  0  3.604118  0  0  0.032516  0  3.853737  0  0  0.033615  0  3.861347  0  0  -0.006424  0.031479  0  3.848967  0
C  C72  1  0.73615939  0.40753873  0.23721713  1  0  0.049018  0  3.623191  0  0  0.023081  0  3.873131  0  0  0.024851  0  3.87991  0  0  -0.007876  0.021792  0  3.868564  0
C  C73  1  0.76384798  0.59246308  0.73722172  1  0  0.048919  0  3.623253  0  0  0.022961  0  3.873074  0  0  0.024727  0  3.879855  0  0  -0.007953  0.021676  0  3.868507  0
C  C74  1  0.23616747  0.09245824  0.76278130  1  0  0.049222  0  3.622995  0  0  0.023077  0  3.873142  0  0  0.024841  0  3.879913  0  0  -0.008036  0.021778  0  3.868589  0
C  C75  1  0.26383227  0.90754281  0.26278304  1  0  0.049175  0  3.623064  0  0  0.023245  0  3.87298  0  0  0.025016  0  3.879756  0  0  -0.00802  0.021957  0  3.868418  0
C  C76  1  0.55446925  0.34749784  0.22732764  1  0  0.657941  0  3.832649  0  0  0.602313  0  4.134595  0  0  0.636331  0  4.128478  0  0  0.215077  0.57909  0  4.13803  0
C  C77  1  0.94553807  0.65250493  0.72733341  1  0  0.657821  0  3.832718  0  0  0.602199  0  4.134582  0  0  0.636214  0  4.128467  0  0  0.214964  0.578968  0  4.138026  0
C  C78  1  0.05447951  0.15249807  0.77266895  1  0  0.658003  0  3.832211  0  0  0.602395  0  4.134152  0  0  0.636432  0  4.128003  0  0  0.215191  0.579161  0  4.137605  0
C  C79  1  0.44551633  0.84749930  0.27267208  1  0  0.657858  0  3.832487  0  0  0.602242  0  4.134388  0  0  0.636258  0  4.12827  0  0  0.215032  0.579002  0  4.13785  0
O  O80  1  0.81565145  0.24275031  0.48705619  1  0  -0.655167  0  2.013526  0  0  -0.58215  0  2.258326  0  0  -0.612604  0  2.24382  0  0  -0.318563  -0.560729  0  2.267653  0
O  O81  1  0.68434802  0.75725033  0.98705654  1  0  -0.655218  0  2.013492  0  0  -0.582173  0  2.258328  0  0  -0.61263  0  2.243808  0  0  -0.318574  -0.560755  0  2.267659  0
O  O82  1  0.31564362  0.25724906  0.51294564  1  0  -0.655193  0  2.013625  0  0  -0.582133  0  2.258422  0  0  -0.612585  0  2.243906  0  0  -0.318577  -0.56071  0  2.267755  0
O  O83  1  0.18435216  0.74274863  0.01294538  1  0  -0.655142  0  2.013489  0  0  -0.5821  0  2.258282  0  0  -0.612551  0  2.243775  0  0  -0.31854  -0.560678  0  2.267613  0
O  O84  1  0.91240107  0.36404971  0.57875358  1  0  -0.615975  0  2.040618  0  0  -0.552461  0  2.299392  0  0  -0.581866  0  2.287428  0  0  -0.311877  -0.531845  0  2.306974  0
O  O85  1  0.58760282  0.63594922  0.07875453  1  0  -0.615961  0  2.040619  0  0  -0.552446  0  2.299477  0  0  -0.581855  0  2.2875  0  0  -0.31185  -0.531825  0  2.307053  0
O  O86  1  0.41238455  0.13595652  0.42124281  1  0  -0.615884  0  2.040478  0  0  -0.552413  0  2.299368  0  0  -0.581823  0  2.287404  0  0  -0.311824  -0.531786  0  2.306944  0
O  O87  1  0.08760153  0.86404742  0.92124896  1  0  -0.615855  0  2.040502  0  0  -0.552336  0  2.299281  0  0  -0.581741  0  2.287321  0  0  -0.311847  -0.531712  0  2.306856  0
O  O88  1  0.55592399  0.41098683  0.44980255  1  0  -0.566946  0  2.110833  0  0  -0.504494  0  2.335518  0  0  -0.523874  0  2.321065  0  0  -0.385854  -0.490707  0  2.34543  0
O  O89  1  0.94407791  0.58901218  0.94980123  1  0  -0.566912  0  2.11074  0  0  -0.504477  0  2.335348  0  0  -0.523845  0  2.32091  0  0  -0.385822  -0.490684  0  2.345262  0
O  O90  1  0.05591515  0.08900999  0.55019903  1  0  -0.566997  0  2.110714  0  0  -0.504491  0  2.335418  0  0  -0.523875  0  2.320972  0  0  -0.385833  -0.490695  0  2.345334  0
O  O91  1  0.44407951  0.91098843  0.05019817  1  0  -0.566939  0  2.110848  0  0  -0.504475  0  2.335503  0  0  -0.523859  0  2.32105  0  0  -0.385822  -0.490681  0  2.345416  0
O  O92  1  0.84153278  0.58964940  0.46437456  1  0  -0.567371  0  2.104122  0  0  -0.510831  0  2.332612  0  0  -0.529895  0  2.318485  0  0  -0.401602  -0.497218  0  2.34216  0
O  O93  1  0.65846524  0.41034954  0.96437273  1  0  -0.567291  0  2.104221  0  0  -0.51072  0  2.332731  0  0  -0.529781  0  2.318607  0  0  -0.401587  -0.497105  0  2.342275  0
O  O94  1  0.34153169  0.91035254  0.53562308  1  0  -0.56729  0  2.104235  0  0  -0.510784  0  2.332664  0  0  -0.529849  0  2.318537  0  0  -0.401569  -0.497169  0  2.342213  0
O  O95  1  0.15846289  0.08965048  0.03562563  1  0  -0.56743  0  2.104225  0  0  -0.510833  0  2.332753  0  0  -0.529896  0  2.318629  0  0  -0.401631  -0.497218  0  2.342301  0
O  O96  1  0.56394770  0.74428098  0.48663830  1  0  -0.635036  0  2.052619  0  0  -0.562655  0  2.290549  0  0  -0.592534  0  2.277953  0  0  -0.311892  -0.541692  0  2.298539  0
O  O97  1  0.93604781  0.25571785  0.98663812  1  0  -0.635076  0  2.052663  0  0  -0.562684  0  2.290594  0  0  -0.592562  0  2.277994  0  0  -0.311907  -0.541713  0  2.298584  0
O  O98  1  0.06394252  0.75572666  0.51336018  1  0  -0.635272  0  2.052563  0  0  -0.562804  0  2.290532  0  0  -0.592692  0  2.277933  0  0  -0.311996  -0.541839  0  2.298528  0
O  O99  1  0.43604798  0.24427829  0.01335829  1  0  -0.635022  0  2.052705  0  0  -0.562653  0  2.29062  0  0  -0.592524  0  2.278016  0  0  -0.311921  -0.541688  0  2.298611  0
O  O100  1  0.45430392  0.62835607  0.57899697  1  0  -0.621828  0  2.008054  0  0  -0.559709  0  2.265332  0  0  -0.588513  0  2.252029  0  0  -0.319252  -0.539532  0  2.27389  0
O  O101  1  0.04569220  0.37164585  0.07899725  1  0  -0.621865  0  2.008093  0  0  -0.55975  0  2.265362  0  0  -0.588552  0  2.252058  0  0  -0.319243  -0.539566  0  2.27392  0
O  O102  1  0.95430899  0.87163723  0.42099246  1  0  -0.621907  0  2.00765  0  0  -0.559785  0  2.265029  0  0  -0.588567  0  2.251673  0  0  -0.319144  -0.53959  0  2.273566  0
O  O103  1  0.54569144  0.12835646  0.92099490  1  0  -0.621943  0  2.007538  0  0  -0.559837  0  2.264813  0  0  -0.588637  0  2.251493  0  0  -0.319242  -0.539654  0  2.273376  0
O  O104  1  0.91874263  0.70579351  0.28095909  1  0  -0.641312  0  2.005102  0  0  -0.569578  0  2.24705  0  0  -0.600036  0  2.233723  0  0  -0.318156  -0.548118  0  2.255526  0
O  O105  1  0.58125442  0.29420992  0.78095906  1  0  -0.641421  0  2.004993  0  0  -0.569703  0  2.246945  0  0  -0.600156  0  2.233614  0  0  -0.318266  -0.548239  0  2.255418  0
O  O106  1  0.41874745  0.79420357  0.71903529  1  0  -0.641337  0  2.005224  0  0  -0.569645  0  2.247173  0  0  -0.6001  0  2.233841  0  0  -0.318243  -0.54818  0  2.255649  0
O  O107  1  0.08125733  0.20580041  0.21903534  1  0  -0.641181  0  2.005603  0  0  -0.569506  0  2.247473  0  0  -0.599961  0  2.234139  0  0  -0.318153  -0.548047  0  2.25595  0
O  O108  1  0.95581669  0.59210609  0.17910629  1  0  -0.616703  0  2.030461  0  0  -0.562166  0  2.263757  0  0  -0.587915  0  2.253978  0  0  -0.312033  -0.54404  0  2.269902  0
O  O109  1  0.54419168  0.40789781  0.67910657  1  0  -0.616582  0  2.030606  0  0  -0.562099  0  2.26396  0  0  -0.587849  0  2.254182  0  0  -0.312004  -0.543984  0  2.27011  0
O  O110  1  0.45581846  0.90787630  0.82089478  1  0  -0.616639  0  2.030252  0  0  -0.562172  0  2.263571  0  0  -0.587924  0  2.253791  0  0  -0.312009  -0.544047  0  2.269719  0
O  O111  1  0.04418687  0.09213175  0.32089500  1  0  -0.616651  0  2.030091  0  0  -0.562245  0  2.263344  0  0  -0.587996  0  2.25356  0  0  -0.312065  -0.544119  0  2.269486  0
O  O112  1  0.62114902  0.56866567  0.32077902  1  0  -0.545702  0  2.135273  0  0  -0.489609  0  2.371621  0  0  -0.507168  0  2.358397  0  0  -0.390719  -0.477121  0  2.380747  0
O  O113  1  0.87885088  0.43133212  0.82078346  1  0  -0.545708  0  2.135458  0  0  -0.489589  0  2.371788  0  0  -0.507144  0  2.358556  0  0  -0.390779  -0.477099  0  2.380916  0
O  O114  1  0.12115115  0.93133446  0.67922006  1  0  -0.545671  0  2.135389  0  0  -0.489601  0  2.371679  0  0  -0.507163  0  2.35845  0  0  -0.390704  -0.47711  0  2.380806  0
O  O115  1  0.37885078  0.06866517  0.17921954  1  0  -0.545689  0  2.135405  0  0  -0.489587  0  2.371726  0  0  -0.507148  0  2.358509  0  0  -0.390719  -0.477098  0  2.380846  0
O  O116  1  0.83731249  0.35247957  0.29560622  1  0  -0.566016  0  2.087563  0  0  -0.506006  0  2.318645  0  0  -0.525075  0  2.302253  0  0  -0.39335  -0.492438  0  2.329887  0
O  O117  1  0.66269123  0.64752016  0.79560896  1  0  -0.566046  0  2.08763  0  0  -0.506049  0  2.318708  0  0  -0.525117  0  2.302315  0  0  -0.393328  -0.492476  0  2.329941  0
O  O118  1  0.33732243  0.14751517  0.70439563  1  0  -0.566002  0  2.087646  0  0  -0.505912  0  2.318739  0  0  -0.52498  0  2.302352  0  0  -0.393271  -0.492338  0  2.329973  0
O  O119  1  0.16268096  0.85248434  0.20439571  1  0  -0.566035  0  2.087634  0  0  -0.506005  0  2.31869  0  0  -0.525071  0  2.302296  0  0  -0.393305  -0.492436  0  2.329925  0
O  O120  1  0.48300791  0.29242270  0.28020829  1  0  -0.595976  0  2.014704  0  0  -0.534259  0  2.257742  0  0  -0.563244  0  2.24825  0  0  -0.306385  -0.513978  0  2.263659  0
O  O121  1  0.01699720  0.70758191  0.78021410  1  0  -0.595799  0  2.014842  0  0  -0.534102  0  2.257887  0  0  -0.563089  0  2.248399  0  0  -0.306211  -0.513817  0  2.263798  0
O  O122  1  0.98301068  0.20756961  0.71978706  1  0  -0.596016  0  2.014528  0  0  -0.534289  0  2.257525  0  0  -0.563282  0  2.248023  0  0  -0.306458  -0.513997  0  2.26344  0
O  O123  1  0.51698473  0.79242411  0.21979264  1  0  -0.595976  0  2.01455  0  0  -0.534256  0  2.257556  0  0  -0.563242  0  2.248068  0  0  -0.306359  -0.513964  0  2.263471  0
O  O124  1  0.48399361  0.36445217  0.16321021  1  0  -0.660966  0  2.039057  0  0  -0.585633  0  2.287889  0  0  -0.616044  0  2.274576  0  0  -0.324028  -0.564206  0  2.296388  0
O  O125  1  0.01602143  0.63555116  0.66321892  1  0  -0.661026  0  2.039062  0  0  -0.585668  0  2.287878  0  0  -0.616071  0  2.274561  0  0  -0.324061  -0.564239  0  2.296382  0
O  O126  1  0.98399234  0.13554922  0.83678514  1  0  -0.661087  0  2.03888  0  0  -0.585704  0  2.287662  0  0  -0.616117  0  2.274338  0  0  -0.324071  -0.564272  0  2.296167  0
O  O127  1  0.51600369  0.86444759  0.33678837  1  0  -0.660952  0  2.039035  0  0  -0.58561  0  2.287843  0  0  -0.616016  0  2.27453  0  0  -0.324001  -0.564179  0  2.296353  0
O  O128  1  0.71042058  0.06705996  0.31379028  1  0  -0.844558  0  1.88876  0  0  -0.778211  0  2.082006  0  0  -0.803114  0  2.047835  0  0  -0.593815  -0.76059  0  2.105665  0
O  O129  1  0.78958060  0.93293968  0.81378653  1  0  -0.844622  0  1.888686  0  0  -0.778238  0  2.081907  0  0  -0.803151  0  2.04776  0  0  -0.593844  -0.760617  0  2.105563  0
O  O130  1  0.21042405  0.43293348  0.68621755  1  0  -0.844542  0  1.888605  0  0  -0.778154  0  2.081888  0  0  -0.803078  0  2.047722  0  0  -0.593878  -0.760537  0  2.105541  0
O  O131  1  0.28957924  0.56706338  0.18621604  1  0  -0.844586  0  1.88862  0  0  -0.778189  0  2.081845  0  0  -0.8031  0  2.047702  0  0  -0.593863  -0.760566  0  2.105503  0
