# generated using pymatgen
data_TbH21C25N4O7
_symmetry_space_group_name_H-M   'P 1'
_cell_length_a   8.70837342
_cell_length_b   16.26585417
_cell_length_c   20.47739975
_cell_angle_alpha   94.45241128
_cell_angle_beta   89.99975931
_cell_angle_gamma   90.00037719
_symmetry_Int_Tables_number   1
_chemical_formula_structural   TbH21C25N4O7
_chemical_formula_sum   'Tb4 H84 C100 N16 O28'
_cell_volume   2891.85232682
_cell_formula_units_Z   4
loop_
 _symmetry_equiv_pos_site_id
 _symmetry_equiv_pos_as_xyz
  1  'x, y, z'
loop_
 _atom_site_type_symbol
 _atom_site_label
 _atom_site_symmetry_multiplicity
 _atom_site_fract_x
 _atom_site_fract_y
 _atom_site_fract_z
 _atom_site_occupancy
 _atom_site_pbe_bader_charge
 _atom_site_pbe_bader_spin_density
 _atom_site_pbe_cm5_charge
 _atom_site_pbe_ddec_charge
 _atom_site_pbe_ddec_spin_density
 _atom_site_pbe_ddec_sum_bond_order
 _atom_site_pbe_magmom
Tb  Tb0  1  0.78112729  0.75706944  0.28626510  1  2.203857  0  1.532631  2.139145  0  2.16162  0
Tb  Tb1  1  0.28112260  0.74293114  0.21373682  1  2.204029  0  1.532738  2.139126  0  2.16136  0
Tb  Tb2  1  0.21887578  0.24293005  0.71373401  1  2.203991  0  1.532688  2.139134  0  2.161481  0
Tb  Tb3  1  0.71887588  0.25706649  0.78626364  1  2.203903  0  1.532671  2.139042  0  2.161656  0
H  H4  1  0.24439876  0.78464575  0.37716951  1  0.109516  0  0.110104  0.118377  0  1.036388  0
H  H5  1  0.74439998  0.71535903  0.12283177  1  0.109465  0  0.110076  0.118328  0  1.036339  0
H  H6  1  0.75558823  0.21535931  0.62282703  1  0.109339  0  0.110078  0.118344  0  1.036346  0
H  H7  1  0.25560309  0.28464108  0.87716494  1  0.10956  0  0.110099  0.118335  0  1.036456  0
H  H8  1  0.04673735  0.85555584  0.45028242  1  0.079104  0  0.10885  0.107566  0  1.029309  0
H  H9  1  0.54673958  0.64444890  0.04971628  1  0.07957  0  0.108847  0.107518  0  1.02939  0
H  H10  1  0.95325309  0.14445107  0.54971326  1  0.079537  0  0.108807  0.107517  0  1.029408  0
H  H11  1  0.45326694  0.35554813  0.95027975  1  0.079498  0  0.108853  0.107516  0  1.029407  0
H  H12  1  0.33106451  0.07198630  0.47178994  1  0.078523  0  0.10743  0.112929  0  0.995624  0
H  H13  1  0.83106585  0.42802136  0.02820563  1  0.078677  0  0.107403  0.112864  0  0.995648  0
H  H14  1  0.66894201  0.92801503  0.52821173  1  0.078337  0  0.107408  0.112905  0  0.995645  0
H  H15  1  0.16894297  0.57197627  0.97179581  1  0.07869  0  0.10742  0.112863  0  0.995663  0
H  H16  1  0.53113739  0.00018457  0.39861210  1  0.101262  0  0.107371  0.115386  0  0.987829  0
H  H17  1  0.03113468  0.49982146  0.10138438  1  0.101389  0  0.107317  0.115293  0  0.987918  0
H  H18  1  0.46886684  0.99981368  0.60138839  1  0.1013  0  0.107347  0.115344  0  0.987837  0
H  H19  1  0.96886954  0.50017802  0.89861815  1  0.10143  0  0.107318  0.115306  0  0.9879  0
H  H20  1  0.37112805  0.51375662  0.13674940  1  0.111329  0  0.11516  0.126201  0  0.999936  0
H  H21  1  0.87112791  0.98624366  0.36324990  1  0.111379  0  0.115144  0.126209  0  0.999858  0
H  H22  1  0.62887962  0.48624040  0.86325052  1  0.111295  0  0.115187  0.126228  0  0.999758  0
H  H23  1  0.12887402  0.01375459  0.63675011  1  0.11136  0  0.115173  0.126256  0  0.99988  0
H  H24  1  0.36348170  0.35926787  0.11191561  1  0.083189  0  0.108036  0.112117  0  0.991026  0
H  H25  1  0.86347591  0.14073311  0.38808094  1  0.0832  0  0.108039  0.112122  0  0.991047  0
H  H26  1  0.63652367  0.64073038  0.88808537  1  0.083145  0  0.108032  0.112131  0  0.990997  0
H  H27  1  0.13652601  0.85926514  0.61191907  1  0.083135  0  0.108003  0.112084  0  0.991067  0
H  H28  1  0.76073653  0.33391715  0.23373261  1  0.106241  0  0.101895  0.105218  0  1.029829  0
H  H29  1  0.26074529  0.16608470  0.26626857  1  0.106027  0  0.101868  0.10515  0  1.02983  0
H  H30  1  0.23926884  0.66608048  0.76626931  1  0.10621  0  0.101933  0.105245  0  1.029868  0
H  H31  1  0.73925893  0.83391540  0.73373204  1  0.106047  0  0.101883  0.105171  0  1.029824  0
H  H32  1  0.77246516  0.48807321  0.25538647  1  0.104124  0  0.10266  0.107733  0  1.024834  0
H  H33  1  0.27247683  0.01192867  0.24461811  1  0.10404  0  0.102651  0.107698  0  1.024905  0
H  H34  1  0.22754021  0.51192504  0.74461451  1  0.10416  0  0.10266  0.107752  0  1.024836  0
H  H35  1  0.72752969  0.98807020  0.75538292  1  0.104124  0  0.102638  0.107694  0  1.024889  0
H  H36  1  0.38989790  0.96277408  0.11872738  1  0.090025  0  0.102459  0.101264  0  1.02571  0
H  H37  1  0.88990353  0.53722255  0.38127556  1  0.090062  0  0.102443  0.101242  0  1.025749  0
H  H38  1  0.61008795  0.03722601  0.88127763  1  0.090064  0  0.102466  0.101257  0  1.025751  0
H  H39  1  0.11009840  0.46277324  0.61872380  1  0.089948  0  0.102466  0.101255  0  1.025681  0
H  H40  1  0.40515729  0.11821206  0.12299144  1  0.095762  0  0.103698  0.104426  0  1.016863  0
H  H41  1  0.90516032  0.38178474  0.37700477  1  0.095803  0  0.103729  0.104457  0  1.01692  0
H  H42  1  0.59483774  0.88178680  0.87701056  1  0.095787  0  0.103725  0.104441  0  1.016864  0
H  H43  1  0.09484964  0.61821168  0.62299219  1  0.095841  0  0.103711  0.104447  0  1.016819  0
H  H44  1  0.82237582  0.11070033  0.23457156  1  0.131909  0  0.102037  0.105079  0  1.03899  0
H  H45  1  0.32239079  0.38930418  0.26543310  1  0.131929  0  0.102009  0.105027  0  1.039004  0
H  H46  1  0.17762496  0.88929484  0.76542679  1  0.131821  0  0.10206  0.105138  0  1.039083  0
H  H47  1  0.67761688  0.61069717  0.73456466  1  0.132023  0  0.102017  0.105069  0  1.039003  0
H  H48  1  0.80621959  0.95598084  0.22967716  1  0.102401  0  0.111211  0.107913  0  1.047123  0
H  H49  1  0.30623600  0.54402411  0.27033232  1  0.102336  0  0.111203  0.107828  0  1.047117  0
H  H50  1  0.19376970  0.04401494  0.77032562  1  0.102401  0  0.111226  0.107861  0  1.047131  0
H  H51  1  0.69376708  0.45597723  0.72966691  1  0.102494  0  0.111217  0.107896  0  1.047096  0
H  H52  1  0.45681871  0.62652772  0.36023695  1  0.11686  0  0.116029  0.182721  0  0.988104  0
H  H53  1  0.95682286  0.87347529  0.13976774  1  0.116858  0  0.116013  0.182677  0  0.988051  0
H  H54  1  0.54317862  0.37347854  0.63976552  1  0.116948  0  0.116004  0.182687  0  0.988033  0
H  H55  1  0.04316758  0.12652666  0.86023299  1  0.117002  0  0.116048  0.182715  0  0.988114  0
H  H56  1  0.46512268  0.57429488  0.43381323  1  0.037297  0  0.095082  0.139105  0  1.011492  0
H  H57  1  0.96512476  0.92570693  0.06618991  1  0.037386  0  0.095106  0.139102  0  1.011506  0
H  H58  1  0.53487580  0.42571323  0.56618888  1  0.037365  0  0.095119  0.139102  0  1.011471  0
H  H59  1  0.03486109  0.07429318  0.93380924  1  0.037452  0  0.095138  0.139183  0  1.011452  0
H  H60  1  0.58993374  0.54498436  0.36700637  1  0.062009  0  0.105404  0.156858  0  0.991148  0
H  H61  1  0.08993935  0.95502051  0.13299518  1  0.061867  0  0.105367  0.156772  0  0.991232  0
H  H62  1  0.41005900  0.45502067  0.63299553  1  0.061848  0  0.105366  0.156761  0  0.991211  0
H  H63  1  0.91004420  0.04498453  0.86700379  1  0.06202  0  0.10536  0.156814  0  0.991229  0
H  H64  1  0.63616677  0.59549523  0.55638414  1  0.068278  0  0.103219  0.116564  0  0.980287  0
H  H65  1  0.13616292  0.90450277  0.94361802  1  0.068235  0  0.103206  0.116546  0  0.980315  0
H  H66  1  0.36382942  0.40450919  0.44361626  1  0.068348  0  0.103241  0.116617  0  0.980209  0
H  H67  1  0.86383442  0.09549733  0.05638308  1  0.06829  0  0.103226  0.116609  0  0.980305  0
H  H68  1  0.82510555  0.56576860  0.53204689  1  0.096284  0  0.105134  0.119803  0  1.008363  0
H  H69  1  0.32510297  0.93423375  0.96795082  1  0.096216  0  0.105164  0.119841  0  1.008336  0
H  H70  1  0.17489178  0.43423582  0.46795303  1  0.096336  0  0.10516  0.119842  0  1.008419  0
H  H71  1  0.67489436  0.06576696  0.03205081  1  0.09617  0  0.10517  0.119856  0  1.008364  0
H  H72  1  0.66666839  0.52842333  0.48387565  1  0.031093  0  0.106429  0.114009  0  1.013664  0
H  H73  1  0.16666963  0.97157934  0.01612368  1  0.031059  0  0.106428  0.114047  0  1.013623  0
H  H74  1  0.33332549  0.47158418  0.51612397  1  0.030985  0  0.106408  0.113983  0  1.01369  0
H  H75  1  0.83332655  0.02842261  0.98387705  1  0.031121  0  0.106429  0.114006  0  1.013732  0
H  H76  1  0.95202470  0.70079585  0.48356358  1  0.061641  0  0.106128  0.123098  0  0.976971  0
H  H77  1  0.45202381  0.79920592  0.01643763  1  0.061889  0  0.106135  0.123072  0  0.976963  0
H  H78  1  0.04797493  0.29920919  0.51643638  1  0.061935  0  0.106134  0.12309  0  0.976979  0
H  H79  1  0.54796778  0.20079294  0.98356437  1  0.061877  0  0.106094  0.123004  0  0.977021  0
H  H80  1  0.82963769  0.72367773  0.55259330  1  0.037083  0  0.102088  0.116058  0  1.028488  0
H  H81  1  0.32964026  0.77632647  0.94740989  1  0.03719  0  0.102101  0.116075  0  1.028428  0
H  H82  1  0.17035964  0.27633039  0.44740782  1  0.037138  0  0.102117  0.116078  0  1.028493  0
H  H83  1  0.67035133  0.22367239  0.05259406  1  0.037073  0  0.102086  0.116082  0  1.028494  0
H  H84  1  0.80314548  0.77519732  0.47907098  1  0.115765  0  0.118613  0.136967  0  0.999728  0
H  H85  1  0.30314363  0.72480766  0.02093069  1  0.115678  0  0.11861  0.136909  0  0.999792  0
H  H86  1  0.19685300  0.22480896  0.52092856  1  0.115805  0  0.118657  0.136999  0  0.999743  0
H  H87  1  0.69684681  0.27519490  0.97907350  1  0.115252  0  0.118651  0.136974  0  0.999711  0
C  C88  1  0.50963948  0.84856175  0.33537954  1  1.565009  0  0.211818  0.615614  0  4.181438  0
C  C89  1  0.00965023  0.65143422  0.16462159  1  1.564589  0  0.211827  0.615522  0  4.181091  0
C  C90  1  0.49034866  0.15143342  0.66461978  1  1.565087  0  0.211879  0.615695  0  4.181264  0
C  C91  1  0.99036088  0.34856219  0.83537781  1  1.565327  0  0.211852  0.615572  0  4.181155  0
C  C92  1  0.39709035  0.88922910  0.38228948  1  -0.022626  0  -0.007813  -0.018612  0  3.925999  0
C  C93  1  0.89709034  0.61077312  0.11770990  1  -0.02268  0  -0.007793  -0.018641  0  3.925871  0
C  C94  1  0.60290813  0.11077040  0.61770865  1  -0.022627  0  -0.00785  -0.018762  0  3.926056  0
C  C95  1  0.10291618  0.38922638  0.88228872  1  -0.021535  0  -0.007874  -0.018676  0  3.925963  0
C  C96  1  0.26324527  0.84720058  0.39867591  1  -0.007963  0  -0.079733  -0.084539  0  3.952936  0
C  C97  1  0.76324708  0.65280118  0.10132416  1  -0.007939  0  -0.079731  -0.084481  0  3.952844  0
C  C98  1  0.73674747  0.15280138  0.60132189  1  -0.007806  0  -0.079713  -0.084432  0  3.952853  0
C  C99  1  0.23675944  0.34719709  0.89867243  1  -0.009377  0  -0.079713  -0.084486  0  3.952996  0
C  C100  1  0.15358304  0.88623581  0.43911866  1  -0.013532  0  -0.08373  -0.144424  0  3.953833  0
C  C101  1  0.65358477  0.61376806  0.06087930  1  -0.014082  0  -0.083712  -0.144434  0  3.953655  0
C  C102  1  0.84640970  0.11376924  0.56087787  1  -0.01403  0  -0.083727  -0.144485  0  3.953798  0
C  C103  1  0.34642289  0.38622960  0.93911676  1  -0.013977  0  -0.083679  -0.144329  0  3.953552  0
C  C104  1  0.17661298  0.96857549  0.46355459  1  0.335478  0  0.086929  0.161456  0  4.062843  0
C  C105  1  0.67661969  0.53142784  0.03644281  1  0.335498  0  0.086878  0.161558  0  4.062595  0
C  C106  1  0.82338665  0.03142708  0.53644423  1  0.335628  0  0.086968  0.161562  0  4.06278  0
C  C107  1  0.32338913  0.46856858  0.96355415  1  0.335607  0  0.086815  0.161372  0  4.062607  0
C  C108  1  0.31455827  0.00906083  0.45059382  1  -0.007364  0  -0.079526  -0.142085  0  3.960177  0
C  C109  1  0.81456132  0.49094369  0.04940255  1  -0.007146  0  -0.079527  -0.142094  0  3.960096  0
C  C110  1  0.68544595  0.99093990  0.54940537  1  -0.007145  0  -0.079499  -0.142126  0  3.960149  0
C  C111  1  0.18544519  0.50905457  0.95059648  1  -0.008133  0  -0.07946  -0.141948  0  3.960172  0
C  C112  1  0.42428982  0.96951522  0.41003818  1  -0.105336  0  -0.079668  -0.083009  0  3.963158  0
C  C113  1  0.92429024  0.53048771  0.08995973  1  -0.105589  0  -0.079571  -0.08287  0  3.963137  0
C  C114  1  0.57571096  0.03048180  0.58996175  1  -0.105361  0  -0.079608  -0.082849  0  3.963027  0
C  C115  1  0.07571513  0.46951055  0.91003979  1  -0.104642  0  -0.079602  -0.082954  0  3.96319  0
C  C116  1  0.57258831  0.60028527  0.21600752  1  1.592769  0  0.235743  0.644666  0  4.181663  0
C  C117  1  0.07262044  0.89971648  0.28398850  1  1.592479  0  0.235748  0.644699  0  4.18179  0
C  C118  1  0.42739869  0.39971423  0.78398817  1  1.592667  0  0.235759  0.644691  0  4.181824  0
C  C119  1  0.92740445  0.10028426  0.71600630  1  1.592341  0  0.235858  0.64482  0  4.181504  0
C  C120  1  0.57070115  0.50909276  0.19839518  1  -0.056435  0  -0.008042  -0.034321  0  3.918238  0
C  C121  1  0.07070666  0.99090774  0.30160613  1  -0.056214  0  -0.008146  -0.03455  0  3.918454  0
C  C122  1  0.42930537  0.49090674  0.80160344  1  -0.056293  0  -0.008142  -0.034365  0  3.918108  0
C  C123  1  0.92929526  0.00908990  0.69839383  1  -0.055803  0  -0.008093  -0.034394  0  3.918295  0
C  C124  1  0.45600348  0.47370279  0.15720111  1  0.016149  0  -0.073195  -0.071533  0  3.9293  0
C  C125  1  0.95600936  0.02629665  0.34279615  1  0.016381  0  -0.073169  -0.071458  0  3.929303  0
C  C126  1  0.54399845  0.52629547  0.84279694  1  0.016428  0  -0.073184  -0.071516  0  3.929129  0
C  C127  1  0.04399716  0.97370161  0.65720288  1  0.016354  0  -0.073212  -0.071585  0  3.929339  0
C  C128  1  0.45153491  0.38855353  0.14366431  1  -0.027261  0  -0.076931  -0.136842  0  3.934032  0
C  C129  1  0.95153137  0.11144589  0.35633344  1  -0.027467  0  -0.076911  -0.136828  0  3.93395  0
C  C130  1  0.54847046  0.61144411  0.85633614  1  -0.027549  0  -0.076939  -0.136924  0  3.933934  0
C  C131  1  0.04846941  0.88855299  0.64366514  1  -0.027496  0  -0.076906  -0.136839  0  3.934058  0
C  C132  1  0.55952592  0.33811899  0.17225893  1  0.333173  0  0.085232  0.16171  0  4.048553  0
C  C133  1  0.05952827  0.16188158  0.32773911  1  0.333177  0  0.085218  0.161705  0  4.048579  0
C  C134  1  0.44047830  0.66187927  0.82774010  1  0.333197  0  0.085267  0.16183  0  4.04848  0
C  C135  1  0.94047710  0.83811852  0.67226199  1  0.333288  0  0.085176  0.161682  0  4.048553  0
C  C136  1  0.67690837  0.37386326  0.21257371  1  -0.025107  0  -0.087136  -0.148147  0  3.955981  0
C  C137  1  0.17691068  0.12614016  0.28742674  1  -0.024704  0  -0.087086  -0.148049  0  3.955918  0
C  C138  1  0.32309586  0.62613561  0.78742682  1  -0.024999  0  -0.087166  -0.148223  0  3.956128  0
C  C139  1  0.82308895  0.87386056  0.71257342  1  -0.025102  0  -0.087095  -0.148036  0  3.955938  0
C  C140  1  0.68241387  0.45874663  0.22482769  1  -0.096737  0  -0.082315  -0.08044  0  3.971314  0
C  C141  1  0.18242216  0.04125496  0.27517312  1  -0.096997  0  -0.082328  -0.080379  0  3.97125  0
C  C142  1  0.31758920  0.54125286  0.77517142  1  -0.096766  0  -0.08228  -0.080426  0  3.971141  0
C  C143  1  0.81758321  0.95874452  0.72482794  1  -0.096716  0  -0.082289  -0.0804  0  3.971365  0
C  C144  1  0.58542143  0.85886136  0.17568213  1  1.589008  0  0.234422  0.643809  0  4.169139  0
C  C145  1  0.08544538  0.64113732  0.32432002  1  1.588693  0  0.234492  0.643961  0  4.169055  0
C  C146  1  0.41455638  0.14113504  0.82431873  1  1.588641  0  0.234452  0.643883  0  4.16922  0
C  C147  1  0.91456688  0.35886032  0.67567848  1  1.588353  0  0.234322  0.643595  0  4.169324  0
C  C148  1  0.59928453  0.95058106  0.17274300  1  -0.023383  0  -0.008003  -0.029271  0  3.914831  0
C  C149  1  0.09929125  0.54942012  0.32726319  1  -0.023628  0  -0.00796  -0.029427  0  3.914911  0
C  C150  1  0.40070821  0.04941718  0.82725945  1  -0.023918  0  -0.008034  -0.029479  0  3.915179  0
C  C151  1  0.90070953  0.45057874  0.67273832  1  -0.023457  0  -0.00796  -0.029291  0  3.914885  0
C  C152  1  0.48547955  0.99628902  0.14271123  1  -0.008448  0  -0.082874  -0.087373  0  3.981777  0
C  C153  1  0.98548731  0.50370854  0.35729209  1  -0.00814  0  -0.082897  -0.087323  0  3.981862  0
C  C154  1  0.51450859  0.00370984  0.85729175  1  -0.007761  0  -0.082923  -0.087344  0  3.98185  0
C  C155  1  0.01451576  0.49628786  0.64270780  1  -0.008376  0  -0.082891  -0.087329  0  3.981729  0
C  C156  1  0.49330775  0.08179448  0.14516354  1  -0.065678  0  -0.087787  -0.157344  0  3.968943  0
C  C157  1  0.99331489  0.41820445  0.35483753  1  -0.066002  0  -0.087704  -0.157226  0  3.96898  0
C  C158  1  0.50668844  0.91820377  0.85483793  1  -0.065755  0  -0.087732  -0.157305  0  3.968883  0
C  C159  1  0.00669507  0.58179380  0.64516150  1  -0.066092  0  -0.087767  -0.157316  0  3.968787  0
C  C160  1  0.61618038  0.12295099  0.17870001  1  0.246103  0  0.085998  0.162868  0  4.05739  0
C  C161  1  0.11619004  0.37705161  0.32130148  1  0.246395  0  0.085939  0.162717  0  4.057481  0
C  C162  1  0.38381925  0.87704789  0.82129906  1  0.245877  0  0.086018  0.162934  0  4.057226  0
C  C163  1  0.88381877  0.62294665  0.67869755  1  0.246675  0  0.085983  0.162807  0  4.057343  0
C  C164  1  0.73016565  0.07729570  0.20817990  1  -0.036748  0  -0.079306  -0.137212  0  3.941452  0
C  C165  1  0.23017731  0.42270665  0.29182381  1  -0.036781  0  -0.079275  -0.13714  0  3.941453  0
C  C166  1  0.26983169  0.92270070  0.79181901  1  -0.036541  0  -0.07942  -0.137451  0  3.941729  0
C  C167  1  0.76982921  0.57729284  0.70817530  1  -0.037084  0  -0.079275  -0.137186  0  3.941481  0
C  C168  1  0.72183908  0.99187605  0.20505966  1  -0.013567  0  -0.075893  -0.072409  0  3.952606  0
C  C169  1  0.22185365  0.50812739  0.29494695  1  -0.013683  0  -0.075899  -0.072259  0  3.952283  0
C  C170  1  0.27815021  0.00812096  0.79494222  1  -0.013531  0  -0.075841  -0.072127  0  3.952549  0
C  C171  1  0.77815172  0.49187210  0.70505167  1  -0.013693  0  -0.075929  -0.072393  0  3.952446  0
C  C172  1  0.65106731  0.66082681  0.41827639  1  1.37394  0  0.258696  0.549255  0  4.026698  0
C  C173  1  0.15107316  0.83916406  0.08173100  1  1.373829  0  0.258568  0.549249  0  4.027245  0
C  C174  1  0.34892772  0.33917143  0.58172655  1  1.373879  0  0.258641  0.549253  0  4.027  0
C  C175  1  0.84892073  0.16083171  0.91827422  1  1.373218  0  0.258596  0.549192  0  4.027129  0
C  C176  1  0.53333668  0.59762221  0.39420517  1  -0.089973  0  -0.23276  -0.511867  0  3.889186  0
C  C177  1  0.03333846  0.90238185  0.10579790  1  -0.090002  0  -0.232734  -0.511693  0  3.888853  0
C  C178  1  0.46666181  0.40238405  0.60579633  1  -0.089986  0  -0.232758  -0.511708  0  3.888871  0
C  C179  1  0.96664853  0.09762196  0.89420197  1  -0.090143  0  -0.232809  -0.511897  0  3.889217  0
C  C180  1  0.71143813  0.58185703  0.51366619  1  0.249449  0  -0.130756  -0.268865  0  3.937827  0
C  C181  1  0.21143861  0.91814431  0.98633459  1  0.249862  0  -0.130802  -0.268949  0  3.938053  0
C  C182  1  0.28855576  0.41814800  0.48633523  1  0.249611  0  -0.130737  -0.268823  0  3.938122  0
C  C183  1  0.78855872  0.08185702  0.01366659  1  0.249687  0  -0.130779  -0.268978  0  3.93808  0
C  C184  1  0.83416345  0.71694686  0.49901019  1  0.258805  0  -0.132267  -0.266161  0  3.89018  0
C  C185  1  0.33416596  0.78305575  0.00099226  1  0.258514  0  -0.132364  -0.266098  0  3.89023  0
C  C186  1  0.16583504  0.28305879  0.50099078  1  0.258451  0  -0.13239  -0.266166  0  3.890261  0
C  C187  1  0.66582793  0.21694434  0.99901128  1  0.25903  0  -0.132333  -0.266149  0  3.890227  0
N  N188  1  0.06674715  0.01573792  0.50052870  1  -0.461088  0  -0.146179  -0.134903  0  3.291852  0
N  N189  1  0.56675711  0.48426736  0.99946831  1  -0.461235  0  -0.146162  -0.134938  0  3.291716  0
N  N190  1  0.93325133  0.98426712  0.49947077  1  -0.503911  0  -0.146138  -0.134828  0  3.291859  0
N  N191  1  0.43325515  0.51573090  0.00052974  1  -0.503777  0  -0.146095  -0.13477  0  3.291688  0
N  N192  1  0.53905550  0.25214815  0.15920475  1  -0.470022  0  -0.152311  -0.146366  0  3.294214  0
N  N193  1  0.03905993  0.24785234  0.34079430  1  -0.47031  0  -0.15229  -0.146358  0  3.294231  0
N  N194  1  0.46094987  0.74784948  0.84079571  1  -0.470095  0  -0.152317  -0.146432  0  3.294373  0
N  N195  1  0.96094773  0.75214715  0.65920530  1  -0.470513  0  -0.152246  -0.146348  0  3.294112  0
N  N196  1  0.63531073  0.20899162  0.18815906  1  -0.488179  0  -0.154251  -0.140941  0  3.307058  0
N  N197  1  0.13531598  0.29100920  0.31183934  1  -0.487846  0  -0.154274  -0.14094  0  3.306993  0
N  N198  1  0.36469465  0.79100479  0.81183887  1  -0.488095  0  -0.154298  -0.140955  0  3.306983  0
N  N199  1  0.86468939  0.70898906  0.68815920  1  -0.487598  0  -0.154269  -0.140927  0  3.306885  0
N  N200  1  0.72643926  0.65271368  0.47488187  1  -1.176614  0  -0.277374  -0.031362  0  3.647162  0
N  N201  1  0.22644807  0.84729104  0.02511895  1  -1.17654  0  -0.277374  -0.031611  0  3.647013  0
N  N202  1  0.27355348  0.34729259  0.52511767  1  -1.176875  0  -0.277419  -0.031715  0  3.647403  0
N  N203  1  0.77355041  0.15271153  0.97488182  1  -1.17596  0  -0.277361  -0.031402  0  3.647146  0
O  O204  1  0.64757240  0.87425765  0.33649878  1  -1.174466  0  -0.379367  -0.628923  0  2.226378  0
O  O205  1  0.14756217  0.62574063  0.16350323  1  -1.174518  0  -0.379407  -0.628867  0  2.226575  0
O  O206  1  0.35242838  0.12574061  0.66349879  1  -1.174671  0  -0.379389  -0.628931  0  2.226545  0
O  O207  1  0.85243517  0.37425824  0.83649779  1  -1.174678  0  -0.379373  -0.628851  0  2.226349  0
O  O208  1  0.68489862  0.62976249  0.24994698  1  -1.198037  0  -0.40259  -0.679796  0  2.332792  0
O  O209  1  0.18490202  0.87024640  0.25005613  1  -1.198186  0  -0.402483  -0.679701  0  2.333843  0
O  O210  1  0.31511364  0.37024009  0.75005282  1  -1.198222  0  -0.402517  -0.679706  0  2.33351  0
O  O211  1  0.81510335  0.12975802  0.74994476  1  -1.198143  0  -0.402607  -0.679803  0  2.333015  0
O  O212  1  0.45791070  0.82548593  0.15976641  1  -1.194403  0  -0.385145  -0.659274  0  2.295844  0
O  O213  1  0.95790006  0.67451340  0.34023610  1  -1.193854  0  -0.38535  -0.659546  0  2.294801  0
O  O214  1  0.54209238  0.17451171  0.84023454  1  -1.19388  0  -0.385257  -0.659412  0  2.295078  0
O  O215  1  0.04208924  0.32548485  0.65976586  1  -1.193929  0  -0.385186  -0.659273  0  2.295596  0
O  O216  1  0.70272774  0.82072880  0.19518544  1  -1.20607  0  -0.40357  -0.685301  0  2.364236  0
O  O217  1  0.20272364  0.67927334  0.30482405  1  -1.206362  0  -0.403464  -0.685178  0  2.365096  0
O  O218  1  0.29727189  0.17926882  0.80481795  1  -1.20631  0  -0.40346  -0.685185  0  2.364917  0
O  O219  1  0.79726795  0.32072675  0.69517998  1  -1.205954  0  -0.403464  -0.685112  0  2.364459  0
O  O220  1  0.46052870  0.64210372  0.19701034  1  -1.206087  0  -0.408132  -0.681958  0  2.368771  0
O  O221  1  0.96052988  0.85789005  0.30299424  1  -1.205766  0  -0.408175  -0.682075  0  2.368005  0
O  O222  1  0.53948241  0.35789083  0.80299089  1  -1.206004  0  -0.408171  -0.682034  0  2.368348  0
O  O223  1  0.03947205  0.14210451  0.69700455  1  -1.206076  0  -0.408207  -0.682115  0  2.368624  0
O  O224  1  0.46789328  0.78726272  0.29585306  1  -1.205442  0  -0.398095  -0.736245  0  2.373715  0
O  O225  1  0.96789136  0.71273909  0.20415153  1  -1.205016  0  -0.398058  -0.736181  0  2.37313  0
O  O226  1  0.53210635  0.21273366  0.70415122  1  -1.205309  0  -0.398113  -0.736286  0  2.373485  0
O  O227  1  0.03210827  0.28726039  0.79585050  1  -1.205528  0  -0.3981  -0.73622  0  2.373414  0
O  O228  1  0.67791098  0.72189267  0.38610274  1  -1.181557  0  -0.375824  -0.608387  0  2.366921  0
O  O229  1  0.17790427  0.77811807  0.11389513  1  -1.18169  0  -0.37562  -0.608149  0  2.368051  0
O  O230  1  0.32209669  0.27811547  0.61389448  1  -1.181455  0  -0.375725  -0.608202  0  2.367469  0
O  O231  1  0.82208158  0.22189129  0.88610509  1  -1.18171  0  -0.375694  -0.608182  0  2.367428  0
