# generated using pymatgen
data_HgH10C12Br2(N2O)2
_symmetry_space_group_name_H-M   'P 1'
_cell_length_a   5.01835733
_cell_length_b   11.44222016
_cell_length_c   13.69191587
_cell_angle_alpha   98.14131203
_cell_angle_beta   90.05017601
_cell_angle_gamma   89.97070714
_symmetry_Int_Tables_number   1
_chemical_formula_structural   HgH10C12Br2(N2O)2
_chemical_formula_sum   'Hg2 H20 C24 Br4 N8 O4'
_cell_volume   778.28165619
_cell_formula_units_Z   2
loop_
 _symmetry_equiv_pos_site_id
 _symmetry_equiv_pos_as_xyz
  1  'x, y, z'
loop_
 _atom_site_type_symbol
 _atom_site_label
 _atom_site_symmetry_multiplicity
 _atom_site_fract_x
 _atom_site_fract_y
 _atom_site_fract_z
 _atom_site_occupancy
 _atom_site_hle17_bader_spin_density
 _atom_site_hle17_ddec_charge
 _atom_site_hle17_ddec_spin_density
 _atom_site_hle17_ddec_sum_bond_order
 _atom_site_hle17_magmom
 _atom_site_hse06_10hf_bader_spin_density
 _atom_site_hse06_10hf_ddec_charge
 _atom_site_hse06_10hf_ddec_spin_density
 _atom_site_hse06_10hf_ddec_sum_bond_order
 _atom_site_hse06_10hf_magmom
 _atom_site_hse06_bader_spin_density
 _atom_site_hse06_ddec_charge
 _atom_site_hse06_ddec_spin_density
 _atom_site_hse06_ddec_sum_bond_order
 _atom_site_hse06_magmom
 _atom_site_pbe_bader_spin_density
 _atom_site_pbe_cm5_charge
 _atom_site_pbe_ddec_charge
 _atom_site_pbe_ddec_spin_density
 _atom_site_pbe_ddec_sum_bond_order
 _atom_site_pbe_magmom
Hg  Hg0  1  0.88423023  0.49999917  0.25008052  1  0  0.676786  0  2.025423  0  0  0.51839  0  2.51626  0  0  0.567554  0  2.488902  0  0  0.466562  0.484856  0  2.534882  0
Hg  Hg1  1  0.11579124  0.50004644  0.74996561  1  0  0.676849  0  2.02528  0  0  0.518463  0  2.516111  0  0  0.567625  0  2.488758  0  0  0.466596  0.484922  0  2.534722  0
H  H2  1  0.14299139  0.93690622  0.42406380  1  0  0.324525  0  0.913644  0  0  0.299047  0  0.99016  0  0  0.307887  0  0.982257  0  0  0.312138  0.292759  0  0.995833  0
H  H3  1  0.14338809  0.06305238  0.07590164  1  0  0.324373  0  0.913865  0  0  0.298952  0  0.99032  0  0  0.307792  0  0.982423  0  0  0.312046  0.29266  0  0.996008  0
H  H4  1  0.85667320  0.06310695  0.57585926  1  0  0.324435  0  0.913746  0  0  0.298984  0  0.990317  0  0  0.307818  0  0.982429  0  0  0.312103  0.292701  0  0.996005  0
H  H5  1  0.85678482  0.93693574  0.92412073  1  0  0.324481  0  0.913564  0  0  0.299049  0  0.990066  0  0  0.307851  0  0.982172  0  0  0.311996  0.292784  0  0.995745  0
H  H6  1  0.44158702  0.60082868  0.08238499  1  0  0.083922  0  0.95308  0  0  0.086846  0  1.026668  0  0  0.090134  0  1.023246  0  0  0.102589  0.084439  0  1.029216  0
H  H7  1  0.44193409  0.39923291  0.41760216  1  0  0.08379  0  0.953122  0  0  0.086784  0  1.026555  0  0  0.090085  0  1.023135  0  0  0.102669  0.084382  0  1.029113  0
H  H8  1  0.55862758  0.39923924  0.91756944  1  0  0.083985  0  0.953256  0  0  0.0869  0  1.026848  0  0  0.090199  0  1.023416  0  0  0.102647  0.08449  0  1.029397  0
H  H9  1  0.55815510  0.60077726  0.58240839  1  0  0.083971  0  0.953026  0  0  0.086915  0  1.026542  0  0  0.090223  0  1.023108  0  0  0.102696  0.084517  0  1.029105  0
H  H10  1  0.08182641  0.75147103  0.08422162  1  0  0.111027  0  0.959676  0  0  0.120451  0  1.018939  0  0  0.123933  0  1.0179  0  0  0.096001  0.117974  0  1.019885  0
H  H11  1  0.08263656  0.24851606  0.41568858  1  0  0.11101  0  0.958955  0  0  0.120398  0  1.018224  0  0  0.123892  0  1.017179  0  0  0.096164  0.117895  0  1.019212  0
H  H12  1  0.91835224  0.24858535  0.91568505  1  0  0.111149  0  0.959351  0  0  0.120548  0  1.018606  0  0  0.124031  0  1.017577  0  0  0.096098  0.118053  0  1.019568  0
H  H13  1  0.91742271  0.75150486  0.58431455  1  0  0.111119  0  0.958975  0  0  0.120504  0  1.018249  0  0  0.124002  0  1.017198  0  0  0.096185  0.118006  0  1.019241  0
H  H14  1  0.02157512  0.90198104  0.23550626  1  0  0.114047  0  0.934464  0  0  0.124874  0  0.993956  0  0  0.128086  0  0.991452  0  0  0.110651  0.12242  0  0.996042  0
H  H15  1  0.02257767  0.09792954  0.26443898  1  0  0.113899  0  0.934169  0  0  0.12452  0  0.993991  0  0  0.127838  0  0.991342  0  0  0.11057  0.122062  0  0.996067  0
H  H16  1  0.97828284  0.09799933  0.76445145  1  0  0.113707  0  0.934417  0  0  0.124582  0  0.993925  0  0  0.12779  0  0.991436  0  0  0.110625  0.122208  0  0.995906  0
H  H17  1  0.97763115  0.90202645  0.73559688  1  0  0.114029  0  0.934226  0  0  0.124685  0  0.993905  0  0  0.12801  0  0.991252  0  0  0.110521  0.122225  0  0.996011  0
H  H18  1  0.68522358  0.73815044  0.36465581  1  0  0.083824  0  0.997099  0  0  0.08662  0  1.071699  0  0  0.09006  0  1.068232  0  0  0.096828  0.084151  0  1.074165  0
H  H19  1  0.68531166  0.26185579  0.13541191  1  0  0.083824  0  0.997056  0  0  0.086688  0  1.071643  0  0  0.090083  0  1.068214  0  0  0.096786  0.084225  0  1.074101  0
H  H20  1  0.31460057  0.26186872  0.63535501  1  0  0.083723  0  0.997369  0  0  0.086586  0  1.07186  0  0  0.089968  0  1.068468  0  0  0.096769  0.084172  0  1.074273  0
H  H21  1  0.31479747  0.73813660  0.86460468  1  0  0.083672  0  0.997076  0  0  0.08666  0  1.071505  0  0  0.090123  0  1.068005  0  0  0.096786  0.084195  0  1.07396  0
C  C22  1  0.41436958  0.66872816  0.14589033  1  0  0.106451  0  3.722727  0  0  0.072961  0  3.980043  0  0  0.079596  0  3.999  0  0  0.034527  0.068618  0  3.967307  0
C  C23  1  0.41483101  0.33129914  0.35411462  1  0  0.106855  0  3.722111  0  0  0.073397  0  3.979529  0  0  0.080016  0  3.998498  0  0  0.03423  0.069045  0  3.966798  0
C  C24  1  0.58573345  0.33131956  0.85407552  1  0  0.106615  0  3.72259  0  0  0.073125  0  3.97992  0  0  0.079748  0  3.998892  0  0  0.03468  0.068787  0  3.967166  0
C  C25  1  0.58524225  0.66870213  0.64590299  1  0  0.106747  0  3.72197  0  0  0.073281  0  3.979358  0  0  0.0799  0  3.998314  0  0  0.034176  0.068916  0  3.966647  0
C  C26  1  0.21396930  0.75346648  0.14760323  1  0  -0.1067  0  3.743797  0  0  -0.118133  0  3.997769  0  0  -0.125408  0  4.020186  0  0  -0.090512  -0.113495  0  3.98286  0
C  C27  1  0.21469776  0.24651916  0.35235783  1  0  -0.106495  0  3.743423  0  0  -0.117826  0  3.997378  0  0  -0.125129  0  4.019854  0  0  -0.090232  -0.113173  0  3.982449  0
C  C28  1  0.78608388  0.24656282  0.85233552  1  0  -0.107042  0  3.743679  0  0  -0.118404  0  3.997677  0  0  -0.125689  0  4.020116  0  0  -0.090946  -0.113753  0  3.982771  0
C  C29  1  0.78539343  0.75348114  0.64766032  1  0  -0.106637  0  3.74367  0  0  -0.117995  0  3.997618  0  0  -0.125293  0  4.020083  0  0  -0.090387  -0.113337  0  3.982696  0
C  C30  1  0.18230623  0.83745727  0.23103889  1  0  -0.089565  0  3.677894  0  0  -0.11897  0  3.934249  0  0  -0.117657  0  3.952684  0  0  -0.07197  -0.11948  0  3.922053  0
C  C31  1  0.18315294  0.16248207  0.26893376  1  0  -0.089754  0  3.67792  0  0  -0.119039  0  3.934334  0  0  -0.117758  0  3.952712  0  0  -0.072278  -0.119574  0  3.922133  0
C  C32  1  0.81758957  0.16253991  0.76891333  1  0  -0.089308  0  3.677607  0  0  -0.118838  0  3.934069  0  0  -0.117497  0  3.95247  0  0  -0.071955  -0.119418  0  3.921847  0
C  C33  1  0.81698212  0.83750179  0.73109436  1  0  -0.090131  0  3.67837  0  0  -0.119347  0  3.934658  0  0  -0.118078  0  3.953051  0  0  -0.072113  -0.119886  0  3.922475  0
C  C34  1  0.35733474  0.83511005  0.31005608  1  0  0.198095  0  3.779957  0  0  0.197369  0  4.027474  0  0  0.199554  0  4.04964  0  0  0.094696  0.19544  0  4.012811  0
C  C35  1  0.35795413  0.16482467  0.18995499  1  0  0.19776  0  3.779891  0  0  0.197185  0  4.027299  0  0  0.199349  0  4.049506  0  0  0.094701  0.19531  0  4.012557  0
C  C36  1  0.64245948  0.16487465  0.68991862  1  0  0.197993  0  3.780253  0  0  0.197502  0  4.027746  0  0  0.199668  0  4.049929  0  0  0.094681  0.195629  0  4.013049  0
C  C37  1  0.64219888  0.83514316  0.81007952  1  0  0.198096  0  3.780054  0  0  0.197485  0  4.02757  0  0  0.199597  0  4.04976  0  0  0.094676  0.195633  0  4.012859  0
C  C38  1  0.55139404  0.74641484  0.30323746  1  0  0.041388  0  3.708234  0  0  0.004757  0  3.957767  0  0  0.011129  0  3.973387  0  0  0.036414  0.000695  0  3.947178  0
C  C39  1  0.55170305  0.25359020  0.19681230  1  0  0.04156  0  3.70814  0  0  0.004776  0  3.957741  0  0  0.011156  0  3.973459  0  0  0.036513  0.000694  0  3.947136  0
C  C40  1  0.44847991  0.25360125  0.69676103  1  0  0.041578  0  3.708397  0  0  0.004822  0  3.958013  0  0  0.011241  0  3.9737  0  0  0.036513  0.000689  0  3.947389  0
C  C41  1  0.44840410  0.74639889  0.80320951  1  0  0.041838  0  3.707952  0  0  0.004971  0  3.957597  0  0  0.01128  0  3.973321  0  0  0.03669  0.000905  0  3.946971  0
C  C42  1  0.54112177  0.96296137  0.45109482  1  0  0.452747  0  3.839197  0  0  0.413074  0  4.119467  0  0  0.438419  0  4.118189  0  0  0.247353  0.395897  0  4.119959  0
C  C43  1  0.54148445  0.03704541  0.04889304  1  0  0.452821  0  3.837905  0  0  0.412826  0  4.118516  0  0  0.438164  0  4.117255  0  0  0.247124  0.395653  0  4.119016  0
C  C44  1  0.45855282  0.03708183  0.54885616  1  0  0.452899  0  3.837545  0  0  0.413073  0  4.118136  0  0  0.438412  0  4.116859  0  0  0.247379  0.395915  0  4.118632  0
C  C45  1  0.45868647  0.96293568  0.95112794  1  0  0.452656  0  3.838922  0  0  0.413392  0  4.118702  0  0  0.43867  0  4.117407  0  0  0.247559  0.396239  0  4.119252  0
Br  Br46  1  0.06139866  0.60373013  0.41428576  1  0  -0.42147  0  1.072719  0  0  -0.365586  0  1.383433  0  0  -0.385652  0  1.366439  0  0  -0.219091  -0.351547  0  1.395349  0
Br  Br47  1  0.06083183  0.39625301  0.08589886  1  0  -0.421322  0  1.073203  0  0  -0.365406  0  1.38401  0  0  -0.385405  0  1.366898  0  0  -0.21907  -0.351394  0  1.395977  0
Br  Br48  1  0.93843565  0.39622000  0.58581640  1  0  -0.42149  0  1.072774  0  0  -0.365645  0  1.383483  0  0  -0.385658  0  1.366399  0  0  -0.219126  -0.351609  0  1.395386  0
Br  Br49  1  0.93900846  0.60362860  0.91418175  1  0  -0.4214  0  1.073036  0  0  -0.365551  0  1.383922  0  0  -0.385565  0  1.366835  0  0  -0.219037  -0.351529  0  1.395852  0
N  N50  1  0.57754799  0.66518201  0.22353415  1  0  -0.288271  0  3.280033  0  0  -0.209376  0  3.542412  0  0  -0.230314  0  3.565905  0  0  -0.31027  -0.195145  0  3.526257  0
N  N51  1  0.57781122  0.33483744  0.27651571  1  0  -0.288632  0  3.279872  0  0  -0.209735  0  3.54239  0  0  -0.230677  0  3.565872  0  0  -0.310406  -0.195497  0  3.526236  0
N  N52  1  0.42244949  0.33484578  0.77645638  1  0  -0.288411  0  3.280133  0  0  -0.209464  0  3.542533  0  0  -0.230411  0  3.566026  0  0  -0.31036  -0.195226  0  3.526386  0
N  N53  1  0.42227800  0.66515420  0.72350734  1  0  -0.288576  0  3.27948  0  0  -0.209666  0  3.542075  0  0  -0.230606  0  3.56556  0  0  -0.310351  -0.195431  0  3.525932  0
N  N54  1  0.33180186  0.91456009  0.39819913  1  0  -0.422169  0  3.382261  0  0  -0.367957  0  3.617079  0  0  -0.389669  0  3.628369  0  0  -0.38622  -0.353053  0  3.609574  0
N  N55  1  0.33227299  0.08539036  0.10179148  1  0  -0.421497  0  3.382283  0  0  -0.367248  0  3.617144  0  0  -0.388937  0  3.628408  0  0  -0.38556  -0.352375  0  3.609644  0
N  N56  1  0.66789668  0.08543971  0.60176166  1  0  -0.421966  0  3.382177  0  0  -0.368001  0  3.617244  0  0  -0.389706  0  3.628551  0  0  -0.386089  -0.353161  0  3.609759  0
N  N57  1  0.66790192  0.91458488  0.89823349  1  0  -0.421884  0  3.38246  0  0  -0.367826  0  3.617132  0  0  -0.389355  0  3.628289  0  0  -0.385741  -0.353049  0  3.609727  0
O  O58  1  0.77844013  0.95198288  0.42571290  1  0  -0.526319  0  2.007123  0  0  -0.485231  0  2.232509  0  0  -0.503974  0  2.22607  0  0  -0.286382  -0.47214  0  2.236622  0
O  O59  1  0.77889723  0.04800198  0.07430877  1  0  -0.526514  0  2.005594  0  0  -0.485456  0  2.231302  0  0  -0.5042  0  2.224849  0  0  -0.28662  -0.472353  0  2.235407  0
O  O60  1  0.22124845  0.04803735  0.57425777  1  0  -0.526397  0  2.005799  0  0  -0.485232  0  2.23128  0  0  -0.50398  0  2.224859  0  0  -0.286549  -0.47214  0  2.235388  0
O  O61  1  0.22126974  0.95195556  0.92572151  1  0  -0.526296  0  2.00651  0  0  -0.485505  0  2.231926  0  0  -0.504268  0  2.225544  0  0  -0.286672  -0.472396  0  2.236027  0
