# generated using pymatgen
data_Zn2H14C13(NCl)4
_symmetry_space_group_name_H-M   'P 1'
_cell_length_a   6.95747440
_cell_length_b   8.81663155
_cell_length_c   29.05300000
_cell_angle_alpha   96.84850372
_cell_angle_beta   90.00000000
_cell_angle_gamma   90.00000000
_symmetry_Int_Tables_number   1
_chemical_formula_structural   Zn2H14C13(NCl)4
_chemical_formula_sum   'Zn8 H56 C52 N16 Cl16'
_cell_volume   1769.43844302
_cell_formula_units_Z   4
loop_
 _symmetry_equiv_pos_site_id
 _symmetry_equiv_pos_as_xyz
  1  'x, y, z'
loop_
 _atom_site_type_symbol
 _atom_site_label
 _atom_site_symmetry_multiplicity
 _atom_site_fract_x
 _atom_site_fract_y
 _atom_site_fract_z
 _atom_site_occupancy
 _atom_site_hle17_bader_spin_density
 _atom_site_hle17_ddec_charge
 _atom_site_hle17_ddec_spin_density
 _atom_site_hle17_ddec_sum_bond_order
 _atom_site_hle17_magmom
 _atom_site_hse06_10hf_bader_spin_density
 _atom_site_hse06_10hf_ddec_charge
 _atom_site_hse06_10hf_ddec_spin_density
 _atom_site_hse06_10hf_ddec_sum_bond_order
 _atom_site_hse06_10hf_magmom
 _atom_site_hse06_bader_spin_density
 _atom_site_hse06_ddec_charge
 _atom_site_hse06_ddec_spin_density
 _atom_site_hse06_ddec_sum_bond_order
 _atom_site_hse06_magmom
 _atom_site_pbe_bader_charge
 _atom_site_pbe_bader_spin_density
 _atom_site_pbe_cm5_charge
 _atom_site_pbe_ddec_charge
 _atom_site_pbe_ddec_spin_density
 _atom_site_pbe_ddec_sum_bond_order
 _atom_site_pbe_magmom
Zn  Zn0  1  0.83665561  0.58743683  0.83954713  1  0  0.849777  0  2.066413  0  0  0.667366  0  2.535626  0  0  0.707894  0  2.492694  0  1.171498  0  0.607205  0.638879  0  2.565928  0
Zn  Zn1  1  0.33665665  0.91256131  0.66045357  1  0  0.849759  0  2.066455  0  0  0.667373  0  2.535625  0  0  0.707904  0  2.492694  0  1.1715  0  0.607207  0.638881  0  2.565924  0
Zn  Zn2  1  0.16334232  0.41256041  0.16045363  1  0  0.849786  0  2.066401  0  0  0.667347  0  2.535602  0  0  0.707874  0  2.492669  0  1.171626  0  0.607192  0.638856  0  2.565903  0
Zn  Zn3  1  0.66334560  0.08743821  0.33954624  1  0  0.84978  0  2.066446  0  0  0.667367  0  2.535663  0  0  0.707896  0  2.492728  0  1.171619  0  0.607186  0.638876  0  2.565964  0
Zn  Zn4  1  0.33035695  0.74226693  0.87086949  1  0  0.841383  0  2.228614  0  0  0.697375  0  2.734127  0  0  0.735543  0  2.685925  0  1.089243  0  0.429061  0.67034  0  2.767854  0
Zn  Zn5  1  0.83035591  0.75772893  0.62913079  1  0  0.841339  0  2.228655  0  0  0.697311  0  2.734184  0  0  0.735484  0  2.685993  0  1.089236  0  0.429041  0.670276  0  2.767911  0
Zn  Zn6  1  0.66963955  0.25773031  0.12912990  1  0  0.841427  0  2.228559  0  0  0.697417  0  2.734064  0  0  0.735601  0  2.685879  0  1.089254  0  0.429078  0.670382  0  2.767794  0
Zn  Zn7  1  0.16964202  0.24226831  0.37086928  1  0  0.841414  0  2.228588  0  0  0.697416  0  2.73407  0  0  0.735589  0  2.685873  0  1.089241  0  0.429076  0.670382  0  2.7678  0
H  H8  1  0.86498629  0.88147511  0.90884300  1  0  0.073098  0  0.959001  0  0  0.082891  0  1.02552  0  0  0.084985  0  1.023999  0  0.110608  0  0.111575  0.081306  0  1.026699  0
H  H9  1  0.36500745  0.61852532  0.59115504  1  0  0.07303  0  0.958911  0  0  0.082773  0  1.025484  0  0  0.084838  0  1.023986  0  0.110249  0  0.111504  0.081209  0  1.026641  0
H  H10  1  0.13500445  0.11851870  0.09115385  1  0  0.073083  0  0.958901  0  0  0.082832  0  1.025491  0  0  0.084899  0  1.023994  0  0.110208  0  0.111561  0.08126  0  1.026657  0
H  H11  1  0.63501060  0.38147764  0.40884352  1  0  0.073029  0  0.95894  0  0  0.082805  0  1.025498  0  0  0.084895  0  1.023979  0  0.110559  0  0.111527  0.08122  0  1.026678  0
H  H12  1  0.83018631  0.94908405  0.99535040  1  0  0.105843  0  0.963799  0  0  0.113668  0  1.027624  0  0  0.117052  0  1.026458  0  0.111215  0  0.101093  0.111262  0  1.028565  0
H  H13  1  0.33018447  0.55091523  0.50464862  1  0  0.105837  0  0.96376  0  0  0.113674  0  1.027577  0  0  0.11706  0  1.026406  0  0.111232  0  0.101121  0.111268  0  1.028518  0
H  H14  1  0.16982312  0.05091776  0.00464708  1  0  0.105831  0  0.963778  0  0  0.113695  0  1.027566  0  0  0.117071  0  1.0264  0  0.111184  0  0.101123  0.11129  0  1.028506  0
H  H15  1  0.66979909  0.44908201  0.49535042  1  0  0.105811  0  0.963823  0  0  0.113716  0  1.027572  0  0  0.117106  0  1.026389  0  0.11112  0  0.101147  0.11131  0  1.028514  0
H  H16  1  0.77957455  0.73604444  0.04398235  1  0  0.10262  0  0.943813  0  0  0.111432  0  1.005101  0  0  0.114389  0  1.003068  0  0.103397  0  0.099681  0.109275  0  1.006598  0
H  H17  1  0.27955547  0.76395485  0.45601702  1  0  0.10266  0  0.943627  0  0  0.111471  0  1.004935  0  0  0.114427  0  1.002905  0  0.1035  0  0.099731  0.109314  0  1.006432  0
H  H18  1  0.22045069  0.26396422  0.95601710  1  0  0.102601  0  0.94366  0  0  0.111391  0  1.004996  0  0  0.114344  0  1.002967  0  0.103473  0  0.099706  0.109235  0  1.006491  0
H  H19  1  0.72040797  0.23604239  0.54398305  1  0  0.102564  0  0.943825  0  0  0.111416  0  1.005087  0  0  0.114374  0  1.003051  0  0.103348  0  0.099706  0.10926  0  1.006583  0
H  H20  1  0.75605452  0.47072765  0.00612992  1  0  0.111386  0  0.978388  0  0  0.118805  0  1.043451  0  0  0.12199  0  1.042843  0  0.13213  0  0.098527  0.116527  0  1.043965  0
H  H21  1  0.25603831  0.02927097  0.49387167  1  0  0.111368  0  0.978567  0  0  0.11877  0  1.043609  0  0  0.121963  0  1.043006  0  0.132158  0  0.098488  0.116493  0  1.044123  0
H  H22  1  0.24396065  0.52927873  0.99387393  1  0  0.111359  0  0.978483  0  0  0.118792  0  1.043505  0  0  0.121976  0  1.042904  0  0.132261  0  0.098551  0.116508  0  1.044036  0
H  H23  1  0.74393662  0.97072170  0.50612893  1  0  0.111437  0  0.978376  0  0  0.118859  0  1.043435  0  0  0.122051  0  1.042831  0  0.132137  0  0.098511  0.116577  0  1.043959  0
H  H24  1  0.63639472  0.16194821  0.91541190  1  0  0.134334  0  0.970859  0  0  0.152853  0  1.031998  0  0  0.155327  0  1.030995  0  0.085327  0  0.093365  0.151025  0  1.032814  0
H  H25  1  0.13639432  0.33805269  0.58458771  1  0  0.134339  0  0.970851  0  0  0.152837  0  1.03201  0  0  0.155314  0  1.031007  0  0.085309  0  0.093366  0.151008  0  1.032827  0
H  H26  1  0.36361614  0.83805017  0.08458787  1  0  0.134382  0  0.970888  0  0  0.152877  0  1.032031  0  0  0.155352  0  1.031028  0  0.084989  0  0.093387  0.151049  0  1.032848  0
H  H27  1  0.86360648  0.66195026  0.41541292  1  0  0.134209  0  0.970841  0  0  0.152716  0  1.03202  0  0  0.15519  0  1.031017  0  0.085103  0  0.093314  0.150889  0  1.032836  0
H  H28  1  0.59987285  0.30108328  0.96327400  1  0  0.131997  0  0.945795  0  0  0.153335  0  1.003755  0  0  0.154617  0  1.004011  0  0.090662  0  0.100319  0.152411  0  1.003566  0
H  H29  1  0.09986957  0.19891762  0.53672664  1  0  0.13198  0  0.945803  0  0  0.15332  0  1.003763  0  0  0.154603  0  1.004018  0  0.090625  0  0.100303  0.152394  0  1.003575  0
H  H30  1  0.40013802  0.69891510  0.03672749  1  0  0.132022  0  0.94578  0  0  0.15337  0  1.003707  0  0  0.154653  0  1.00396  0  0.090674  0  0.10032  0.152445  0  1.003518  0
H  H31  1  0.90012548  0.80108647  0.46327471  1  0  0.131996  0  0.945759  0  0  0.153354  0  1.003684  0  0  0.154636  0  1.003938  0  0.090617  0  0.100341  0.15243  0  1.003496  0
H  H32  1  0.82193044  0.20440443  0.95746902  1  0  0.125001  0  0.939521  0  0  0.148507  0  0.996818  0  0  0.149674  0  0.997111  0  0.063113  0  0.099104  0.147703  0  0.996555  0
H  H33  1  0.32193004  0.29559190  0.54253145  1  0  0.124982  0  0.939449  0  0  0.148473  0  0.996785  0  0  0.149633  0  0.997086  0  0.06315  0  0.099119  0.147668  0  0.996523  0
H  H34  1  0.17808043  0.79559167  0.04253135  1  0  0.125099  0  0.939425  0  0  0.148567  0  0.996774  0  0  0.149731  0  0.99707  0  0.063243  0  0.099119  0.147763  0  0.99651  0
H  H35  1  0.67806933  0.70440990  0.45747051  1  0  0.125017  0  0.939452  0  0  0.148513  0  0.99676  0  0  0.149673  0  0.997058  0  0.063158  0  0.099126  0.147711  0  0.996497  0
H  H36  1  0.94778071  0.10881197  0.88123147  1  0  0.112618  0  0.946379  0  0  0.133481  0  1.008594  0  0  0.133191  0  1.009509  0  0.107245  0  0.108456  0.133533  0  1.00809  0
H  H37  1  0.44778462  0.39118208  0.61876754  1  0  0.11259  0  0.94632  0  0  0.133452  0  1.008538  0  0  0.133164  0  1.009447  0  0.107206  0  0.108451  0.133503  0  1.008037  0
H  H38  1  0.05221866  0.89118184  0.11876642  1  0  0.112654  0  0.946214  0  0  0.133484  0  1.008451  0  0  0.133196  0  1.00936  0  0.107214  0  0.108487  0.133536  0  1.007948  0
H  H39  1  0.55222481  0.60881288  0.38123279  1  0  0.112636  0  0.946213  0  0  0.133462  0  1.008485  0  0  0.133172  0  1.009399  0  0.107387  0  0.108467  0.133514  0  1.00798  0
H  H40  1  0.96098521  0.03721273  0.82217475  1  0  0.107039  0  0.977376  0  0  0.122965  0  1.047702  0  0  0.123302  0  1.048633  0  0.074011  0  0.101094  0.12265  0  1.047122  0
H  H41  1  0.46098912  0.46278246  0.67782430  1  0  0.107003  0  0.977481  0  0  0.122939  0  1.047786  0  0  0.123273  0  1.048722  0  0.074067  0  0.101084  0.122624  0  1.047205  0
H  H42  1  0.03900841  0.96278679  0.17782231  1  0  0.107036  0  0.977491  0  0  0.122929  0  1.047823  0  0  0.123263  0  1.048761  0  0.073882  0  0.101064  0.122615  0  1.047243  0
H  H43  1  0.53902318  0.53721364  0.32217573  1  0  0.107031  0  0.977492  0  0  0.122967  0  1.047803  0  0  0.123301  0  1.04874  0  0.074003  0  0.101081  0.122652  0  1.047223  0
H  H44  1  0.73817304  0.02499051  0.85158894  1  0  0.103761  0  0.961896  0  0  0.119456  0  1.033928  0  0  0.119329  0  1.03428  0  0.089933  0  0.095465  0.119418  0  1.033802  0
H  H45  1  0.23818126  0.47501268  0.64840972  1  0  0.103734  0  0.961977  0  0  0.119427  0  1.034006  0  0  0.1193  0  1.034356  0  0.089889  0  0.095481  0.119389  0  1.033882  0
H  H46  1  0.26181771  0.97501245  0.14840962  1  0  0.103743  0  0.961996  0  0  0.119424  0  1.034015  0  0  0.119297  0  1.034366  0  0.089931  0  0.095477  0.119386  0  1.033891  0
H  H47  1  0.76182961  0.52499027  0.35159056  1  0  0.103685  0  0.961989  0  0  0.119457  0  1.033938  0  0  0.119329  0  1.034289  0  0.08983  0  0.095463  0.119418  0  1.033813  0
H  H48  1  0.81940222  0.03598583  0.75974919  1  0  0.127062  0  0.94549  0  0  0.137304  0  1.003358  0  0  0.140653  0  1.002513  0  0.120336  0  0.110243  0.13489  0  1.00414  0
H  H49  1  0.31941045  0.46401508  0.74025110  1  0  0.127073  0  0.945473  0  0  0.137331  0  1.00334  0  0  0.140679  0  1.002495  0  0.120376  0  0.110259  0.134916  0  1.00412  0
H  H50  1  0.18059714  0.96402055  0.24024949  1  0  0.1271  0  0.945335  0  0  0.137386  0  1.003167  0  0  0.140736  0  1.002323  0  0.120303  0  0.110285  0.134971  0  1.003949  0
H  H51  1  0.68059323  0.53598673  0.25975051  1  0  0.127072  0  0.945566  0  0  0.137329  0  1.003419  0  0  0.140678  0  1.002574  0  0.120324  0  0.110254  0.134914  0  1.004201  0
H  H52  1  0.83102713  0.10114895  0.67925142  1  0  0.089803  0  0.983713  0  0  0.097668  0  1.053336  0  0  0.100153  0  1.050485  0  0.123356  0  0.089983  0.095761  0  1.055429  0
H  H53  1  0.33102960  0.39885081  0.82074849  1  0  0.089816  0  0.983748  0  0  0.097687  0  1.053361  0  0  0.100174  0  1.050502  0  0.123346  0  0.089992  0.09578  0  1.055454  0
H  H54  1  0.16896936  0.89885857  0.32074834  1  0  0.089849  0  0.983695  0  0  0.097712  0  1.05332  0  0  0.100201  0  1.050457  0  0.123291  0  0.089986  0.095804  0  1.055413  0
H  H55  1  0.66896833  0.60114757  0.17925300  1  0  0.089816  0  0.983754  0  0  0.097703  0  1.053354  0  0  0.100189  0  1.050502  0  0.123024  0  0.08998  0.095796  0  1.055448  0
H  H56  1  0.84083960  0.37761642  0.66490109  1  0  0.110008  0  0.966916  0  0  0.116901  0  1.032626  0  0  0.120226  0  1.0317  0  0.105316  0  0.095743  0.114475  0  1.033509  0
H  H57  1  0.34083920  0.12238562  0.83509855  1  0  0.109998  0  0.966897  0  0  0.116889  0  1.03261  0  0  0.120213  0  1.031685  0  0.105321  0  0.095733  0.114464  0  1.033494  0
H  H58  1  0.15915833  0.62239110  0.33509867  1  0  0.110075  0  0.966926  0  0  0.116973  0  1.032612  0  0  0.120297  0  1.031687  0  0.105336  0  0.095754  0.114547  0  1.033497  0
H  H59  1  0.65915729  0.87761047  0.16490079  1  0  0.109961  0  0.966873  0  0  0.116833  0  1.032618  0  0  0.120159  0  1.031691  0  0.105353  0  0.095707  0.114408  0  1.033502  0
H  H60  1  0.83764304  0.57791289  0.73400165  1  0  0.082944  0  0.956601  0  0  0.089671  0  1.025061  0  0  0.091525  0  1.023253  0  0.139171  0  0.100999  0.08815  0  1.026596  0
H  H61  1  0.33763258  0.92208754  0.76599845  1  0  0.082931  0  0.956575  0  0  0.089665  0  1.025033  0  0  0.091532  0  1.023211  0  0.139146  0  0.100994  0.088078  0  1.026636  0
H  H62  1  0.16235920  0.42209121  0.26599935  1  0  0.082949  0  0.956567  0  0  0.089679  0  1.025024  0  0  0.091533  0  1.023216  0  0.139211  0  0.100998  0.088127  0  1.026591  0
H  H63  1  0.66235529  0.07791084  0.23400167  1  0  0.082951  0  0.95659  0  0  0.089678  0  1.025049  0  0  0.091533  0  1.023238  0  0.139168  0  0.100994  0.088132  0  1.026609  0
C  C64  1  0.83971132  0.79430878  0.93168536  1  0  0.147796  0  3.714368  0  0  0.112422  0  3.969597  0  0  0.120012  0  3.987104  0  0.465123  0  0.052518  0.107476  0  3.95777  0
C  C65  1  0.33972673  0.70569050  0.56831333  1  0  0.147842  0  3.714319  0  0  0.112495  0  3.969605  0  0  0.120114  0  3.987106  0  0.465345  0  0.052577  0.107533  0  3.957772  0
C  C66  1  0.16028230  0.20568617  0.06831154  1  0  0.147819  0  3.714225  0  0  0.112452  0  3.969514  0  0  0.120066  0  3.987019  0  0.465272  0  0.052509  0.107497  0  3.957683  0
C  C67  1  0.66028127  0.29431016  0.43168618  1  0  0.147899  0  3.714084  0  0  0.11252  0  3.969355  0  0  0.120116  0  3.98686  0  0.465153  0  0.052545  0.107573  0  3.957528  0
C  C68  1  0.82299404  0.83095376  0.97950025  1  0  -0.112581  0  3.713062  0  0  -0.127585  0  3.964676  0  0  -0.133827  0  3.984142  0  0.032765  0  -0.083011  -0.123693  0  3.951718  0
C  C69  1  0.32299939  0.66904781  0.52050093  1  0  -0.112528  0  3.712844  0  0  -0.127551  0  3.964442  0  0  -0.133789  0  3.983896  0  0.032837  0  -0.08305  -0.123661  0  3.95149  0
C  C70  1  0.17700963  0.16904691  0.02049857  1  0  -0.112643  0  3.712919  0  0  -0.127678  0  3.964517  0  0  -0.133908  0  3.983979  0  0.032961  0  -0.083103  -0.123787  0  3.951563  0
C  C71  1  0.67699710  0.33095171  0.47950095  1  0  -0.112582  0  3.713022  0  0  -0.127674  0  3.964672  0  0  -0.133914  0  3.984136  0  0.032453  0  -0.083075  -0.123782  0  3.951713  0
C  C72  1  0.79350777  0.71250475  0.00642519  1  0  0.005676  0  3.70483  0  0  -0.011619  0  3.954003  0  0  -0.007736  0  3.97135  0  -0.050326  0  -0.065974  -0.013962  0  3.942211  0
C  C73  1  0.29349587  0.78750140  0.49357615  1  0  0.00569  0  3.704751  0  0  -0.011611  0  3.953866  0  0  -0.007729  0  3.971218  0  -0.050338  0  -0.065964  -0.013956  0  3.942076  0
C  C74  1  0.20650741  0.28750049  0.99357482  1  0  0.005828  0  3.704597  0  0  -0.011458  0  3.953761  0  0  -0.007568  0  3.971099  0  -0.050562  0  -0.065957  -0.013802  0  3.94197  0
C  C75  1  0.70647763  0.21250727  0.50642537  1  0  0.005791  0  3.704657  0  0  -0.011529  0  3.953845  0  0  -0.007641  0  3.97119  0  -0.049884  0  -0.065931  -0.013874  0  3.942054  0
C  C76  1  0.77949119  0.56288957  0.98497248  1  0  -0.132218  0  3.684495  0  0  -0.152389  0  3.932315  0  0  -0.159472  0  3.953884  0  -0.060393  0  -0.080478  -0.147816  0  3.917977  0
C  C77  1  0.27948360  0.93710744  0.51502578  1  0  -0.132282  0  3.684901  0  0  -0.152401  0  3.932655  0  0  -0.159497  0  3.954239  0  -0.060618  0  -0.080442  -0.147826  0  3.918312  0
C  C78  1  0.22051968  0.43710882  0.01502763  1  0  -0.132316  0  3.684608  0  0  -0.152482  0  3.932394  0  0  -0.159567  0  3.953961  0  -0.060647  0  -0.080544  -0.147918  0  3.918067  0
C  C79  1  0.72050139  0.06288980  0.48497154  1  0  -0.132292  0  3.684285  0  0  -0.152484  0  3.932127  0  0  -0.15958  0  3.953701  0  -0.060276  0  -0.08045  -0.147914  0  3.917801  0
C  C80  1  0.79509886  0.53472555  0.93673891  1  0  0.169402  0  3.756314  0  0  0.165267  0  3.996554  0  0  0.17098  0  4.017667  0  0.512855  0  0.11694  0.161299  0  3.982504  0
C  C81  1  0.29510277  0.96527488  0.56326015  1  0  0.169533  0  3.755896  0  0  0.165338  0  3.996106  0  0  0.171043  0  4.017224  0  0.512822  0  0.116971  0.161371  0  3.982056  0
C  C82  1  0.20490338  0.46527511  0.06326300  1  0  0.169346  0  3.756264  0  0  0.165256  0  3.996493  0  0  0.170971  0  4.017604  0  0.513039  0  0.116981  0.161289  0  3.982444  0
C  C83  1  0.70489659  0.03472351  0.43673755  1  0  0.169478  0  3.756367  0  0  0.165406  0  3.996645  0  0  0.171134  0  4.017758  0  0.512665  0  0.116955  0.16143  0  3.982599  0
C  C84  1  0.77791878  0.37887417  0.91167431  1  0  0.232106  0  3.664562  0  0  0.222159  0  3.93471  0  0  0.232377  0  3.947632  0  0.618468  0  0.137803  0.215367  0  3.925902  0
C  C85  1  0.27791982  0.12112673  0.58832770  1  0  0.231992  0  3.664679  0  0  0.222201  0  3.934659  0  0  0.232447  0  3.947552  0  0.618522  0  0.137779  0.215403  0  3.925853  0
C  C86  1  0.22208777  0.62112649  0.08832761  1  0  0.232224  0  3.664776  0  0  0.222163  0  3.93505  0  0  0.23238  0  3.947978  0  0.618436  0  0.137769  0.215367  0  3.92624  0
C  C87  1  0.72207955  0.87887850  0.41167748  1  0  0.232197  0  3.664524  0  0  0.222041  0  3.93494  0  0  0.232224  0  3.947912  0  0.618281  0  0.137778  0.215259  0  3.926126  0
C  C88  1  0.70704105  0.25361092  0.93785048  1  0  -0.371333  0  3.694901  0  0  -0.450033  0  3.924646  0  0  -0.453184  0  3.930422  0  -0.10402  0  -0.237797  -0.447602  0  3.920454  0
C  C89  1  0.20703633  0.24638885  0.56215011  1  0  -0.371234  0  3.694674  0  0  -0.449955  0  3.924397  0  0  -0.45311  0  3.930182  0  -0.104004  0  -0.237778  -0.447519  0  3.920204  0
C  C90  1  0.29297413  0.74638404  0.06215054  1  0  -0.371498  0  3.694824  0  0  -0.450109  0  3.92459  0  0  -0.453255  0  3.930373  0  -0.103785  0  -0.237806  -0.447674  0  3.920395  0
C  C91  1  0.79296016  0.75361867  0.43785136  1  0  -0.371244  0  3.694809  0  0  -0.449856  0  3.92458  0  0  -0.452987  0  3.930374  0  -0.103743  0  -0.237773  -0.447429  0  3.920385  0
C  C92  1  0.86662626  0.09558332  0.84872819  1  0  -0.203535  0  3.647894  0  0  -0.30894  0  3.898039  0  0  -0.304813  0  3.908533  0  0.214378  0  -0.137459  -0.311441  0  3.890871  0
C  C93  1  0.36662873  0.40441644  0.65127103  1  0  -0.203374  0  3.647962  0  0  -0.308776  0  3.898083  0  0  -0.304645  0  3.908578  0  0.214368  0  -0.137416  -0.311277  0  3.890911  0
C  C94  1  0.13337167  0.90441735  0.15127132  1  0  -0.20348  0  3.648059  0  0  -0.308778  0  3.898125  0  0  -0.304645  0  3.908617  0  0.214595  0  -0.137383  -0.311278  0  3.890952  0
C  C95  1  0.63338789  0.59558194  0.34872943  1  0  -0.203481  0  3.647853  0  0  -0.308924  0  3.897947  0  0  -0.304793  0  3.908444  0  0.214331  0  -0.137428  -0.311423  0  3.890776  0
C  C96  1  0.82691357  0.27492070  0.78994850  1  0  0.324232  0  3.780071  0  0  0.292969  0  4.036075  0  0  0.310356  0  4.054089  0  0.93372  0  0.225206  0.28154  0  4.023666  0
C  C97  1  0.32691173  0.22507906  0.71005347  1  0  0.324371  0  3.780055  0  0  0.293066  0  4.036111  0  0  0.310455  0  4.054116  0  0.933356  0  0.225196  0.281612  0  4.023737  0
C  C98  1  0.17308723  0.72508111  0.21005243  1  0  0.324393  0  3.779995  0  0  0.29313  0  4.035947  0  0  0.310518  0  4.053956  0  0.933749  0  0.22527  0.281683  0  4.023567  0
C  C99  1  0.67309051  0.77492389  0.28994784  1  0  0.324285  0  3.779952  0  0  0.293063  0  4.035908  0  0  0.310449  0  4.053914  0  0.933807  0  0.225235  0.281642  0  4.023493  0
C  C100  1  0.82685895  0.15496376  0.75339238  1  0  -0.197672  0  3.68741  0  0  -0.21456  0  3.941941  0  0  -0.225712  0  3.963476  0  -0.048804  0  -0.090528  -0.207503  0  3.927716  0
C  C101  1  0.32686143  0.34503600  0.74660718  1  0  -0.197724  0  3.687425  0  0  -0.214628  0  3.941965  0  0  -0.225778  0  3.963499  0  -0.048563  0  -0.090546  -0.207566  0  3.927751  0
C  C102  1  0.17314041  0.84503805  0.24660648  1  0  -0.197665  0  3.687234  0  0  -0.214612  0  3.941745  0  0  -0.225764  0  3.963281  0  -0.048786  0  -0.090509  -0.20755  0  3.92753  0
C  C103  1  0.67314225  0.65495781  0.25339311  1  0  -0.197652  0  3.687405  0  0  -0.21457  0  3.94189  0  0  -0.225717  0  3.963421  0  -0.048893  0  -0.090532  -0.207519  0  3.927669  0
C  C104  1  0.83213386  0.19190461  0.70828266  1  0  0.027489  0  3.708428  0  0  0.005445  0  3.96251  0  0  0.012575  0  3.979158  0  -0.01431  0  -0.070969  0.00118  0  3.951132  0
C  C105  1  0.33213633  0.30809744  0.79171664  1  0  0.027407  0  3.708352  0  0  0.005359  0  3.962444  0  0  0.012489  0  3.979095  0  -0.01428  0  -0.071  0.001095  0  3.951068  0
C  C106  1  0.16786839  0.80810291  0.29171572  1  0  0.027279  0  3.708552  0  0  0.005231  0  3.962652  0  0  0.012361  0  3.979304  0  -0.01431  0  -0.071083  0.000966  0  3.951274  0
C  C107  1  0.66786016  0.69189752  0.20828438  1  0  0.027341  0  3.708513  0  0  0.005268  0  3.962598  0  0  0.012395  0  3.979247  0  -0.01393  0  -0.071  0.001004  0  3.951223  0
C  C108  1  0.83734983  0.34508170  0.69993138  1  0  -0.148857  0  3.73031  0  0  -0.163411  0  3.988248  0  0  -0.172905  0  4.010003  0  -0.018031  0  -0.102271  -0.157456  0  3.973739  0
C  C109  1  0.33735086  0.15491806  0.80006852  1  0  -0.148768  0  3.730191  0  0  -0.163308  0  3.988129  0  0  -0.172802  0  4.009888  0  -0.018026  0  -0.102232  -0.157351  0  3.973604  0
C  C110  1  0.16264954  0.65492582  0.30006975  1  0  -0.148878  0  3.730429  0  0  -0.163419  0  3.988351  0  0  -0.172913  0  4.010107  0  -0.01806  0  -0.102274  -0.157464  0  3.973835  0
C  C111  1  0.66264563  0.84508032  0.19993262  1  0  -0.148663  0  3.730207  0  0  -0.163176  0  3.988119  0  0  -0.172667  0  4.009875  0  -0.017955  0  -0.102197  -0.157223  0  3.973604  0
C  C112  1  0.83497540  0.45645258  0.73787163  1  0  0.150418  0  3.717026  0  0  0.117089  0  3.971385  0  0  0.125962  0  3.990039  0  0.406445  0  0.042626  0.111476  0  3.958653  0
C  C113  1  0.33496925  0.04354946  0.76212835  1  0  0.150359  0  3.717027  0  0  0.117006  0  3.971407  0  0  0.125868  0  3.990053  0  0.406098  0  0.042553  0.111443  0  3.958698  0
C  C114  1  0.16502684  0.54355608  0.26212920  1  0  0.150396  0  3.717127  0  0  0.117005  0  3.971517  0  0  0.125878  0  3.990169  0  0.406184  0  0.042569  0.111418  0  3.958798  0
C  C115  1  0.66502149  0.95645006  0.23787249  1  0  0.150319  0  3.717112  0  0  0.116978  0  3.971502  0  0  0.125848  0  3.990152  0  0.406069  0  0.042585  0.111384  0  3.958781  0
N  N116  1  0.82658155  0.65081671  0.91105243  1  0  -0.362575  0  3.353247  0  0  -0.283202  0  3.616617  0  0  -0.302486  0  3.63451  0  -1.251793  0  -0.329094  -0.270139  0  3.604522  0
N  N117  1  0.32659840  0.84917800  0.58894815  1  0  -0.362674  0  3.353148  0  0  -0.283308  0  3.616532  0  0  -0.302589  0  3.634413  0  -1.251525  0  -0.329151  -0.270244  0  3.604443  0
N  N118  1  0.17341063  0.34917710  0.08894786  1  0  -0.362542  0  3.35327  0  0  -0.283161  0  3.616609  0  0  -0.302444  0  3.63449  0  -1.251523  0  -0.329042  -0.270098  0  3.604518  0
N  N119  1  0.67341822  0.15081581  0.41105283  1  0  -0.362695  0  3.353288  0  0  -0.283293  0  3.616623  0  0  -0.30258  0  3.634509  0  -1.251726  0  -0.32913  -0.270226  0  3.604528  0
N  N120  1  0.81614386  0.37291214  0.86767100  1  0  -0.250442  0  3.285285  0  0  -0.211215  0  3.567361  0  0  -0.219185  0  3.581047  0  -0.801974  0  -0.21515  -0.205871  0  3.558149  0
N  N121  1  0.31613914  0.12708305  0.63232702  1  0  -0.250281  0  3.285294  0  0  -0.211158  0  3.567345  0  0  -0.21914  0  3.58103  0  -0.802049  0  -0.215091  -0.205811  0  3.55813  0
N  N122  1  0.18385982  0.62708624  0.13232877  1  0  -0.25051  0  3.285542  0  0  -0.211263  0  3.567658  0  0  -0.219233  0  3.581345  0  -0.802118  0  -0.21514  -0.205917  0  3.558441  0
N  N123  1  0.68386022  0.87291190  0.36766987  1  0  -0.25068  0  3.285272  0  0  -0.211401  0  3.567439  0  0  -0.219358  0  3.581133  0  -0.801904  0  -0.215214  -0.206061  0  3.558225  0
N  N124  1  0.82050607  0.24739642  0.83640679  1  0  0.005034  0  3.44816  0  0  0.091523  0  3.672193  0  0  0.072343  0  3.700047  0  -0.728931  0  -0.14535  0.104431  0  3.652888  0
N  N125  1  0.32049992  0.25260791  0.66359362  1  0  0.00483  0  3.447971  0  0  0.091356  0  3.672037  0  0  0.072175  0  3.699891  0  -0.728849  0  -0.145441  0.104272  0  3.652739  0
N  N126  1  0.17949329  0.75260996  0.16359189  1  0  0.004907  0  3.448354  0  0  0.091372  0  3.67238  0  0  0.072191  0  3.700232  0  -0.729024  0  -0.145497  0.104285  0  3.653079  0
N  N127  1  0.67950376  0.74739618  0.33640911  1  0  0.005155  0  3.448162  0  0  0.091622  0  3.672203  0  0  0.072446  0  3.700051  0  -0.728896  0  -0.14534  0.104526  0  3.652897  0
N  N128  1  0.82865989  0.42206608  0.78174622  1  0  -0.412793  0  3.331053  0  0  -0.332692  0  3.599093  0  0  -0.355564  0  3.615538  0  -1.277818  0  -0.342127  -0.317291  0  3.587597  0
N  N129  1  0.32865231  0.07793597  0.71825308  1  0  -0.412835  0  3.331114  0  0  -0.332681  0  3.599091  0  0  -0.355565  0  3.615574  0  -1.27746  0  -0.342063  -0.317252  0  3.58754  0
N  N130  1  0.17134091  0.57793916  0.21825380  1  0  -0.412846  0  3.331256  0  0  -0.332627  0  3.599125  0  0  -0.355505  0  3.615588  0  -1.277507  0  -0.34205  -0.317215  0  3.587605  0
N  N131  1  0.67134419  0.92206013  0.28174660  1  0  -0.412757  0  3.331185  0  0  -0.332646  0  3.599137  0  0  -0.355533  0  3.615629  0  -1.277577  0  -0.342074  -0.317239  0  3.587606  0
Cl  Cl132  1  0.08682892  0.73222435  0.81424648  1  0  -0.476071  0  1.186761  0  0  -0.403619  0  1.509695  0  0  -0.41974  0  1.483585  0  -0.611888  0  -0.240075  -0.391842  0  1.528585  0
Cl  Cl133  1  0.58682214  0.76776694  0.68575398  1  0  -0.476066  0  1.186784  0  0  -0.403628  0  1.509716  0  0  -0.419746  0  1.483606  0  -0.611913  0  -0.240092  -0.391854  0  1.528611  0
Cl  Cl134  1  0.91317045  0.26777060  0.18575385  1  0  -0.476085  0  1.186737  0  0  -0.403635  0  1.509669  0  0  -0.419756  0  1.48356  0  -0.611907  0  -0.240106  -0.391861  0  1.528563  0
Cl  Cl135  1  0.41317148  0.23222230  0.31424581  1  0  -0.476096  0  1.186774  0  0  -0.403652  0  1.509721  0  0  -0.419771  0  1.483608  0  -0.61191  0  -0.240095  -0.391879  0  1.528614  0
Cl  Cl136  1  0.58149837  0.73896777  0.81729091  1  0  -0.484486  0  1.176404  0  0  -0.415385  0  1.499024  0  0  -0.431506  0  1.472929  0  -0.612285  0  -0.247655  -0.403511  0  1.517758  0
Cl  Cl137  1  0.08149796  0.76103152  0.68270881  1  0  -0.484453  0  1.176424  0  0  -0.41535  0  1.499031  0  0  -0.431469  0  1.472936  0  -0.612288  0  -0.247641  -0.403481  0  1.517774  0
Cl  Cl138  1  0.41849956  0.26102833  0.18270913  1  0  -0.484464  0  1.176388  0  0  -0.415375  0  1.499033  0  0  -0.431497  0  1.472939  0  -0.612294  0  -0.247639  -0.403498  0  1.517763  0
Cl  Cl139  1  0.91850284  0.23896915  0.31729070  1  0  -0.484463  0  1.176394  0  0  -0.415374  0  1.499026  0  0  -0.431493  0  1.472928  0  -0.612303  0  -0.247651  -0.403496  0  1.517752  0
Cl  Cl140  1  0.31597098  0.52790788  0.90431721  1  0  -0.547694  0  0.973555  0  0  -0.487454  0  1.241605  0  0  -0.503527  0  1.221887  0  -0.656849  0  -0.31106  -0.475697  0  1.255245  0
Cl  Cl141  1  0.81596707  0.97209026  0.59568418  1  0  -0.547658  0  0.973568  0  0  -0.487413  0  1.241629  0  0  -0.503489  0  1.221917  0  -0.656807  0  -0.311037  -0.475658  0  1.255268  0
Cl  Cl142  1  0.68403270  0.47208936  0.09568217  1  0  -0.547685  0  0.973543  0  0  -0.487453  0  1.241606  0  0  -0.50353  0  1.221891  0  -0.656809  0  -0.311055  -0.475696  0  1.255243  0
Cl  Cl143  1  0.18402655  0.02790926  0.40431701  1  0  -0.547699  0  0.973576  0  0  -0.487449  0  1.241627  0  0  -0.503527  0  1.221911  0  -0.65682  0  -0.311042  -0.475694  0  1.255264  0
Cl  Cl144  1  0.32153909  0.96921377  0.91373863  1  0  -0.570559  0  0.94241  0  0  -0.508443  0  1.204404  0  0  -0.524797  0  1.183171  0  -0.662912  0  -0.318009  -0.496537  0  1.21896  0
Cl  Cl145  1  0.82154668  0.53078323  0.58626032  1  0  -0.570572  0  0.942446  0  0  -0.508437  0  1.204411  0  0  -0.524804  0  1.183197  0  -0.662958  0  -0.318016  -0.496531  0  1.218968  0
Cl  Cl146  1  0.67845165  0.03078461  0.08625976  1  0  -0.570591  0  0.94244  0  0  -0.50845  0  1.204385  0  0  -0.524821  0  1.183181  0  -0.662947  0  -0.318014  -0.496544  0  1.218944  0
Cl  Cl147  1  0.17845987  0.46921401  0.41373838  1  0  -0.570582  0  0.942413  0  0  -0.508451  0  1.204384  0  0  -0.52481  0  1.183158  0  -0.662937  0  -0.318023  -0.496545  0  1.218941  0
