# generated using pymatgen
data_Cd2H14C8O13
_symmetry_space_group_name_H-M   'P 1'
_cell_length_a   7.48326084
_cell_length_b   8.37696074
_cell_length_c   13.28268682
_cell_angle_alpha   93.98426499
_cell_angle_beta   89.98895581
_cell_angle_gamma   116.56458491
_symmetry_Int_Tables_number   1
_chemical_formula_structural   Cd2H14C8O13
_chemical_formula_sum   'Cd4 H28 C16 O26'
_cell_volume   742.50421626
_cell_formula_units_Z   2
loop_
 _symmetry_equiv_pos_site_id
 _symmetry_equiv_pos_as_xyz
  1  'x, y, z'
loop_
 _atom_site_type_symbol
 _atom_site_label
 _atom_site_symmetry_multiplicity
 _atom_site_fract_x
 _atom_site_fract_y
 _atom_site_fract_z
 _atom_site_occupancy
 _atom_site_hle17_bader_spin_density
 _atom_site_hle17_ddec_charge
 _atom_site_hle17_ddec_spin_density
 _atom_site_hle17_ddec_sum_bond_order
 _atom_site_hle17_magmom
 _atom_site_hse06_10hf_bader_charge
 _atom_site_hse06_10hf_bader_spin_density
 _atom_site_hse06_10hf_ddec_charge
 _atom_site_hse06_10hf_ddec_spin_density
 _atom_site_hse06_10hf_ddec_sum_bond_order
 _atom_site_hse06_10hf_magmom
 _atom_site_hse06_bader_spin_density
 _atom_site_hse06_ddec_charge
 _atom_site_hse06_ddec_spin_density
 _atom_site_hse06_ddec_sum_bond_order
 _atom_site_hse06_magmom
 _atom_site_pbe_bader_spin_density
 _atom_site_pbe_cm5_charge
 _atom_site_pbe_ddec_charge
 _atom_site_pbe_ddec_spin_density
 _atom_site_pbe_ddec_sum_bond_order
 _atom_site_pbe_magmom
Cd  Cd0  1  0.53563819  0.08758003  0.87153146  1  0  1.282101  0  1.641252  0  1.406158  0  1.109391  0  2.084578  0  0  1.165723  0  2.023717  0  0  0.781931  1.068539  0  2.126838  0
Cd  Cd1  1  0.55230439  0.08768389  0.37165391  1  0  1.282442  0  1.641288  0  1.406116  0  1.109755  0  2.084763  0  0  1.166057  0  2.023912  0  0  0.782027  1.068954  0  2.126953  0
Cd  Cd2  1  0.46436192  0.91241912  0.12846796  1  0  1.282101  0  1.641232  0  1.406102  0  1.10938  0  2.084566  0  0  1.165711  0  2.023707  0  0  0.781933  1.068529  0  2.126824  0
Cd  Cd3  1  0.44769639  0.91231929  0.62834568  1  0  1.28245  0  1.641312  0  1.406188  0  1.109761  0  2.084801  0  0  1.166063  0  2.023947  0  0  0.782024  1.068945  0  2.127012  0
H  H4  1  0.07655431  0.22997517  0.95133659  1  0  0.100579  0  0.907897  0  0.102236  0  0.110449  0  0.969077  0  0  0.113001  0  0.966864  0  0  0.111183  0.108556  0  0.970893  0
H  H5  1  0.15423909  0.23008376  0.45135205  1  0  0.09975  0  0.908565  0  0.094324  0  0.110437  0  0.969068  0  0  0.11306  0  0.966805  0  0  0.111052  0.108523  0  0.970923  0
H  H6  1  0.92344714  0.77002666  0.04866370  1  0  0.100589  0  0.907928  0  0.102236  0  0.110457  0  0.969092  0  0  0.113013  0  0.966882  0  0  0.111185  0.108565  0  0.970907  0
H  H7  1  0.84576302  0.76991673  0.54864592  1  0  0.099748  0  0.90853  0  0.094343  0  0.110441  0  0.969029  0  0  0.11307  0  0.96677  0  0  0.111031  0.108527  0  0.970879  0
H  H8  1  0.31807393  0.40835738  0.98003997  1  0  0.092777  0  0.950453  0  0.08946  0  0.102403  0  1.016925  0  0  0.104511  0  1.015163  0  0  0.108877  0.100827  0  1.018352  0
H  H9  1  0.09131895  0.40843605  0.48006688  1  0  0.093073  0  0.950359  0  0.121598  0  0.102624  0  1.017002  0  0  0.104727  0  1.015301  0  0  0.108994  0.101098  0  1.018392  0
H  H10  1  0.68192818  0.59164312  0.01995951  1  0  0.092803  0  0.950451  0  0.089499  0  0.102424  0  1.016908  0  0  0.104558  0  1.015118  0  0  0.1089  0.10085  0  1.018335  0
H  H11  1  0.90868116  0.59156311  0.51993179  1  0  0.093114  0  0.95032  0  0.121559  0  0.102688  0  1.016936  0  0  0.104801  0  1.015233  0  0  0.109005  0.101136  0  1.018351  0
H  H12  1  0.20895568  0.35305493  0.76217437  1  0  0.108843  0  0.926836  0  0.119443  0  0.117995  0  0.989223  0  0  0.120686  0  0.986833  0  0  0.11254  0.116006  0  0.991083  0
H  H13  1  0.14506244  0.35360017  0.26222839  1  0  0.109172  0  0.92672  0  0.112512  0  0.118508  0  0.988841  0  0  0.121147  0  0.986517  0  0  0.112746  0.11656  0  0.99066  0
H  H14  1  0.79104376  0.64694825  0.23782598  1  0  0.108863  0  0.926834  0  0.119451  0  0.118021  0  0.989224  0  0  0.120713  0  0.986833  0  0  0.112549  0.116032  0  0.991083  0
H  H15  1  0.85493701  0.64640033  0.73777334  1  0  0.109169  0  0.926706  0  0.112554  0  0.118507  0  0.988834  0  0  0.121146  0  0.986509  0  0  0.11274  0.116559  0  0.990653  0
H  H16  1  0.44662217  0.48867734  0.82553677  1  0  0.097372  0  0.916423  0  0.098047  0  0.10661  0  0.981372  0  0  0.108786  0  0.979732  0  0  0.110586  0.104956  0  0.982714  0
H  H17  1  0.04280433  0.48887425  0.32563785  1  0  0.097358  0  0.916605  0  0.090534  0  0.106355  0  0.981634  0  0  0.108524  0  0.980002  0  0  0.11052  0.104731  0  0.98294  0
H  H18  1  0.55337795  0.51132717  0.17446514  1  0  0.097367  0  0.916422  0  0.098086  0  0.106635  0  0.981356  0  0  0.108809  0  0.979717  0  0  0.110593  0.104986  0  0.982694  0
H  H19  1  0.95719444  0.51112491  0.67436081  1  0  0.097335  0  0.916572  0  0.090512  0  0.10636  0  0.981581  0  0  0.108531  0  0.979948  0  0  0.110537  0.104736  0  0.982888  0
H  H20  1  0.79858857  0.35974873  0.01451506  1  0  0.426505  0  0.876753  0  0.669288  0  0.391969  0  0.946066  0  0  0.404007  0  0.928696  0  0  0.288405  0.383455  0  0.958325  0
H  H21  1  0.56131253  0.35987433  0.51438887  1  0  0.426868  0  0.876291  0  0.675136  0  0.392301  0  0.945788  0  0  0.404337  0  0.928412  0  0  0.28834  0.383775  0  0.958072  0
H  H22  1  0.20141153  0.64025043  0.98548360  1  0  0.426508  0  0.876743  0  0.669255  0  0.391972  0  0.946055  0  0  0.404011  0  0.928685  0  0  0.288406  0.383459  0  0.958314  0
H  H23  1  0.43868558  0.64012616  0.48561136  1  0  0.426924  0  0.876211  0  0.675121  0  0.392361  0  0.945709  0  0  0.404398  0  0.928332  0  0  0.288343  0.383833  0  0.957997  0
H  H24  1  0.86119314  0.44617087  0.90852142  1  0  0.430484  0  0.871999  0  0.64959  0  0.396947  0  0.938961  0  0  0.408668  0  0.922115  0  0  0.289951  0.388671  0  0.950826  0
H  H25  1  0.58481570  0.44613254  0.40836830  1  0  0.429476  0  0.873125  0  0.654139  0  0.396169  0  0.939818  0  0  0.407879  0  0.922989  0  0  0.289724  0.387888  0  0.951685  0
H  H26  1  0.13880964  0.55383096  0.09147661  1  0  0.430507  0  0.872003  0  0.649622  0  0.396993  0  0.938917  0  0  0.408714  0  0.922069  0  0  0.289989  0.388715  0  0.950784  0
H  H27  1  0.41518107  0.55386796  0.59163118  1  0  0.429451  0  0.873161  0  0.654183  0  0.396137  0  0.939853  0  0  0.407846  0  0.923026  0  0  0.289721  0.387857  0  0.95172  0
H  H28  1  0.75310142  0.91974830  0.79134806  1  0  0.430029  0  0.8766  0  0.65846  0  0.394774  0  0.945358  0  0  0.407502  0  0.927243  0  0  0.284646  0.385804  0  0.958081  0
H  H29  1  0.16665338  0.91996676  0.29153300  1  0  0.429851  0  0.876924  0  0.654969  0  0.394761  0  0.945427  0  0  0.407499  0  0.927298  0  0  0.284584  0.385788  0  0.95815  0
H  H30  1  0.24689869  0.08025353  0.20865073  1  0  0.42999  0  0.876652  0  0.658461  0  0.39473  0  0.945422  0  0  0.407459  0  0.927306  0  0  0.284626  0.385759  0  0.958147  0
H  H31  1  0.83334806  0.08003240  0.70846642  1  0  0.429841  0  0.876941  0  0.654972  0  0.394754  0  0.945441  0  0  0.407493  0  0.927308  0  0  0.284592  0.38578  0  0.958165  0
C  C32  1  0.26869794  0.16243817  0.03978789  1  0  0.690469  0  3.84441  0  1.634668  0  0.637193  0  4.148922  0  0  0.670928  0  4.142292  0  0  0.21476  0.614189  0  4.152707  0
C  C33  1  0.89433056  0.16260932  0.53980661  1  0  0.690998  0  3.841239  0  1.649605  0  0.636075  0  4.148613  0  0  0.66982  0  4.142052  0  0  0.214014  0.613085  0  4.152382  0
C  C34  1  0.73130085  0.83756636  0.96021779  1  0  0.690596  0  3.843954  0  1.634623  0  0.637266  0  4.148536  0  0  0.671003  0  4.141911  0  0  0.214952  0.614262  0  4.152321  0
C  C35  1  0.10567357  0.83739253  0.46019820  1  0  0.691088  0  3.841093  0  1.649603  0  0.636191  0  4.148413  0  0  0.669947  0  4.141854  0  0  0.214126  0.613196  0  4.152183  0
C  C36  1  0.23701090  0.26421329  0.95663058  1  0  -0.076922  0  3.636938  0  0.408021  0  -0.12874  0  3.893248  0  0  -0.126861  0  3.894633  0  0  -0.072054  -0.130157  0  3.892448  0
C  C37  1  0.02805098  0.26431202  0.45665212  1  0  -0.075837  0  3.634636  0  0.377144  0  -0.128464  0  3.892099  0  0  -0.126717  0  3.8937  0  0  -0.071849  -0.12995  0  3.891399  0
C  C38  1  0.76298988  0.73578721  0.04337040  1  0  -0.07702  0  3.637051  0  0.408017  0  -0.128815  0  3.893322  0  0  -0.126961  0  3.894697  0  0  -0.072101  -0.130236  0  3.892534  0
C  C39  1  0.97194913  0.73568714  0.54334730  1  0  -0.075846  0  3.63466  0  0.377193  0  -0.128527  0  3.892092  0  0  -0.126814  0  3.893739  0  0  -0.071832  -0.129994  0  3.891404  0
C  C40  1  0.34683208  0.35334659  0.79115933  1  0  -0.08399  0  3.621929  0  0.39635  0  -0.13749  0  3.881081  0  0  -0.135516  0  3.88147  0  0  -0.070333  -0.138863  0  3.880854  0
C  C41  1  0.00734885  0.35361631  0.29122920  1  0  -0.084444  0  3.622326  0  0.421498  0  -0.138044  0  3.881122  0  0  -0.136043  0  3.881548  0  0  -0.070518  -0.13943  0  3.880826  0
C  C42  1  0.65316804  0.64665525  0.20884322  1  0  -0.083915  0  3.621922  0  0.39633  0  -0.137513  0  3.881105  0  0  -0.135539  0  3.8815  0  0  -0.070311  -0.138885  0  3.880874  0
C  C43  1  0.99265059  0.64638419  0.70877028  1  0  -0.084392  0  3.62213  0  0.421477  0  -0.138077  0  3.880932  0  0  -0.13607  0  3.881355  0  0  -0.070542  -0.139466  0  3.880635  0
C  C44  1  0.45016058  0.31001536  0.70249045  1  0  0.721183  0  3.82319  0  1.64467  0  0.663197  0  4.130693  0  0  0.698033  0  4.121594  0  0  0.225651  0.639364  0  4.136226  0
C  C45  1  0.86052502  0.31005416  0.20259403  1  0  0.723048  0  3.822383  0  1.642021  0  0.664377  0  4.130464  0  0  0.699249  0  4.121327  0  0  0.226478  0.640526  0  4.136009  0
C  C46  1  0.54983619  0.68998247  0.29751117  1  0  0.721125  0  3.823348  0  1.644732  0  0.663205  0  4.130782  0  0  0.698044  0  4.121681  0  0  0.22561  0.639368  0  4.136318  0
C  C47  1  0.13946439  0.68993966  0.79741118  1  0  0.723068  0  3.822314  0  1.642379  0  0.664493  0  4.130262  0  0  0.699365  0  4.121123  0  0  0.226548  0.640644  0  4.135807  0
O  O48  1  0.30333257  0.22202826  0.86251202  1  0  -0.285429  0  2.407115  0  -1.095145  0  -0.20827  0  2.652901  0  0  -0.22511  0  2.653542  0  0  -0.228406  -0.196291  0  2.652063  0
O  O49  1  0.91950595  0.22220642  0.36255098  1  0  -0.286388  0  2.406086  0  -1.09537  0  -0.208229  0  2.651656  0  0  -0.225002  0  2.652287  0  0  -0.228377  -0.196318  0  2.650897  0
O  O50  1  0.69666687  0.77797224  0.13748972  1  0  -0.28542  0  2.407131  0  -1.095152  0  -0.208201  0  2.652882  0  0  -0.225038  0  2.65353  0  0  -0.228391  -0.196227  0  2.65205  0
O  O51  1  0.08049149  0.77779274  0.63744844  1  0  -0.286437  0  2.406139  0  -1.095351  0  -0.208234  0  2.651711  0  0  -0.225006  0  2.652361  0  0  -0.228371  -0.196315  0  2.650941  0
O  O52  1  0.34506805  0.05466870  0.01707980  1  0  -0.69526  0  2.086319  0  -1.204597  0  -0.616147  0  2.354751  0  0  -0.649055  0  2.340806  0  0  -0.332063  -0.592841  0  2.363515  0
O  O53  1  0.71003123  0.05490735  0.51708545  1  0  -0.695519  0  2.08445  0  -1.210764  0  -0.616358  0  2.354676  0  0  -0.649203  0  2.340591  0  0  -0.331894  -0.593051  0  2.363424  0
O  O54  1  0.65493474  0.94533314  0.98291973  1  0  -0.695238  0  2.086478  0  -1.204584  0  -0.616116  0  2.354937  0  0  -0.649022  0  2.340991  0  0  -0.332074  -0.592812  0  2.3637  0
O  O55  1  0.28996620  0.94509181  0.48291473  1  0  -0.69546  0  2.084539  0  -1.210803  0  -0.616297  0  2.354732  0  0  -0.649138  0  2.340642  0  0  -0.331885  -0.592997  0  2.363498  0
O  O56  1  0.21636591  0.19229882  0.12620515  1  0  -0.595292  0  1.947217  0  -1.207731  0  -0.545537  0  2.167517  0  0  -0.571223  0  2.158116  0  0  -0.307239  -0.527651  0  2.173506  0
O  O57  1  0.97641874  0.19251043  0.62624919  1  0  -0.595533  0  1.945622  0  -1.211647  0  -0.545115  0  2.166543  0  0  -0.570788  0  2.157142  0  0  -0.307004  -0.52723  0  2.172513  0
O  O58  1  0.78363887  0.80769899  0.87379045  1  0  -0.595485  0  1.946603  0  -1.207693  0  -0.545703  0  2.166904  0  0  -0.571392  0  2.157506  0  0  -0.307451  -0.527815  0  2.172891  0
O  O59  1  0.02358069  0.80748738  0.37374791  1  0  -0.595719  0  1.94537  0  -1.211675  0  -0.54529  0  2.166256  0  0  -0.570965  0  2.156854  0  0  -0.307142  -0.527401  0  2.172228  0
O  O60  1  0.50791321  0.18930233  0.71077345  1  0  -0.689878  0  2.102471  0  -1.205017  0  -0.614112  0  2.373928  0  0  -0.646423  0  2.359686  0  0  -0.332101  -0.591234  0  2.382878  0
O  O61  1  0.68203485  0.18913909  0.21094436  1  0  -0.690569  0  2.102525  0  -1.210378  0  -0.614344  0  2.374056  0  0  -0.646661  0  2.359785  0  0  -0.332322  -0.591471  0  2.383065  0
O  O62  1  0.49209157  0.81069817  0.28922602  1  0  -0.689835  0  2.102505  0  -1.205095  0  -0.614107  0  2.373945  0  0  -0.646418  0  2.359702  0  0  -0.332096  -0.591247  0  2.382942  0
O  O63  1  0.31797128  0.81086408  0.78905373  1  0  -0.690674  0  2.102282  0  -1.210441  0  -0.614486  0  2.373773  0  0  -0.646807  0  2.3595  0  0  -0.332405  -0.591611  0  2.382782  0
O  O64  1  0.47821550  0.39925974  0.62627022  1  0  -0.630552  0  2.018464  0  -1.224144  0  -0.566188  0  2.242354  0  0  -0.593783  0  2.231537  0  0  -0.297969  -0.546997  0  2.249347  0
O  O65  1  0.92154639  0.39925485  0.12634152  1  0  -0.631691  0  2.01892  0  -1.226385  0  -0.566706  0  2.242434  0  0  -0.594315  0  2.231514  0  0  -0.298495  -0.547545  0  2.249522  0
O  O66  1  0.52178461  0.60073943  0.37373372  1  0  -0.630602  0  2.018547  0  -1.224171  0  -0.566246  0  2.242417  0  0  -0.593839  0  2.231588  0  0  -0.297939  -0.54705  0  2.249415  0
O  O67  1  0.07845371  0.60074429  0.87365112  1  0  -0.6316  0  2.019283  0  -1.226704  0  -0.566636  0  2.242757  0  0  -0.594241  0  2.231839  0  0  -0.29848  -0.547477  0  2.249837  0
O  O68  1  0.74550357  0.35939089  0.94520864  1  0  -0.867299  0  1.88227  0  -1.292907  0  -0.801298  0  2.091375  0  0  -0.826151  0  2.054314  0  0  -0.594315  -0.783615  0  2.117088  0
O  O69  1  0.61384824  0.35947630  0.44502289  1  0  -0.866737  0  1.883562  0  -1.301405  0  -0.800408  0  2.091497  0  0  -0.825306  0  2.054544  0  0  -0.593723  -0.782693  0  2.11716  0
O  O70  1  0.25449521  0.64060827  0.05479229  1  0  -0.867331  0  1.882308  0  -1.292939  0  -0.80134  0  2.091416  0  0  -0.826192  0  2.054349  0  0  -0.59435  -0.783656  0  2.11713  0
O  O71  1  0.38615054  0.64052554  0.55497815  1  0  -0.866748  0  1.883509  0  -1.301461  0  -0.800416  0  2.091454  0  0  -0.825313  0  2.054499  0  0  -0.593723  -0.782701  0  2.117124  0
O  O72  1  0.71729090  0.99977579  0.74984622  1  0  -0.910991  0  1.961622  0  -1.290477  0  -0.826824  0  2.178281  0  0  -0.855982  0  2.138751  0  0  -0.588347  -0.80592  0  2.205333  0
O  O73  1  0.28270787  0.00022337  0.25015396  1  0  -0.910963  0  1.961641  0  -1.290448  0  -0.82679  0  2.178305  0  0  -0.855947  0  2.138774  0  0  -0.588316  -0.805884  0  2.205357  0
