# generated using pymatgen
data_CuPH16C12N3O4
_symmetry_space_group_name_H-M   'P 1'
_cell_length_a   9.67747807
_cell_length_b   16.49467529
_cell_length_c   18.04325887
_cell_angle_alpha   90.01828083
_cell_angle_beta   89.99928717
_cell_angle_gamma   90.00043452
_symmetry_Int_Tables_number   1
_chemical_formula_structural   CuPH16C12N3O4
_chemical_formula_sum   'Cu8 P8 H128 C96 N24 O32'
_cell_volume   2880.18858244
_cell_formula_units_Z   8
loop_
 _symmetry_equiv_pos_site_id
 _symmetry_equiv_pos_as_xyz
  1  'x, y, z'
loop_
 _atom_site_type_symbol
 _atom_site_label
 _atom_site_symmetry_multiplicity
 _atom_site_fract_x
 _atom_site_fract_y
 _atom_site_fract_z
 _atom_site_occupancy
 _atom_site_pbe_bader_charge
 _atom_site_pbe_bader_spin_density
 _atom_site_pbe_cm5_charge
 _atom_site_pbe_ddec_charge
 _atom_site_pbe_ddec_spin_density
 _atom_site_pbe_ddec_sum_bond_order
 _atom_site_pbe_magmom
Cu  Cu0  1  0.57910031  0.94084911  0.82736580  1  1.01624  0.529225  0.759768  0.780388  0.706966  2.283252  0.529
Cu  Cu1  1  0.42099507  0.55916249  0.32737046  1  1.019879  -0.551836  0.761827  0.783872  -0.723843  2.27749  -0.551
Cu  Cu2  1  0.07909899  0.05915200  0.67264515  1  1.016121  -0.529214  0.759728  0.780542  -0.695622  2.282937  -0.529
Cu  Cu3  1  0.92098806  0.44084271  0.17262531  1  1.01992  -0.551954  0.761841  0.783826  -0.724011  2.277746  -0.551
Cu  Cu4  1  0.42085038  0.05921801  0.17265697  1  1.016215  0.529141  0.759568  0.78034  0.706765  2.283103  0.529
Cu  Cu5  1  0.57905998  0.44075186  0.67272322  1  1.016299  -0.529447  0.75987  0.780429  -0.695792  2.283545  -0.529
Cu  Cu6  1  0.92085376  0.94078234  0.32734046  1  1.016289  -0.529133  0.759587  0.780312  -0.69543  2.283405  -0.529
Cu  Cu7  1  0.07906183  0.55925106  0.82726944  1  1.016374  0.529313  0.759933  0.780549  0.706927  2.283655  0.529
P  P8  1  0.82167935  0.97264219  0.73398063  1  3.347964  0.003014  0.310062  1.259579  0.003459  5.435761  0.004
P  P9  1  0.17794861  0.52741115  0.23391688  1  3.348801  -0.004488  0.309344  1.260366  -0.008484  5.438466  -0.004
P  P10  1  0.32168871  0.02735070  0.76602600  1  3.347856  -0.003014  0.309939  1.25938  -0.003283  5.435708  -0.004
P  P11  1  0.67793578  0.47257741  0.26607988  1  3.348903  -0.004545  0.309312  1.260197  -0.008583  5.438559  -0.004
P  P12  1  0.17826823  0.02736490  0.26602163  1  3.347824  0.003014  0.310384  1.260356  0.003454  5.435051  0.004
P  P13  1  0.82176338  0.47261594  0.76603494  1  3.348436  -0.003085  0.31015  1.260133  -0.003388  5.435153  -0.004
P  P14  1  0.67826818  0.97264064  0.23398124  1  3.347901  -0.003015  0.310258  1.260126  -0.003283  5.435265  -0.004
P  P15  1  0.32174521  0.52738968  0.73396394  1  3.347772  0.003032  0.309995  1.259817  0.003461  5.435574  0.004
H  H16  1  0.69782264  0.80430128  0.77701430  1  0.084072  0.003497  0.105709  0.099963  0.001586  1.020334  0.003
H  H17  1  0.30270019  0.69540471  0.27706438  1  0.08312  -0.003694  0.10577  0.100297  -0.001655  1.019322  -0.003
H  H18  1  0.19784658  0.19571358  0.72299279  1  0.084142  -0.003502  0.10568  0.099985  -0.00156  1.020259  -0.003
H  H19  1  0.80271099  0.30458613  0.22292307  1  0.084669  -0.003685  0.105793  0.100281  -0.00165  1.019417  -0.003
H  H20  1  0.30212184  0.19579796  0.22297245  1  0.084921  0.003485  0.105652  0.100029  0.001578  1.020279  0.003
H  H21  1  0.69779300  0.30427015  0.72292841  1  0.084879  -0.003489  0.10571  0.09986  -0.001551  1.020485  -0.003
H  H22  1  0.80211547  0.80419955  0.27702552  1  0.08502  -0.003496  0.105637  0.100012  -0.001556  1.020345  -0.003
H  H23  1  0.19779770  0.69573804  0.77707591  1  0.085067  0.00349  0.105767  0.099968  0.001583  1.020312  0.003
H  H24  1  0.87636905  0.79873883  0.80085688  1  0.050576  0.005193  0.104341  0.082249  0.002724  1.015344  0.003
H  H25  1  0.12402957  0.70096309  0.30080024  1  0.048285  -0.005451  0.104345  0.082579  -0.002818  1.014921  -0.003
H  H26  1  0.37639424  0.20126908  0.69914333  1  0.050712  -0.005193  0.104331  0.082249  -0.002683  1.015497  -0.003
H  H27  1  0.62404367  0.29902501  0.19919798  1  0.048382  -0.005436  0.104432  0.082743  -0.002806  1.014849  -0.003
H  H28  1  0.12353203  0.20131071  0.19918861  1  0.049842  0.005172  0.104339  0.082399  0.00271  1.015531  0.003
H  H29  1  0.87636752  0.29873419  0.69908670  1  0.050768  -0.005178  0.104326  0.082388  -0.002677  1.015014  -0.003
H  H30  1  0.62351615  0.79869254  0.30081902  1  0.049665  -0.005187  0.104298  0.082338  -0.002675  1.015481  -0.003
H  H31  1  0.37636684  0.70127190  0.80091018  1  0.050763  0.005176  0.104381  0.08241  0.002717  1.015094  0.003
H  H32  1  0.78847293  0.68804727  0.87072002  1  0.082667  9.7e-05  0.099782  0.112185  6e-05  1.016748  0.0
H  H33  1  0.21170304  0.81181470  0.37070677  1  0.083516  -0.000102  0.09984  0.112582  -6.2e-05  1.016174  0.0
H  H34  1  0.28850697  0.31195078  0.62927451  1  0.082159  -0.0001  0.099783  0.112292  -6.2e-05  1.016729  0.0
H  H35  1  0.71172064  0.18817597  0.12928936  1  0.0834  4e-06  0.099826  0.112532  2.3e-05  1.016152  0.0
H  H36  1  0.21128969  0.31201863  0.12927837  1  0.080065  1.2e-05  0.099783  0.11223  2e-06  1.016184  0.0
H  H37  1  0.78859485  0.18799534  0.62918461  1  0.080878  -9.8e-05  0.099945  0.112414  -6.1e-05  1.016121  0.0
H  H38  1  0.71125566  0.68799266  0.37073605  1  0.079668  -8.3e-05  0.09982  0.112292  -4e-05  1.016201  0.0
H  H39  1  0.28860618  0.81201424  0.87082765  1  0.08038  9.8e-05  0.099886  0.112342  6.2e-05  1.016042  0.0
H  H40  1  0.63388918  0.73913321  0.89470342  1  -0.005264  -5.9e-05  0.089329  0.08557  -5.7e-05  1.001448  0.0
H  H41  1  0.36638473  0.76079569  0.39473190  1  -0.006202  6.3e-05  0.089232  0.085418  6.1e-05  1.001621  0.0
H  H42  1  0.13391513  0.26087685  0.60530277  1  -0.005147  5.9e-05  0.089338  0.08564  5.8e-05  1.001313  0.0
H  H43  1  0.86639330  0.23920722  0.10525258  1  -0.006221  0.000166  0.089279  0.085395  0.000118  1.001677  0.0
H  H44  1  0.36592201  0.26096179  0.10528333  1  -0.003555  -0.000162  0.089221  0.085384  -0.000111  1.001069  0.0
H  H45  1  0.63392556  0.23901073  0.60523431  1  -0.004433  5.9e-05  0.089351  0.085738  5.7e-05  1.001382  0.0
H  H46  1  0.86590329  0.73903991  0.39472275  1  -0.003222  5.9e-05  0.0893  0.085611  5.8e-05  1.000869  0.0
H  H47  1  0.13393455  0.76099024  0.89476911  1  -0.004311  -5.9e-05  0.089338  0.085665  -5.7e-05  1.001383  0.0
H  H48  1  0.92771425  0.78242404  0.94747797  1  0.006411  -3.4e-05  0.094804  0.098052  -3.4e-05  0.990471  0.0
H  H49  1  0.07265794  0.71748150  0.44752142  1  0.009708  3.2e-05  0.094762  0.09819  3.3e-05  0.990392  0.0
H  H50  1  0.42773386  0.21757279  0.55251797  1  0.006097  3.3e-05  0.094832  0.098165  3.3e-05  0.990515  0.0
H  H51  1  0.57267056  0.28251222  0.05248050  1  0.009892  2.2e-05  0.094753  0.098216  2.3e-05  0.99044  0.0
H  H52  1  0.07212277  0.21757214  0.05251707  1  0.004737  -2.2e-05  0.094697  0.097837  -1.8e-05  0.991119  0.0
H  H53  1  0.92765752  0.28240555  0.55244258  1  0.007097  3.3e-05  0.094858  0.09807  3.3e-05  0.990346  0.0
H  H54  1  0.57210213  0.78244401  0.44749371  1  0.004641  3.3e-05  0.094698  0.097783  3.3e-05  0.991092  0.0
H  H55  1  0.42766349  0.71759310  0.94757221  1  0.007029  -3.2e-05  0.094724  0.097896  -3.3e-05  0.990337  0.0
H  H56  1  0.78287654  0.76254004  0.00521124  1  0.057829  0.001105  0.098432  0.107734  0.000519  1.00489  0.001
H  H57  1  0.21750284  0.73746318  0.50522899  1  0.058418  -0.00117  0.098177  0.107504  -0.000559  1.004347  -0.001
H  H58  1  0.28288897  0.23744397  0.49479421  1  0.057975  -0.001104  0.098393  0.107586  -0.000526  1.005044  -0.001
H  H59  1  0.71748965  0.26252699  0.99475843  1  0.058505  -0.001171  0.098222  0.107598  -0.000545  1.004313  -0.001
H  H60  1  0.21695531  0.23749373  0.99478382  1  0.057672  0.001104  0.098292  0.10756  0.000545  1.00474  0.001
H  H61  1  0.78287358  0.26241114  0.49471616  1  0.057675  -0.001108  0.098466  0.107733  -0.00053  1.004583  -0.001
H  H62  1  0.71693565  0.76252857  0.50522522  1  0.057594  -0.001106  0.098284  0.107509  -0.000529  1.00462  -0.001
H  H63  1  0.28286713  0.73758257  0.00529539  1  0.057381  0.001108  0.098436  0.107702  0.000538  1.004469  0.001
H  H64  1  0.84496247  0.91960642  0.96702219  1  0.05153  0.000729  0.116133  0.085917  0.000299  0.991348  0.0
H  H65  1  0.15542334  0.58033121  0.46710594  1  0.052537  -0.000779  0.116365  0.086533  -0.000315  0.990807  0.0
H  H66  1  0.34497970  0.08038910  0.53299309  1  0.051382  -0.000731  0.116126  0.085963  -0.000294  0.991233  0.0
H  H67  1  0.65543279  0.41966322  0.03289271  1  0.052523  -0.000791  0.116329  0.086506  -0.000326  0.990864  0.0
H  H68  1  0.15503988  0.08040129  0.03298062  1  0.052018  0.000727  0.11621  0.086042  0.000297  0.991489  0.0
H  H69  1  0.84471851  0.41952312  0.53294063  1  0.053483  -0.000729  0.116011  0.085679  -0.000293  0.991377  0.0
H  H70  1  0.65502678  0.91961314  0.46701527  1  0.05177  -0.000731  0.116119  0.085929  -0.000294  0.99147  0.0
H  H71  1  0.34471527  0.58047300  0.96706356  1  0.053438  0.000748  0.115984  0.08563  0.000314  0.991325  0.0
H  H72  1  0.37233177  0.85813108  0.15293215  1  0.117927  0.000432  0.113626  0.138428  0.000202  0.988275  0.0
H  H73  1  0.62823188  0.64164445  0.65283774  1  0.118807  -0.000453  0.1136  0.138001  -0.000207  0.988349  0.0
H  H74  1  0.87236672  0.14187007  0.34707236  1  0.117987  -0.000441  0.113638  0.138315  -0.000208  0.988202  0.0
H  H75  1  0.12824820  0.35834313  0.84716726  1  0.118657  -0.000618  0.113619  0.137971  -0.000347  0.988441  0.0
H  H76  1  0.62761995  0.14191239  0.84707953  1  0.117463  0.000432  0.113655  0.138325  0.000204  0.988229  0.0
H  H77  1  0.37183247  0.35801042  0.34722543  1  0.120125  -0.000496  0.113818  0.13833  -0.000257  0.988362  0.0
H  H78  1  0.12761806  0.85811883  0.65291438  1  0.117901  -0.000431  0.113494  0.138127  -0.000197  0.988332  0.0
H  H79  1  0.87181616  0.64196647  0.15277075  1  0.120278  0.00052  0.113704  0.138165  0.000264  0.988288  0.0
H  H80  1  0.12348357  0.87457459  0.11640786  1  0.126763  -4.1e-05  0.099961  0.105135  -3.8e-05  1.042058  0.0
H  H81  1  0.87706498  0.62537105  0.61621174  1  0.125112  4e-05  0.099907  0.105394  3.8e-05  1.042289  0.0
H  H82  1  0.62351191  0.12544018  0.38359977  1  0.127048  2.8e-05  0.099954  0.105128  3.6e-05  1.042164  0.0
H  H83  1  0.37708504  0.37463020  0.88378626  1  0.124856  -4.7e-05  0.099904  0.105359  -4.4e-05  1.042655  0.0
H  H84  1  0.87648675  0.12550586  0.88360882  1  0.126777  -3.9e-05  0.099933  0.105048  -3.4e-05  1.042672  0.0
H  H85  1  0.12297354  0.37440507  0.38383038  1  0.123939  -2.9e-05  0.099854  0.105316  -3.8e-05  1.042395  0.0
H  H86  1  0.37648631  0.87451417  0.61637698  1  0.127165  4.1e-05  0.100029  0.10517  3.8e-05  1.042643  0.0
H  H87  1  0.62295761  0.62557089  0.11616005  1  0.123885  -3.5e-05  0.099844  0.105285  -3.7e-05  1.04241  0.0
H  H88  1  0.06057302  0.92612883  0.99242433  1  0.028397  0.0  0.092914  0.086806  3e-06  1.036541  0.0
H  H89  1  0.93984448  0.57380157  0.49216143  1  0.025986  -3e-06  0.092721  0.086598  -0.0  1.036743  0.0
H  H90  1  0.56060424  0.07388303  0.50758415  1  0.028775  -1e-06  0.092974  0.086861  -3e-06  1.036612  0.0
H  H91  1  0.43984786  0.42620258  0.00782962  1  0.025798  -6e-06  0.092746  0.086645  1e-06  1.036956  0.0
H  H92  1  0.93936527  0.07401892  0.00762450  1  0.029656  0.0  0.092918  0.086808  5e-06  1.036561  0.0
H  H93  1  0.06029531  0.42606609  0.50783858  1  0.026701  -0.0  0.092754  0.086683  1e-06  1.036516  0.0
H  H94  1  0.43936092  0.92599068  0.49235768  1  0.029662  -1e-06  0.092877  0.086741  -3e-06  1.036727  0.0
H  H95  1  0.56028366  0.57392636  0.99214827  1  0.026314  3e-06  0.092685  0.086602  2e-06  1.036536  0.0
H  H96  1  0.23953443  0.94960073  0.89519225  1  0.103029  0.000228  0.110785  0.127745  2.3e-05  1.024228  0.0
H  H97  1  0.76089444  0.55030526  0.39496410  1  0.101038  -0.000482  0.110821  0.127659  -0.000332  1.023872  0.0
H  H98  1  0.73955633  0.05040358  0.60481876  1  0.102825  -0.000228  0.110827  0.127931  -1.9e-05  1.024359  0.0
H  H99  1  0.26090197  0.44969856  0.10502497  1  0.101054  -0.000484  0.110841  0.127647  -0.000336  1.023959  0.0
H  H100  1  0.76037079  0.05060886  0.10486158  1  0.128191  0.000226  0.110674  0.127863  2.6e-05  1.02399  0.0
H  H101  1  0.23929391  0.44947813  0.60502482  1  0.132309  -0.000226  0.110692  0.127541  -1.7e-05  1.024759  0.0
H  H102  1  0.26036440  0.94938889  0.39512028  1  0.128849  -0.000228  0.110639  0.127898  -1.9e-05  1.024135  0.0
H  H103  1  0.73928845  0.55052921  0.89495349  1  0.132681  0.000227  0.110697  0.12746  2.2e-05  1.024776  0.0
H  H104  1  0.97841200  0.91255495  0.82686447  1  0.071491  0.005424  0.110519  0.143461  0.002761  0.973925  0.003
H  H105  1  0.02188904  0.58704613  0.32732915  1  0.074022  -0.005803  0.110935  0.144131  -0.002935  0.972903  -0.003
H  H106  1  0.47842926  0.08744172  0.67314661  1  0.071751  -0.005424  0.110563  0.14353  -0.002719  0.973717  -0.003
H  H107  1  0.52188614  0.41293927  0.17266983  1  0.074142  -0.005797  0.110974  0.144179  -0.002931  0.972789  -0.003
H  H108  1  0.02152938  0.08750672  0.17319322  1  0.071689  0.005419  0.110524  0.143428  0.002759  0.974101  0.003
H  H109  1  0.97835303  0.41251180  0.67306820  1  0.071826  -0.005423  0.110559  0.143359  -0.002718  0.97387  -0.003
H  H110  1  0.52152350  0.91250353  0.32681518  1  0.071699  -0.005426  0.110464  0.143319  -0.00272  0.974138  -0.003
H  H111  1  0.47835907  0.58749093  0.82691904  1  0.071689  0.005421  0.110665  0.143441  0.002759  0.973743  0.003
H  H112  1  0.88432905  0.99793645  0.86154332  1  0.085418  6.1e-05  0.109407  0.126269  -0.000129  1.047503  0.0
H  H113  1  0.11667653  0.50181755  0.36157025  1  0.082233  -4.3e-05  0.109381  0.126134  0.000127  1.048714  0.0
H  H114  1  0.38433715  0.00206547  0.63845977  1  0.085366  -6.1e-05  0.109418  0.126246  0.000131  1.047543  0.0
H  H115  1  0.61666560  0.49818018  0.13842897  1  0.082405  -5.4e-05  0.109295  0.125987  0.000121  1.048742  0.0
H  H116  1  0.11556171  0.00213248  0.13844952  1  0.086529  6.1e-05  0.109377  0.126403  -0.000131  1.04756  0.0
H  H117  1  0.88424445  0.49791250  0.63848407  1  0.086423  -8e-05  0.109419  0.126364  0.000121  1.047661  0.0
H  H118  1  0.61557117  0.99787676  0.36154968  1  0.086157  -6.1e-05  0.109371  0.126384  0.000131  1.047529  0.0
H  H119  1  0.38423678  0.50209184  0.86150683  1  0.086681  5.4e-05  0.109406  0.126403  -0.000136  1.047674  0.0
H  H120  1  0.63764962  0.88014864  0.09330731  1  0.593273  0.000399  0.309352  0.326459  0.000276  0.960009  0.001
H  H121  1  0.36294866  0.61968312  0.59330229  1  0.593757  -0.000414  0.309408  0.326661  -0.000282  0.959721  -0.001
H  H122  1  0.13768589  0.11984988  0.40670384  1  0.593581  -0.000398  0.309384  0.326317  -0.000271  0.960296  -0.001
H  H123  1  0.86297087  0.38031558  0.90669274  1  0.594114  -0.000445  0.309355  0.326544  -0.000277  0.95976  -0.001
H  H124  1  0.36227213  0.11991424  0.90672765  1  0.593239  0.000399  0.309271  0.326369  0.000276  0.960228  0.001
H  H125  1  0.63694830  0.38004024  0.40668441  1  0.563138  -0.000471  0.309428  0.326596  -0.000308  0.95883  -0.001
H  H126  1  0.86227204  0.88010264  0.59326682  1  0.593473  -0.000399  0.309337  0.326303  -0.000272  0.960265  -0.001
H  H127  1  0.13693022  0.61994311  0.09331122  1  0.563279  0.000417  0.309415  0.326639  0.000238  0.958837  0.001
H  H128  1  0.41634375  0.75850245  0.70293289  1  0.593696  2.8e-05  0.300783  0.388191  6.7e-05  0.91771  0.0
H  H129  1  0.58336263  0.74173558  0.20273975  1  0.59227  -5.3e-05  0.301167  0.388729  -7.8e-05  0.917359  0.0
H  H130  1  0.91635670  0.24150338  0.79705957  1  0.593933  -2.7e-05  0.300791  0.38822  -6.4e-05  0.917729  0.0
H  H131  1  0.08332784  0.25825156  0.29726509  1  0.587634  7.3e-05  0.301066  0.388588  7e-05  0.917635  0.0
H  H132  1  0.58333725  0.24171198  0.29704335  1  0.594561  -8.8e-05  0.300825  0.388609  -8.4e-05  0.91741  0.0
H  H133  1  0.41640207  0.25848126  0.79712730  1  0.594228  -3e-05  0.300835  0.388056  -6.9e-05  0.918013  0.0
H  H134  1  0.08332739  0.75828607  0.20295539  1  0.59474  -1.9e-05  0.300825  0.388595  -6.7e-05  0.917335  0.0
H  H135  1  0.91640997  0.74153063  0.70287458  1  0.59495  2.8e-05  0.30089  0.388201  6.7e-05  0.917765  0.0
H  H136  1  0.43079755  0.84766367  0.73313993  1  0.626036  4.7e-05  0.283245  0.377736  -2.7e-05  0.957043  0.0
H  H137  1  0.56856185  0.65248814  0.23271361  1  0.631249  -5.7e-05  0.283271  0.378702  7e-06  0.955869  0.0
H  H138  1  0.93080092  0.15234168  0.76685162  1  0.626045  -4.7e-05  0.283235  0.377778  3.3e-05  0.957006  0.0
H  H139  1  0.06852174  0.34749947  0.26728825  1  0.631515  -6.8e-05  0.283166  0.37861  2e-06  0.956022  0.0
H  H140  1  0.56934121  0.15252165  0.26679695  1  0.627351  6e-05  0.283205  0.377823  -2.2e-05  0.95698  0.0
H  H141  1  0.43077403  0.34761528  0.76691511  1  0.625172  -4.6e-05  0.283256  0.377847  3.1e-05  0.957016  0.0
H  H142  1  0.06931923  0.84747203  0.23320880  1  0.627595  -4.8e-05  0.283175  0.377791  3.2e-05  0.957033  0.0
H  H143  1  0.93076037  0.65239310  0.73308255  1  0.625183  4.5e-05  0.283268  0.377852  -2.8e-05  0.956954  0.0
C  C144  1  0.77160826  0.80749224  0.82310122  1  0.21341  -0.000395  -0.081503  -0.096765  0.000608  3.862334  -0.002
C  C145  1  0.22876756  0.69231907  0.32310884  1  0.218169  0.000394  -0.080481  -0.096213  -0.000586  3.857976  0.002
C  C146  1  0.27163867  0.19251174  0.67690914  1  0.213619  0.000386  -0.081354  -0.096568  -0.000547  3.862117  0.002
C  C147  1  0.72877141  0.30767175  0.17688753  1  0.216984  0.000408  -0.080664  -0.096505  -0.000556  3.85815  0.002
C  C148  1  0.22827216  0.19257912  0.17691601  1  0.213499  -0.000411  -0.081176  -0.096725  0.000579  3.861752  -0.002
C  C149  1  0.77159542  0.30744006  0.67685237  1  0.212126  0.000392  -0.081389  -0.097084  -0.000534  3.861011  0.002
C  C150  1  0.72826448  0.80742564  0.32308756  1  0.213778  0.000393  -0.081258  -0.096789  -0.000542  3.861608  0.002
C  C151  1  0.27160501  0.69256755  0.82315300  1  0.212856  -0.000395  -0.081577  -0.097489  0.000602  3.861374  -0.002
C  C152  1  0.74511698  0.74727705  0.88470668  1  -0.01043  0.000873  -0.168071  -0.166082  0.000515  3.934967  0.001
C  C153  1  0.25515271  0.75263452  0.38473002  1  -0.0097  -0.000918  -0.167926  -0.166574  -0.000531  3.934524  -0.001
C  C154  1  0.24514921  0.25272306  0.61529222  1  -0.009997  -0.000877  -0.168146  -0.16645  -0.000511  3.935129  -0.001
C  C155  1  0.75516034  0.24735955  0.11526063  1  -0.010409  -0.000791  -0.167795  -0.166273  -0.000391  3.934333  -0.001
C  C156  1  0.25469834  0.25279794  0.11528893  1  -0.009525  0.00076  -0.167742  -0.165425  0.000392  3.933232  0.0
C  C157  1  0.74514207  0.24719008  0.61522066  1  -0.010808  -0.000875  -0.168181  -0.165981  -0.000509  3.933623  -0.001
C  C158  1  0.75467748  0.74720826  0.38471779  1  -0.008992  -0.000871  -0.167817  -0.165822  -0.000503  3.933021  -0.001
C  C159  1  0.24515821  0.75281367  0.88479098  1  -0.01091  0.000875  -0.168001  -0.165673  0.000519  3.933654  0.001
C  C160  1  0.81462881  0.78741494  0.95152542  1  0.01857  0.002578  -0.157951  -0.184746  0.00195  3.873753  0.002
C  C161  1  0.18572025  0.71252713  0.45154625  1  0.020006  -0.002719  -0.157304  -0.18406  -0.002039  3.873593  -0.002
C  C162  1  0.31464777  0.21257910  0.54848056  1  0.018755  -0.00258  -0.157944  -0.184631  -0.001926  3.873862  -0.002
C  C163  1  0.68573120  0.28745847  0.04844453  1  0.020205  -0.002711  -0.157491  -0.184325  -0.002044  3.873455  -0.002
C  C164  1  0.18521234  0.21262428  0.04848072  1  0.019951  0.002568  -0.1581  -0.184912  0.001969  3.873803  0.002
C  C165  1  0.81457453  0.28733628  0.54841775  1  0.023891  -0.002578  -0.158208  -0.185188  -0.001931  3.874254  -0.002
C  C166  1  0.68519132  0.78739283  0.45152446  1  0.020139  -0.002573  -0.158054  -0.184616  -0.001924  3.873495  -0.002
C  C167  1  0.31458115  0.71266504  0.95159155  1  0.02414  0.00257  -0.157986  -0.184844  0.001956  3.873735  0.002
C  C168  1  0.77187850  0.87674619  0.94185348  1  0.309891  0.001448  0.018626  0.018098  0.001941  3.784927  -0.001
C  C169  1  0.22847149  0.62318291  0.44191069  1  0.304947  -0.001507  0.0187  0.016991  -0.001952  3.78481  0.001
C  C170  1  0.27188613  0.12324627  0.55815854  1  0.309666  -0.00145  0.018527  0.017999  -0.001874  3.784732  0.001
C  C171  1  0.72848262  0.37680911  0.05807681  1  0.305465  -0.001513  0.018718  0.016964  -0.001961  3.78427  0.001
C  C172  1  0.22804325  0.12329789  0.05817040  1  0.311074  0.001457  0.018794  0.018192  0.001945  3.784697  -0.001
C  C173  1  0.77171170  0.37664656  0.55812147  1  0.305267  -0.001469  0.019004  0.018469  -0.001884  3.784049  0.001
C  C174  1  0.72803150  0.87671172  0.44183151  1  0.31094  -0.001456  0.018816  0.018117  -0.001875  3.784885  0.001
C  C175  1  0.27170264  0.62335075  0.94188169  1  0.305433  0.001468  0.018861  0.018174  0.001953  3.784045  -0.001
C  C176  1  0.62911880  0.89114138  0.97197003  1  1.022378  0.000889  0.234205  0.311066  0.001165  3.948773  0.002
C  C177  1  0.37127274  0.60875608  0.47197838  1  1.033128  -0.000935  0.2344  0.311201  -0.001162  3.948895  -0.002
C  C178  1  0.12912619  0.10886076  0.52803664  1  1.022625  -0.000891  0.234384  0.311224  -0.001093  3.948799  -0.002
C  C179  1  0.87128160  0.39124142  0.02802167  1  1.032538  -0.000926  0.234476  0.31135  -0.001169  3.948838  -0.002
C  C180  1  0.37082982  0.10896272  0.02806660  1  1.021431  0.000859  0.234531  0.311994  0.001142  3.948276  0.002
C  C181  1  0.62884431  0.39097700  0.52810364  1  1.03374  -0.000891  0.234886  0.312149  -0.00111  3.9469  -0.002
C  C182  1  0.87082449  0.89104569  0.47193235  1  1.022031  -0.000899  0.234539  0.312022  -0.001094  3.948566  -0.002
C  C183  1  0.12883546  0.60901665  0.97189527  1  1.034337  0.000897  0.235006  0.312252  0.001188  3.947128  0.002
C  C184  1  0.44178493  0.88947061  0.04203222  1  0.316846  0.004419  0.095506  0.14372  0.003073  4.018525  0.004
C  C185  1  0.55870252  0.61026618  0.54198503  1  0.27937  -0.00464  0.095353  0.143438  -0.003164  4.020207  -0.004
C  C186  1  0.94180718  0.11052629  0.45797106  1  0.315603  -0.004422  0.095452  0.143615  -0.003025  4.018272  -0.004
C  C187  1  0.05871549  0.38972686  0.95801454  1  0.278994  -0.004371  0.09531  0.143504  -0.002995  4.020032  -0.003
C  C188  1  0.55816679  0.11063349  0.95798889  1  0.377488  0.004253  0.095355  0.144282  0.003017  4.01845  0.003
C  C189  1  0.44138353  0.38932685  0.45809974  1  0.277687  -0.004441  0.095602  0.143695  -0.003015  4.019954  -0.004
C  C190  1  0.05816211  0.88938744  0.54200458  1  0.376411  -0.004325  0.095416  0.144123  -0.003019  4.018392  -0.004
C  C191  1  0.94137676  0.61065428  0.04189521  1  0.27696  0.004232  0.095494  0.143593  0.002951  4.020372  0.003
C  C192  1  0.34288358  0.87710525  0.09734118  1  -0.012412  0.000769  -0.091113  -0.178325  0.000514  3.995748  0.001
C  C193  1  0.65764818  0.62266663  0.59725589  1  0.029687  -0.000777  -0.090537  -0.176529  -0.000518  3.994644  -0.001
C  C194  1  0.84290287  0.12289868  0.40266624  1  -0.012792  -0.000771  -0.09092  -0.177771  -0.0005  3.995482  -0.001
C  C195  1  0.15765610  0.37732606  0.90274232  1  0.030019  -0.000797  -0.090572  -0.176446  -0.000614  3.994805  0.0
C  C196  1  0.65709190  0.12297096  0.90267439  1  -0.013661  0.000739  -0.091006  -0.178136  0.000491  3.995627  0.001
C  C197  1  0.34239963  0.37698825  0.40281892  1  0.025155  -0.000792  -0.091451  -0.177826  -0.00053  3.995751  -0.001
C  C198  1  0.15709535  0.87704476  0.59731550  1  -0.01344  -0.00077  -0.090937  -0.177973  -0.000498  3.995319  -0.001
C  C199  1  0.84239482  0.62299021  0.09716798  1  0.029683  0.000747  -0.09135  -0.177798  0.000596  3.996073  0.0
C  C200  1  0.20529811  0.88834420  0.07677631  1  -0.110344  3.2e-05  -0.100886  -0.09741  -8e-06  4.041492  0.0
C  C201  1  0.79520256  0.61149528  0.57662698  1  -0.115503  -4.2e-05  -0.101051  -0.0985  3e-06  4.041634  0.0
C  C202  1  0.70532471  0.11167370  0.42323691  1  -0.109214  -5.5e-05  -0.100932  -0.097563  -1e-06  4.042275  0.0
C  C203  1  0.29521575  0.38848829  0.92336597  1  -0.115522  -0.000586  -0.101024  -0.09855  -0.000412  4.041779  0.0
C  C204  1  0.79466808  0.11172474  0.92323094  1  -0.109426  -1.7e-05  -0.101201  -0.09765  -4.6e-05  4.042005  0.0
C  C205  1  0.20483905  0.38822931  0.42341403  1  -0.151688  -0.00011  -0.10061  -0.097352  -6.9e-05  4.041684  0.0
C  C206  1  0.29467557  0.88827762  0.57675425  1  -0.109891  -3.1e-05  -0.101226  -0.097727  1e-05  4.041985  0.0
C  C207  1  0.70482484  0.61174857  0.07658366  1  -0.156074  0.000522  -0.100486  -0.097094  0.000356  4.041845  0.0
C  C208  1  0.16927872  0.91595966  0.00536739  1  -0.058252  -0.000399  -0.105523  -0.109198  -0.000262  4.053445  0.0
C  C209  1  0.83113889  0.58390293  0.50517591  1  -0.053952  0.000422  -0.105141  -0.108931  0.000289  4.052235  0.0
C  C210  1  0.66930467  0.08404034  0.49463812  1  -0.058638  0.000396  -0.105781  -0.109483  0.000264  4.053614  0.0
C  C211  1  0.33115972  0.41609368  0.99481978  1  -0.053192  0.000618  -0.105153  -0.109002  0.000421  4.052058  0.0
C  C212  1  0.83066990  0.08416869  0.99466260  1  -0.058812  -0.000534  -0.105446  -0.109388  -0.000355  4.052959  0.0
C  C213  1  0.16898333  0.41585925  0.49485181  1  -0.010899  0.000385  -0.105642  -0.109613  0.000265  4.053249  0.0
C  C214  1  0.33067805  0.91583580  0.50532366  1  -0.05896  0.000394  -0.105384  -0.109208  0.000263  4.052957  0.0
C  C215  1  0.66896870  0.58414560  0.00514150  1  -0.009932  -0.000482  -0.105561  -0.109474  -0.000304  4.052956  0.0
C  C216  1  0.26779016  0.92962802  0.95062179  1  -0.044143  0.001124  -0.091575  -0.157442  0.000703  3.975516  0.001
C  C217  1  0.73259930  0.57018397  0.45044689  1  0.019769  -0.001165  -0.090734  -0.15603  -0.000702  3.97321  -0.001
C  C218  1  0.76781015  0.07037471  0.54939572  1  -0.044673  -0.001125  -0.091516  -0.157528  -0.000692  3.975181  -0.001
C  C219  1  0.23261006  0.42981112  0.04955286  1  0.019307  -0.000933  -0.090812  -0.156071  -0.000553  3.972982  -0.001
C  C220  1  0.73214502  0.07051670  0.04941817  1  -0.069541  0.001046  -0.091264  -0.156906  0.000651  3.974826  0.001
C  C221  1  0.26756012  0.42953940  0.54957528  1  -0.078111  -0.001144  -0.090942  -0.156385  -0.0007  3.975243  -0.001
C  C222  1  0.23214571  0.92947900  0.45056384  1  -0.070713  -0.001126  -0.091185  -0.15696  -0.000692  3.974431  -0.001
C  C223  1  0.76755143  0.57044998  0.95040620  1  -0.0797  0.000943  -0.091011  -0.156571  0.000586  3.97456  0.001
C  C224  1  0.40532407  0.91288756  0.96912023  1  0.461299  0.00171  0.087711  0.15426  0.002011  4.024192  0.001
C  C225  1  0.59506982  0.58684826  0.46905426  1  0.397432  -0.001851  0.086717  0.152836  -0.002074  4.026162  -0.002
C  C226  1  0.90534584  0.08711757  0.53088537  1  0.4621  -0.001707  0.087662  0.15418  -0.001966  4.023844  -0.001
C  C227  1  0.09506994  0.41314625  0.03095019  1  0.397546  -0.001792  0.086756  0.152846  -0.002033  4.025996  -0.001
C  C228  1  0.59461008  0.08724140  0.03090698  1  0.401514  0.001692  0.087479  0.153495  0.00195  4.024527  0.001
C  C229  1  0.40506480  0.41277569  0.53103551  1  0.463588  -0.001719  0.087308  0.153415  -0.001977  4.025739  -0.001
C  C230  1  0.09460898  0.91276463  0.46908472  1  0.402475  -0.001789  0.087403  0.15345  -0.001967  4.02422  -0.001
C  C231  1  0.90505848  0.58721185  0.96895623  1  0.464679  0.001751  0.087387  0.153686  0.002035  4.025086  0.001
C  C232  1  0.87695783  0.94277175  0.82814356  1  -0.218323  -0.00052  -0.088923  -0.385488  0.000319  3.884287  -0.003
C  C233  1  0.12355390  0.55703765  0.32828084  1  -0.215734  -2e-06  -0.089091  -0.387207  -0.000305  3.888367  0.003
C  C234  1  0.37697312  0.05722343  0.67186552  1  -0.218813  0.000518  -0.088989  -0.385388  -0.000243  3.883896  0.003
C  C235  1  0.62355111  0.44295408  0.17171515  1  -0.215766  -0.000117  -0.089088  -0.387101  -0.000382  3.888043  0.002
C  C236  1  0.12297529  0.05727657  0.17187533  1  -0.218883  -0.000516  -0.088926  -0.385819  0.000322  3.885012  -0.003
C  C237  1  0.87688141  0.44273182  0.67183832  1  -0.219067  0.000359  -0.089067  -0.385935  -0.000346  3.88476  0.003
C  C238  1  0.62296413  0.94273576  0.32813174  1  -0.218425  0.000511  -0.088924  -0.385708  -0.00025  3.884652  0.003
C  C239  1  0.37688008  0.55727670  0.82815801  1  -0.218829  -0.00056  -0.089092  -0.386039  0.000292  3.884411  -0.003
N  N240  1  0.76777293  0.88999160  0.85907106  1  -0.953649  0.129066  -0.328735  -0.087137  0.087569  3.470122  0.111
N  N241  1  0.23253332  0.60988221  0.35913764  1  -0.955734  -0.135441  -0.328903  -0.084566  -0.090343  3.472385  -0.116
N  N242  1  0.26778398  0.11001053  0.64094867  1  -0.953336  -0.129087  -0.32878  -0.087538  -0.086186  3.470267  -0.111
N  N243  1  0.73254067  0.39011228  0.14085546  1  -0.956325  -0.135496  -0.328715  -0.08444  -0.09038  3.472042  -0.116
N  N244  1  0.23214469  0.11007188  0.14095614  1  -0.95581  0.12903  -0.328901  -0.087462  0.087546  3.470738  0.111
N  N245  1  0.76768810  0.38993998  0.64090615  1  -0.954954  -0.129118  -0.328845  -0.086745  -0.086204  3.46881  -0.111
N  N246  1  0.73213674  0.88993715  0.35904305  1  -0.955724  -0.129063  -0.328719  -0.087194  -0.086167  3.469915  -0.111
N  N247  1  0.26769418  0.61007063  0.85909750  1  -0.956011  0.129078  -0.328834  -0.086397  0.087571  3.468539  0.111
N  N248  1  0.52536253  0.91204428  0.92679656  1  -1.197148  0.070436  -0.389349  -0.422999  0.048745  3.613502  0.06
N  N249  1  0.47495584  0.58778877  0.42675465  1  -1.198615  -0.073434  -0.389151  -0.423252  -0.049876  3.614707  -0.062
N  N250  1  0.02537799  0.08795394  0.57321307  1  -1.197753  -0.070426  -0.389428  -0.423056  -0.047951  3.613224  -0.06
N  N251  1  0.97495831  0.41221386  0.07324300  1  -1.198707  -0.073466  -0.389195  -0.423247  -0.049907  3.61489  -0.062
N  N252  1  0.47459125  0.08809741  0.07324007  1  -1.198235  0.070368  -0.389435  -0.423196  0.048713  3.613343  0.06
N  N253  1  0.52516948  0.41191642  0.57332405  1  -1.199348  -0.07062  -0.389863  -0.423673  -0.048073  3.614215  -0.06
N  N254  1  0.97458200  0.91190826  0.42675092  1  -1.198203  -0.07037  -0.389386  -0.423216  -0.047918  3.613227  -0.06
N  N255  1  0.02516598  0.58807937  0.92666841  1  -1.199681  0.070505  -0.389898  -0.423719  0.048779  3.61398  0.06
N  N256  1  0.58399140  0.87777231  0.04210685  1  -1.316501  0.000481  -0.365535  -0.307923  9.1e-05  3.506326  0.0
N  N257  1  0.41654565  0.62203484  0.54209941  1  -1.325778  -0.00053  -0.365422  -0.307605  -8.1e-05  3.507199  0.0
N  N258  1  0.08401450  0.12222332  0.45790133  1  -1.316175  -0.000481  -0.365488  -0.30772  -6.8e-05  3.506495  0.0
N  N259  1  0.91656089  0.37795462  0.95790469  1  -1.325355  -0.000652  -0.365375  -0.307588  -0.00015  3.507261  0.0
N  N260  1  0.41595826  0.12231481  0.95791925  1  -1.315954  0.00048  -0.365569  -0.308725  9.8e-05  3.506551  0.0
N  N261  1  0.58356003  0.37758062  0.45797816  1  -1.296341  -0.000623  -0.366076  -0.308663  -0.000148  3.505331  0.0
N  N262  1  0.91595376  0.87769768  0.54207653  1  -1.316903  -0.000481  -0.365719  -0.308523  -6.7e-05  3.506527  0.0
N  N263  1  0.08354790  0.62239863  0.04201837  1  -1.296431  0.000435  -0.366097  -0.308797  7.2e-05  3.505775  0.0
O  O264  1  0.85160906  0.90321828  0.68130974  1  -1.475287  0.000849  -0.388909  -0.767453  0.000396  2.143126  0.0
O  O265  1  0.14545302  0.59649774  0.18132013  1  -1.474621  -0.003864  -0.389163  -0.76854  -0.001906  2.144481  -0.003
O  O266  1  0.35161653  0.09677850  0.81869621  1  -1.475298  -0.000851  -0.388853  -0.767396  -0.00037  2.142962  0.0
O  O267  1  0.64545370  0.40349782  0.31868781  1  -1.474848  -0.004778  -0.389191  -0.768514  -0.002494  2.1447  -0.004
O  O268  1  0.14837469  0.09678942  0.31869972  1  -1.474408  0.000841  -0.388948  -0.767624  0.000397  2.143244  0.0
O  O269  1  0.85199805  0.40328140  0.81871533  1  -1.474947  -0.00179  -0.388897  -0.767504  -0.000975  2.142731  -0.001
O  O270  1  0.64837859  0.90321222  0.18130826  1  -1.475004  -0.000844  -0.388851  -0.76756  -0.000367  2.143278  0.0
O  O271  1  0.35194157  0.59672873  0.68127566  1  -1.474512  0.000808  -0.388773  -0.767425  0.000369  2.142781  0.0
O  O272  1  0.89418846  0.05408646  0.71481828  1  -1.387951  -0.077266  -0.387333  -0.720628  -0.050205  2.33449  -0.068
O  O273  1  0.10576019  0.44561588  0.21557258  1  -1.392144  -0.102529  -0.388766  -0.723867  -0.066324  2.33016  -0.089
O  O274  1  0.39419259  0.94590887  0.78519659  1  -1.388137  0.077268  -0.387234  -0.720418  0.051069  2.334462  0.068
O  O275  1  0.60575807  0.55437812  0.28442371  1  -1.392333  -0.102504  -0.388701  -0.723744  -0.066294  2.330116  -0.089
O  O276  1  0.10580149  0.94591518  0.28520615  1  -1.388306  -0.077271  -0.387295  -0.720742  -0.05021  2.334326  -0.068
O  O277  1  0.89413673  0.55413549  0.78513406  1  -1.388329  0.077443  -0.387268  -0.720637  0.051182  2.333987  0.068
O  O278  1  0.60580047  0.05408852  0.21479458  1  -1.388177  0.077271  -0.387238  -0.720682  0.051086  2.33431  0.068
O  O279  1  0.39412652  0.44587015  0.71486973  1  -1.388387  -0.077437  -0.387227  -0.720533  -0.050312  2.334098  -0.068
O  O280  1  0.66603085  0.99274500  0.74485364  1  -1.366137  0.062344  -0.40051  -0.718281  0.040067  2.287995  0.053
O  O281  1  0.33439075  0.50886386  0.24372164  1  -1.370349  -0.093  -0.402515  -0.721617  -0.059374  2.286623  -0.078
O  O282  1  0.16603813  0.00725625  0.75515300  1  -1.365888  -0.062357  -0.400534  -0.718307  -0.039378  2.288016  -0.053
O  O283  1  0.83437577  0.49112544  0.25626626  1  -1.370151  -0.093048  -0.402512  -0.721492  -0.059404  2.286783  -0.078
O  O284  1  0.33391880  0.00726209  0.25513975  1  -1.365666  0.062352  -0.400695  -0.718426  0.040074  2.287695  0.053
O  O285  1  0.66604565  0.49259566  0.75527271  1  -1.366136  -0.06224  -0.400574  -0.718406  -0.039293  2.287697  -0.052
O  O286  1  0.83391876  0.99274115  0.24485923  1  -1.365762  -0.062341  -0.400701  -0.718423  -0.039368  2.287746  -0.053
O  O287  1  0.16602850  0.50740316  0.74472673  1  -1.365889  0.062156  -0.400612  -0.718383  0.039936  2.287897  0.052
O  O288  1  0.48236473  0.80226362  0.71065472  1  -1.229787  0.00047  -0.599147  -0.759168  0.000263  1.896797  0.0
O  O289  1  0.51720348  0.69802550  0.21031172  1  -1.233381  -0.000649  -0.599923  -0.760596  -0.000365  1.895408  0.0
O  O290  1  0.98237012  0.19773914  0.78934145  1  -1.230051  -0.000477  -0.599129  -0.759234  -0.000256  1.896742  0.0
O  O291  1  0.01716946  0.30196289  0.28969772  1  -1.229035  0.001056  -0.599693  -0.760368  0.000681  1.895639  0.001
O  O292  1  0.51754773  0.19784652  0.28925389  1  -1.231959  -0.00129  -0.599008  -0.759692  -0.000817  1.896161  -0.001
O  O293  1  0.48239692  0.30224527  0.78938630  1  -1.229348  -0.000479  -0.599037  -0.759031  -0.000254  1.897549  0.0
O  O294  1  0.01752373  0.80214490  0.21075889  1  -1.232388  -0.000511  -0.598972  -0.759659  -0.000284  1.896145  0.0
O  O295  1  0.98239165  0.69775931  0.71060931  1  -1.23011  0.00047  -0.599136  -0.759231  0.000263  1.89719  0.0
