# generated using pymatgen
data_GdAgH12C14N2O11
_symmetry_space_group_name_H-M   'P 1'
_cell_length_a   7.31035070
_cell_length_b   13.89836884
_cell_length_c   19.28021220
_cell_angle_alpha   102.93254194
_cell_angle_beta   89.99972473
_cell_angle_gamma   90.00005726
_symmetry_Int_Tables_number   1
_chemical_formula_structural   GdAgH12C14N2O11
_chemical_formula_sum   'Gd4 Ag4 H48 C56 N8 O44'
_cell_volume   1909.21799280
_cell_formula_units_Z   4
loop_
 _symmetry_equiv_pos_site_id
 _symmetry_equiv_pos_as_xyz
  1  'x, y, z'
loop_
 _atom_site_type_symbol
 _atom_site_label
 _atom_site_symmetry_multiplicity
 _atom_site_fract_x
 _atom_site_fract_y
 _atom_site_fract_z
 _atom_site_occupancy
 _atom_site_pbe_bader_charge
 _atom_site_pbe_bader_spin_density
 _atom_site_pbe_cm5_charge
 _atom_site_pbe_ddec_charge
 _atom_site_pbe_ddec_spin_density
 _atom_site_pbe_ddec_sum_bond_order
 _atom_site_pbe_magmom
Gd  Gd0  1  0.43662998  0.20086839  0.85667464  1  2.16647  0  1.456066  1.956847  0  2.217938  0
Gd  Gd1  1  0.93663194  0.29910516  0.64330244  1  2.166496  0  1.456152  1.957097  0  2.217846  0
Gd  Gd2  1  0.56337430  0.79912440  0.14332593  1  2.166531  0  1.456079  1.956997  0  2.217781  0
Gd  Gd3  1  0.06338056  0.70089072  0.35670167  1  2.166521  0  1.456097  1.956661  0  2.218405  0
Ag  Ag4  1  0.94577277  0.12654861  0.02071313  1  0.640789  0  0.440703  0.508922  0  1.642101  0
Ag  Ag5  1  0.44578099  0.37342479  0.47927734  1  0.64098  0  0.440682  0.508924  0  1.642198  0
Ag  Ag6  1  0.05424793  0.87344593  0.97927783  1  0.640824  0  0.440702  0.508892  0  1.641987  0
Ag  Ag7  1  0.55421783  0.62658418  0.52072444  1  0.641059  0  0.440662  0.508901  0  1.641842  0
H  H8  1  0.31460315  0.40188165  0.13504592  1  0.112176  0  0.112124  0.122748  0  0.98779  0
H  H9  1  0.81463077  0.09811648  0.36492333  1  0.113131  0  0.112124  0.122701  0  0.98776  0
H  H10  1  0.68538882  0.59810949  0.86495079  1  0.112375  0  0.11215  0.12269  0  0.987801  0
H  H11  1  0.18536804  0.90188407  0.63508662  1  0.113015  0  0.112145  0.122728  0  0.987817  0
H  H12  1  0.59844598  0.50750585  0.15020221  1  0.121715  0  0.111265  0.111488  0  1.020985  0
H  H13  1  0.09848745  0.99251791  0.34979071  1  0.121557  0  0.111517  0.111864  0  1.021438  0
H  H14  1  0.40153778  0.49249542  0.84979176  1  0.121614  0  0.11139  0.111662  0  1.020954  0
H  H15  1  0.90149495  0.00747862  0.65022751  1  0.121135  0  0.111459  0.111815  0  1.021257  0
H  H16  1  0.82286529  0.48569449  0.04776497  1  0.168617  0  0.1164  0.13564  0  1.017181  0
H  H17  1  0.32289315  0.01432187  0.45221820  1  0.168275  0  0.116305  0.135405  0  1.017103  0
H  H18  1  0.17712258  0.51432747  0.95223238  1  0.168418  0  0.116276  0.135435  0  1.017254  0
H  H19  1  0.67709745  0.98566568  0.54779618  1  0.168288  0  0.116266  0.13539  0  1.016941  0
H  H20  1  0.59716881  0.83822483  0.91773487  1  0.138637  0  0.112463  0.122136  0  1.031372  0
H  H21  1  0.09717381  0.66175751  0.58226537  1  0.138768  0  0.112498  0.122252  0  1.031299  0
H  H22  1  0.40284095  0.16176148  0.08226844  1  0.138273  0  0.112452  0.122171  0  1.031446  0
H  H23  1  0.90280722  0.33824557  0.41773611  1  0.138686  0  0.112494  0.122207  0  1.031272  0
H  H24  1  0.31587875  0.74504705  0.86325288  1  0.115286  0  0.111608  0.114308  0  0.989362  0
H  H25  1  0.81586833  0.75494786  0.63673567  1  0.115371  0  0.111686  0.114339  0  0.989498  0
H  H26  1  0.68412964  0.25496283  0.13673708  1  0.115152  0  0.111727  0.114332  0  0.989138  0
H  H27  1  0.18411955  0.24506935  0.36326984  1  0.115277  0  0.111701  0.114355  0  0.989486  0
H  H28  1  0.07416986  0.83835403  0.81051379  1  0.138747  0  0.116767  0.132431  0  0.984903  0
H  H29  1  0.57415856  0.66161636  0.68946565  1  0.139027  0  0.116753  0.132357  0  0.984894  0
H  H30  1  0.92583306  0.16163785  0.18946746  1  0.138604  0  0.116665  0.132232  0  0.984635  0
H  H31  1  0.42582658  0.33837763  0.31052938  1  0.138679  0  0.116686  0.132321  0  0.984661  0
H  H32  1  0.21474509  0.34540507  0.80951915  1  0.653223  0  0.300528  0.387522  0  0.953634  0
H  H33  1  0.71472554  0.15457958  0.69045838  1  0.653552  0  0.300529  0.387353  0  0.953845  0
H  H34  1  0.78525647  0.65459219  0.19048308  1  0.6535  0  0.300519  0.387453  0  0.95372  0
H  H35  1  0.28526507  0.84542203  0.30954289  1  0.653635  0  0.300508  0.387347  0  0.95381  0
H  H36  1  0.11360181  0.35457965  0.88279794  1  0.642595  0  0.296408  0.400881  0  0.936869  0
H  H37  1  0.61356799  0.14540798  0.61717969  1  0.642035  0  0.296508  0.400971  0  0.936767  0
H  H38  1  0.88642163  0.64541911  0.11720502  1  0.642464  0  0.296459  0.400884  0  0.936864  0
H  H39  1  0.38641441  0.85459540  0.38282805  1  0.642053  0  0.296539  0.401047  0  0.936694  0
H  H40  1  0.35523804  0.22961096  0.70581623  1  0.657261  0  0.301498  0.400122  0  0.937468  0
H  H41  1  0.85524784  0.27039595  0.79416824  1  0.657449  0  0.30152  0.40011  0  0.937519  0
H  H42  1  0.64476078  0.77041129  0.29418738  1  0.657133  0  0.301486  0.400159  0  0.937368  0
H  H43  1  0.14475235  0.72960254  0.20582898  1  0.65745  0  0.301495  0.400062  0  0.937591  0
H  H44  1  0.52422306  0.30261045  0.73419412  1  0.647313  0  0.302258  0.400968  0  0.934378  0
H  H45  1  0.02421797  0.19738318  0.76578557  1  0.646871  0  0.302332  0.401156  0  0.93407  0
H  H46  1  0.47578123  0.69740369  0.26580837  1  0.647071  0  0.30229  0.401042  0  0.934317  0
H  H47  1  0.97577947  0.80261214  0.23420654  1  0.646659  0  0.302267  0.401046  0  0.93427  0
H  H48  1  0.57130655  0.03526308  0.73326763  1  0.58415  0  0.334915  0.410544  0  0.860358  0
H  H49  1  0.07132968  0.46472039  0.76671471  1  0.584517  0  0.334874  0.410463  0  0.860483  0
H  H50  1  0.42870731  0.96473896  0.26672696  1  0.584088  0  0.334879  0.410451  0  0.860479  0
H  H51  1  0.92866640  0.53528565  0.23328718  1  0.584443  0  0.334898  0.410436  0  0.86057  0
H  H52  1  0.76081848  0.05699333  0.77428177  1  0.660637  0  0.29628  0.400783  0  0.936275  0
H  H53  1  0.26083514  0.44298760  0.72571072  1  0.66078  0  0.296307  0.400979  0  0.936041  0
H  H54  1  0.23919675  0.94300150  0.22571546  1  0.660719  0  0.29628  0.400733  0  0.936343  0
H  H55  1  0.73916778  0.55701638  0.27429399  1  0.660731  0  0.296297  0.400933  0  0.93612  0
C  C56  1  0.22645050  0.25991957  0.01291203  1  1.582296  0  0.208405  0.553842  0  4.211474  0
C  C57  1  0.72644989  0.24006319  0.48707292  1  1.583354  0  0.208683  0.554265  0  4.211066  0
C  C58  1  0.77355789  0.74006881  0.98708845  1  1.582744  0  0.208299  0.553733  0  4.21173  0
C  C59  1  0.27357628  0.75995562  0.51293540  1  1.582673  0  0.208646  0.554176  0  4.211516  0
C  C60  1  0.38290404  0.33159638  0.02707266  1  0.441307  0  0.120652  0.120098  0  3.978322  0
C  C61  1  0.88290062  0.16840201  0.47291880  1  0.440941  0  0.120533  0.119732  0  3.97804  0
C  C62  1  0.61708657  0.66840821  0.97292955  1  0.44159  0  0.120578  0.119922  0  3.978597  0
C  C63  1  0.11711598  0.83159992  0.52708927  1  0.441805  0  0.120526  0.119699  0  3.977945  0
C  C64  1  0.41347825  0.39730757  0.09222611  1  0.014838  0  -0.067407  -0.118573  0  3.910397  0
C  C65  1  0.91351500  0.10268558  0.40774744  1  0.013853  0  -0.067253  -0.118124  0  3.909053  0
C  C66  1  0.58649868  0.60269259  0.90777549  1  0.014937  0  -0.067274  -0.118225  0  3.909967  0
C  C67  1  0.08648929  0.89732801  0.59225913  1  0.013406  0  -0.067239  -0.118142  0  3.909561  0
C  C68  1  0.57203841  0.45469606  0.10034113  1  -0.017687  0  -0.062019  -0.022418  0  3.92775  0
C  C69  1  0.07208610  0.04530252  0.39963596  1  -0.017893  0  -0.062321  -0.023011  0  3.928012  0
C  C70  1  0.42793305  0.54531097  0.89965052  1  -0.018033  0  -0.062229  -0.022778  0  3.92781  0
C  C71  1  0.92790588  0.95467609  0.60037511  1  -0.01739  0  -0.062334  -0.023123  0  3.927837  0
C  C72  1  0.69569898  0.44397487  0.04392535  1  -0.054972  0  -0.062948  -0.110944  0  3.875281  0
C  C73  1  0.19572009  0.05604158  0.45605862  1  -0.054582  0  -0.062717  -0.110509  0  3.874863  0
C  C74  1  0.30429574  0.55603826  0.95607129  1  -0.054591  0  -0.06276  -0.110615  0  3.875009  0
C  C75  1  0.80426915  0.94395492  0.54394299  1  -0.054242  0  -0.062649  -0.110267  0  3.874185  0
C  C76  1  0.65261924  0.37752393  0.98028983  1  0.510875  0  0.122714  0.110798  0  3.99096  0
C  C77  1  0.15259197  0.12246227  0.51968908  1  0.510724  0  0.122461  0.110675  0  3.991345  0
C  C78  1  0.34737548  0.62248256  0.01970589  1  0.511032  0  0.122589  0.110741  0  3.990865  0
C  C79  1  0.84742190  0.87754548  0.48031823  1  0.510823  0  0.122356  0.11047  0  3.991775  0
C  C80  1  0.77496252  0.35970816  0.91578023  1  1.620461  0  0.229806  0.571213  0  4.200041  0
C  C81  1  0.27494829  0.14028089  0.58419778  1  1.619604  0  0.229756  0.571073  0  4.199819  0
C  C82  1  0.22502398  0.64028638  0.08421073  1  1.620311  0  0.229788  0.571046  0  4.199784  0
C  C83  1  0.72506147  0.85972459  0.41580766  1  1.620186  0  0.229732  0.57115  0  4.199355  0
C  C84  1  0.65608664  0.03901683  0.93095522  1  1.595557  0  0.213405  0.565113  0  4.19333  0
C  C85  1  0.15612149  0.46095112  0.56902531  1  1.595793  0  0.21344  0.565348  0  4.193094  0
C  C86  1  0.34391491  0.96096971  0.06903723  1  1.595581  0  0.213496  0.565157  0  4.192862  0
C  C87  1  0.84389785  0.53903994  0.43096983  1  1.595492  0  0.213574  0.56531  0  4.193034  0
C  C88  1  0.50535824  0.97372291  0.89379905  1  0.494157  0  0.124601  0.136226  0  3.955949  0
C  C89  1  0.00534887  0.52626532  0.60620064  1  0.495186  0  0.124661  0.136133  0  3.95558  0
C  C90  1  0.49462827  0.02627366  0.10620413  1  0.494395  0  0.124639  0.136172  0  3.955273  0
C  C91  1  0.99463627  0.47373918  0.39379947  1  0.494819  0  0.124707  0.136273  0  3.9556  0
C  C92  1  0.48938073  0.87366000  0.89374226  1  0.056425  0  -0.067023  -0.10385  0  3.878675  0
C  C93  1  0.98936338  0.62633298  0.60625344  1  0.055447  0  -0.067156  -0.104053  0  3.878721  0
C  C94  1  0.51062492  0.12633973  0.10624993  1  0.056609  0  -0.066989  -0.103805  0  3.878139  0
C  C95  1  0.01062859  0.37366620  0.39374283  1  0.055778  0  -0.067156  -0.103989  0  3.878366  0
C  C96  1  0.33324330  0.82308726  0.86364180  1  -0.116336  0  -0.070797  -0.044865  0  3.982476  0
C  C97  1  0.83324083  0.67690697  0.63634817  1  -0.116215  0  -0.070917  -0.044862  0  3.982715  0
C  C98  1  0.66676783  0.17691637  0.13635560  1  -0.116756  0  -0.070897  -0.044917  0  3.982193  0
C  C99  1  0.16675799  0.32309723  0.36364568  1  -0.116358  0  -0.070913  -0.044839  0  3.982928  0
C  C100  1  0.19950440  0.87379923  0.83392381  1  -0.067705  0  -0.074179  -0.138933  0  3.960184  0
C  C101  1  0.69948914  0.62618581  0.66605635  1  -0.067282  0  -0.074279  -0.139039  0  3.959731  0
C  C102  1  0.80047663  0.12619659  0.16606317  1  -0.066899  0  -0.074048  -0.138652  0  3.960024  0
C  C103  1  0.30048232  0.37381114  0.33393909  1  -0.066596  0  -0.07414  -0.139003  0  3.959576  0
C  C104  1  0.23162204  0.97280901  0.83307001  1  0.542967  0  0.119604  0.113413  0  3.987282  0
C  C105  1  0.73162560  0.52716640  0.66690824  1  0.542937  0  0.119614  0.113338  0  3.986032  0
C  C106  1  0.76838772  0.02718088  0.16691564  1  0.543616  0  0.119564  0.113356  0  3.987131  0
C  C107  1  0.26837595  0.47283473  0.33308259  1  0.542764  0  0.119619  0.113472  0  3.985978  0
C  C108  1  0.10208657  0.03442211  0.80002828  1  1.607976  0  0.228362  0.576615  0  4.193832  0
C  C109  1  0.60207066  0.46554898  0.69997200  1  1.609679  0  0.228603  0.577101  0  4.194645  0
C  C110  1  0.89792182  0.96556898  0.19996739  1  1.607687  0  0.228417  0.576816  0  4.194018  0
C  C111  1  0.39792268  0.53445042  0.30002897  1  1.609266  0  0.22854  0.57708  0  4.194271  0
N  N112  1  0.49942545  0.32344112  0.97241401  1  -1.244415  0  -0.37662  -0.349779  0  3.546555  0
N  N113  1  0.99942553  0.17655405  0.52757164  1  -1.243878  0  -0.376502  -0.349527  0  3.547113  0
N  N114  1  0.50056653  0.67656910  0.02758326  1  -1.244612  0  -0.376538  -0.349628  0  3.546536  0
N  N115  1  0.00057055  0.82345336  0.47244393  1  -1.244768  0  -0.376299  -0.349381  0  3.547283  0
N  N116  1  0.38139428  0.02082874  0.86229903  1  -1.255869  0  -0.369904  -0.363338  0  3.549507  0
N  N117  1  0.88142287  0.47914224  0.63768561  1  -1.256456  0  -0.369915  -0.363276  0  3.549808  0
N  N118  1  0.61860043  0.97915057  0.13769553  1  -1.256209  0  -0.370061  -0.363518  0  3.549349  0
N  N119  1  0.11858415  0.52085980  0.36230898  1  -1.256336  0  -0.370055  -0.363475  0  3.549558  0
O  O120  1  0.22061247  0.20183074  0.95167166  1  -1.168723  0  -0.371976  -0.622239  0  2.328101  0
O  O121  1  0.72061819  0.29814361  0.54830496  1  -1.169329  0  -0.372107  -0.622411  0  2.328403  0
O  O122  1  0.77939455  0.79815821  0.04832527  1  -1.168775  0  -0.371847  -0.622159  0  2.328158  0
O  O123  1  0.27937925  0.70185940  0.45171052  1  -1.169599  0  -0.372119  -0.622432  0  2.328552  0
O  O124  1  0.11559918  0.25782901  0.06342620  1  -1.118648  0  -0.328497  -0.513876  0  2.248298  0
O  O125  1  0.61557861  0.24215450  0.43655805  1  -1.11876  0  -0.328687  -0.514202  0  2.247668  0
O  O126  1  0.88439964  0.74216368  0.93657228  1  -1.119106  0  -0.32853  -0.513884  0  2.248145  0
O  O127  1  0.38442294  0.75786821  0.56345549  1  -1.118128  0  -0.328607  -0.513981  0  2.247669  0
O  O128  1  0.71054995  0.30024438  0.86000931  1  -1.187862  0  -0.364397  -0.610214  0  2.287125  0
O  O129  1  0.21051615  0.19973353  0.63999688  1  -1.18741  0  -0.364328  -0.610313  0  2.286492  0
O  O130  1  0.28943792  0.69975464  0.13999940  1  -1.187699  0  -0.364437  -0.610371  0  2.286635  0
O  O131  1  0.78948129  0.80025841  0.36001707  1  -1.187614  0  -0.364484  -0.610392  0  2.286856  0
O  O132  1  0.92689509  0.40237973  0.92068869  1  -1.178281  0  -0.30093  -0.520719  0  2.1782  0
O  O133  1  0.42688761  0.09762102  0.57929010  1  -1.178044  0  -0.300892  -0.520563  0  2.178664  0
O  O134  1  0.07309142  0.59762730  0.07930296  1  -1.178557  0  -0.300802  -0.520456  0  2.178292  0
O  O135  1  0.57311668  0.90238238  0.42073373  1  -1.1782  0  -0.300845  -0.520668  0  2.177977  0
O  O136  1  0.65507729  0.12845181  0.92558266  1  -1.172952  0  -0.369789  -0.635903  0  2.335511  0
O  O137  1  0.15506391  0.37151900  0.57439620  1  -1.173606  0  -0.369889  -0.636187  0  2.335893  0
O  O138  1  0.34491879  0.87153050  0.07441335  1  -1.17335  0  -0.369838  -0.635996  0  2.335312  0
O  O139  1  0.84494585  0.62847638  0.42559695  1  -1.173375  0  -0.369969  -0.636117  0  2.335503  0
O  O140  1  0.77011374  0.00240584  0.96780243  1  -1.136023  0  -0.319071  -0.522  0  2.374945  0
O  O141  1  0.27015731  0.49757982  0.53219744  1  -1.136089  0  -0.318925  -0.521878  0  2.375391  0
O  O142  1  0.22989601  0.99759303  0.03218705  1  -1.135657  0  -0.319073  -0.521926  0  2.374785  0
O  O143  1  0.72984971  0.50241517  0.46780344  1  -1.135944  0  -0.318982  -0.521866  0  2.374894  0
O  O144  1  0.16686475  0.11739722  0.79254171  1  -1.189388  0  -0.353003  -0.613552  0  2.27751  0
O  O145  1  0.66686628  0.38257547  0.70744621  1  -1.190991  0  -0.35318  -0.613918  0  2.278301  0
O  O146  1  0.83313953  0.88258714  0.20745096  1  -1.189532  0  -0.353046  -0.613714  0  2.27766  0
O  O147  1  0.33315442  0.61743545  0.29256622  1  -1.190793  0  -0.353085  -0.613778  0  2.278392  0
O  O148  1  0.94524725  0.00011784  0.78268945  1  -1.182279  0  -0.309077  -0.535038  0  2.161998  0
O  O149  1  0.44527103  0.49985585  0.71730684  1  -1.182355  0  -0.309012  -0.535009  0  2.162817  0
O  O150  1  0.05474746  0.99988393  0.21729939  1  -1.18218  0  -0.30902  -0.535018  0  2.162112  0
O  O151  1  0.55475514  0.50013285  0.28268487  1  -1.182206  0  -0.309043  -0.535143  0  2.162033  0
O  O152  1  0.23351682  0.33597033  0.85812181  1  -1.288998  0  -0.656476  -0.859924  0  2.163142  0
O  O153  1  0.73349510  0.16399946  0.64185156  1  -1.288675  0  -0.656572  -0.859882  0  2.163375  0
O  O154  1  0.76649841  0.66402693  0.14188043  1  -1.289148  0  -0.656506  -0.859842  0  2.16307  0
O  O155  1  0.26650098  0.83599802  0.35815538  1  -1.288732  0  -0.656542  -0.85982  0  2.163373  0
O  O156  1  0.43924750  0.25329417  0.74731956  1  -1.30157  0  -0.659619  -0.85204  0  2.117451  0
O  O157  1  0.93922621  0.24669036  0.75265748  1  -1.301159  0  -0.659679  -0.852288  0  2.117682  0
O  O158  1  0.56074995  0.74670804  0.25267868  1  -1.301155  0  -0.659622  -0.852122  0  2.117446  0
O  O159  1  0.06077397  0.75331258  0.24734086  1  -1.300982  0  -0.659645  -0.852122  0  2.117578  0
O  O160  1  0.63924575  0.08736915  0.76491185  1  -1.232898  0  -0.593184  -0.814446  0  2.09251  0
O  O161  1  0.13925811  0.41261140  0.73507150  1  -1.233531  0  -0.593133  -0.814611  0  2.092478  0
O  O162  1  0.36076674  0.91262958  0.23509058  1  -1.232923  0  -0.593121  -0.814308  0  2.092689  0
O  O163  1  0.86074754  0.58739336  0.26493437  1  -1.2334  0  -0.593189  -0.814464  0  2.092578  0
