# generated using pymatgen
data_CuH9C12SN4O
_symmetry_space_group_name_H-M   'P 1'
_cell_length_a   7.04048604
_cell_length_b   9.90158355
_cell_length_c   18.55500000
_cell_angle_alpha   90.00000000
_cell_angle_beta   90.00000000
_cell_angle_gamma   90.00000000
_symmetry_Int_Tables_number   1
_chemical_formula_structural   CuH9C12SN4O
_chemical_formula_sum   'Cu4 H36 C48 S4 N16 O4'
_cell_volume   1293.50543217
_cell_formula_units_Z   4
loop_
 _symmetry_equiv_pos_site_id
 _symmetry_equiv_pos_as_xyz
  1  'x, y, z'
loop_
 _atom_site_type_symbol
 _atom_site_label
 _atom_site_symmetry_multiplicity
 _atom_site_fract_x
 _atom_site_fract_y
 _atom_site_fract_z
 _atom_site_occupancy
 _atom_site_hle17_bader_spin_density
 _atom_site_hle17_ddec_charge
 _atom_site_hle17_ddec_spin_density
 _atom_site_hle17_ddec_sum_bond_order
 _atom_site_hle17_magmom
 _atom_site_hse06_10hf_bader_spin_density
 _atom_site_hse06_10hf_ddec_charge
 _atom_site_hse06_10hf_ddec_spin_density
 _atom_site_hse06_10hf_ddec_sum_bond_order
 _atom_site_hse06_10hf_magmom
 _atom_site_hse06_bader_spin_density
 _atom_site_hse06_ddec_charge
 _atom_site_hse06_ddec_spin_density
 _atom_site_hse06_ddec_sum_bond_order
 _atom_site_hse06_magmom
 _atom_site_pbe_bader_charge
 _atom_site_pbe_bader_spin_density
 _atom_site_pbe_cm5_charge
 _atom_site_pbe_ddec_charge
 _atom_site_pbe_ddec_spin_density
 _atom_site_pbe_ddec_sum_bond_order
 _atom_site_pbe_magmom
Cu  Cu0  1  0.29615427  0.07996903  0.11924441  1  0  0.453268  0  2.172899  0  0  0.34533  0  2.691765  0  0  0.333201  0  2.656391  0  0.716707  0  0.549921  0.356016  0  2.713072  0
Cu  Cu1  1  0.79616094  0.92002556  0.88076098  1  0  0.453384  0  2.172677  0  0  0.345425  0  2.69153  0  0  0.333341  0  2.656126  0  0.716709  0  0.549914  0.356105  0  2.71288  0
Cu  Cu2  1  0.29616279  0.57998400  0.38076475  1  0  0.453409  0  2.17263  0  0  0.34548  0  2.691462  0  0  0.333385  0  2.656081  0  0.716614  0  0.549969  0.356156  0  2.712757  0
Cu  Cu3  1  0.79615384  0.42001463  0.61923740  1  0  0.453475  0  2.172709  0  0  0.345546  0  2.691565  0  0  0.333442  0  2.656156  0  0.7166  0  0.550004  0.356237  0  2.712883  0
H  H4  1  0.61681253  0.29809979  0.09764161  1  0  0.06731  0  0.965507  0  0  0.0739  0  1.035047  0  0  0.076294  0  1.033713  0  0.105598  0  0.105046  0.07238  0  1.035653  0
H  H5  1  0.11679449  0.70188672  0.90235678  1  0  0.067447  0  0.965406  0  0  0.073929  0  1.035039  0  0  0.07632  0  1.03371  0  0.105557  0  0.105013  0.072415  0  1.035629  0
H  H6  1  0.61680117  0.79810870  0.40235839  1  0  0.067385  0  0.965322  0  0  0.07394  0  1.034904  0  0  0.076334  0  1.03357  0  0.105661  0  0.105028  0.072424  0  1.0355  0
H  H7  1  0.11678881  0.20189195  0.59764376  1  0  0.067323  0  0.965526  0  0  0.073883  0  1.035086  0  0  0.076276  0  1.033751  0  0.105617  0  0.105008  0.072366  0  1.035683  0
H  H8  1  0.78943982  0.45638457  0.17941579  1  0  0.106527  0  0.966497  0  0  0.114117  0  1.029027  0  0  0.11754  0  1.027912  0  0.11161  0  0.101414  0.111763  0  1.029859  0
H  H9  1  0.28942604  0.54360598  0.82058205  1  0  0.106534  0  0.966521  0  0  0.114061  0  1.029114  0  0  0.117483  0  1.02801  0  0.111506  0  0.10143  0.111711  0  1.029943  0
H  H10  1  0.78944550  0.95638440  0.32058313  1  0  0.10653  0  0.966507  0  0  0.114115  0  1.029047  0  0  0.117536  0  1.027932  0  0.111579  0  0.101397  0.111763  0  1.029881  0
H  H11  1  0.28943314  0.04361929  0.67941849  1  0  0.106522  0  0.966476  0  0  0.11404  0  1.029099  0  0  0.117459  0  1.027987  0  0.111693  0  0.101399  0.11169  0  1.029928  0
H  H12  1  0.70852069  0.45627348  0.31139585  1  0  0.1006  0  0.931118  0  0  0.109157  0  0.994279  0  0  0.112887  0  0.991031  0  0.09285  0  0.10796  0.106437  0  0.996802  0
H  H13  1  0.20851259  0.54372414  0.68860146  1  0  0.100492  0  0.931227  0  0  0.109097  0  0.99434  0  0  0.112828  0  0.99109  0  0.092766  0  0.107957  0.106378  0  0.996859  0
H  H14  1  0.70853205  0.95626825  0.18860307  1  0  0.100614  0  0.931098  0  0  0.109193  0  0.994227  0  0  0.112924  0  0.990977  0  0.092817  0  0.107948  0.106469  0  0.996756  0
H  H15  1  0.20851543  0.04373038  0.81139962  1  0  0.10056  0  0.931204  0  0  0.109159  0  0.994326  0  0  0.11289  0  0.991078  0  0.092853  0  0.107978  0.106441  0  0.996844  0
H  H16  1  0.46003784  0.29713429  0.35574131  1  0  0.108388  0  0.973203  0  0  0.116152  0  1.038101  0  0  0.11935  0  1.037027  0  0.126657  0  0.10292  0.113889  0  1.039089  0
H  H17  1  0.96002605  0.70285727  0.64425761  1  0  0.108353  0  0.973126  0  0  0.116122  0  1.038031  0  0  0.119341  0  1.036933  0  0.126641  0  0.102911  0.113859  0  1.039019  0
H  H18  1  0.46004068  0.79713815  0.14425869  1  0  0.108463  0  0.973116  0  0  0.116219  0  1.038022  0  0  0.119421  0  1.036943  0  0.126853  0  0.102949  0.113956  0  1.039012  0
H  H19  1  0.96002605  0.20286250  0.85574347  1  0  0.108342  0  0.973133  0  0  0.116113  0  1.038041  0  0  0.119342  0  1.036932  0  0.126623  0  0.102905  0.113853  0  1.03903  0
H  H20  1  0.20536650  0.93270434  0.37678092  1  0  0.115741  0  0.956861  0  0  0.123016  0  1.021931  0  0  0.126307  0  1.020973  0  0.110682  0  0.105106  0.120791  0  1.02251  0
H  H21  1  0.70535045  0.06729530  0.62322016  1  0  0.115609  0  0.956873  0  0  0.122898  0  1.021927  0  0  0.126189  0  1.02097  0  0.110789  0  0.10505  0.120672  0  1.022511  0
H  H22  1  0.20535940  0.43270654  0.12321800  1  0  0.115613  0  0.956916  0  0  0.122901  0  1.021986  0  0  0.126191  0  1.021028  0  0.110767  0  0.10505  0.120683  0  1.022542  0
H  H23  1  0.70536039  0.56729613  0.87677769  1  0  0.115658  0  0.956787  0  0  0.122947  0  1.021846  0  0  0.126237  0  1.020892  0  0.110716  0  0.105084  0.120724  0  1.022426  0
H  H24  1  0.02168600  0.96102002  0.49067745  1  0  0.092057  0  0.949288  0  0  0.101832  0  1.008979  0  0  0.104188  0  1.008798  0  0.095544  0  0.102256  0.099573  0  1.010094  0
H  H25  1  0.52167137  0.03898164  0.50932255  1  0  0.092043  0  0.949319  0  0  0.10182  0  1.009009  0  0  0.104177  0  1.008829  0  0.095516  0  0.102266  0.099564  0  1.010124  0
H  H26  1  0.02167464  0.46102424  0.00932202  1  0  0.09211  0  0.949226  0  0  0.101867  0  1.008929  0  0  0.104225  0  1.008745  0  0.095567  0  0.102287  0.099608  0  1.01005  0
H  H27  1  0.52167705  0.53898550  0.99067691  1  0  0.092068  0  0.94928  0  0  0.101792  0  1.009015  0  0  0.104148  0  1.008837  0  0.095444  0  0.102269  0.09954  0  1.010135  0
H  H28  1  0.86165216  0.18726197  0.51487524  1  0  0.094247  0  0.985981  0  0  0.096739  0  1.063445  0  0  0.101397  0  1.060002  0  0.105132  0  0.098519  0.09321  0  1.066252  0
H  H29  1  0.36163838  0.81273869  0.48512261  1  0  0.094184  0  0.986177  0  0  0.096676  0  1.063628  0  0  0.101333  0  1.060186  0  0.104981  0  0.098518  0.093148  0  1.066433  0
H  H30  1  0.86163796  0.68726583  0.98512530  1  0  0.094304  0  0.98607  0  0  0.096754  0  1.063555  0  0  0.101412  0  1.060113  0  0.105038  0  0.098527  0.093225  0  1.06636  0
H  H31  1  0.36163838  0.31274593  0.01487524  1  0  0.094226  0  0.98616  0  0  0.096699  0  1.063634  0  0  0.101355  0  1.060196  0  0.105058  0  0.098518  0.093167  0  1.066441  0
H  H32  1  0.90276154  0.37093360  0.42491727  1  0  0.082908  0  0.947153  0  0  0.090464  0  1.012264  0  0  0.092679  0  1.010951  0  0.13931  0  0.116765  0.088346  0  1.014193  0
H  H33  1  0.40274634  0.62906604  0.57507895  1  0  0.083039  0  0.947079  0  0  0.090534  0  1.012251  0  0  0.092751  0  1.01094  0  0.13938  0  0.116782  0.088415  0  1.01418  0
H  H34  1  0.90274733  0.87093746  0.07508542  1  0  0.082906  0  0.947024  0  0  0.090448  0  1.012162  0  0  0.092664  0  1.010848  0  0.139244  0  0.116756  0.08833  0  1.014089  0
H  H35  1  0.40275628  0.12906824  0.92492212  1  0  0.08289  0  0.947135  0  0  0.090456  0  1.012246  0  0  0.092672  0  1.010932  0  0.139406  0  0.116765  0.088337  0  1.014173  0
H  H36  1  0.06704225  0.87321689  0.20032175  1  0  0.311175  0  0.980053  0  0  0.272193  0  1.075582  0  0  0.284825  0  1.063616  0  0.609576  0  0.290994  0.263173  0  1.08427  0
H  H37  1  0.56703614  0.12677669  0.79967556  1  0  0.311137  0  0.980044  0  0  0.272154  0  1.07558  0  0  0.284786  0  1.063614  0  0.609721  0  0.290983  0.263134  0  1.084267  0
H  H38  1  0.06704225  0.37321909  0.29967340  1  0  0.311254  0  0.979876  0  0  0.27221  0  1.075519  0  0  0.284842  0  1.063554  0  0.60962  0  0.290998  0.26319  0  1.084208  0
H  H39  1  0.56703187  0.62677752  0.70032552  1  0  0.311213  0  0.979994  0  0  0.272191  0  1.075591  0  0  0.284821  0  1.063627  0  0.609744  0  0.290986  0.263172  0  1.084277  0
C  C40  1  0.46229621  0.90936262  0.99781838  1  0  0.288191  0  3.993215  0  0  0.283186  0  4.276692  0  0  0.298876  0  4.29494  0  0.57041  0  0.138493  0.272716  0  4.264578  0
C  C41  1  0.96231282  0.09066025  0.00218054  1  0  0.287911  0  3.993562  0  0  0.282907  0  4.27705  0  0  0.2986  0  4.295304  0  0.570348  0  0.138442  0.272437  0  4.264928  0
C  C42  1  0.46229479  0.40933453  0.50218647  1  0  0.287936  0  3.993205  0  0  0.282936  0  4.2767  0  0  0.298632  0  4.294954  0  0.570062  0  0.138404  0.272462  0  4.26458  0
C  C43  1  0.96230288  0.59066815  0.49781407  1  0  0.287811  0  3.992846  0  0  0.282808  0  4.276365  0  0  0.298505  0  4.294622  0  0.569512  0  0.138342  0.272333  0  4.264246  0
C  C44  1  0.58244842  0.30317272  0.15485853  1  0  0.118525  0  3.734783  0  0  0.090653  0  3.988141  0  0  0.096352  0  4.003179  0  0.423174  0  0.036009  0.08714  0  3.977583  0
C  C45  1  0.08243181  0.69681480  0.84513878  1  0  0.118489  0  3.735059  0  0  0.090711  0  3.988359  0  0  0.096415  0  4.003392  0  0.423377  0  0.036112  0.087206  0  3.977803  0
C  C46  1  0.58244132  0.80318062  0.34514039  1  0  0.118557  0  3.734803  0  0  0.090711  0  3.988142  0  0  0.096414  0  4.003177  0  0.423145  0  0.03606  0.087202  0  3.977585  0
C  C47  1  0.08242755  0.19682205  0.65486068  1  0  0.118678  0  3.734924  0  0  0.09083  0  3.988236  0  0  0.09653  0  4.003273  0  0.42334  0  0.03618  0.087311  0  3.977675  0
C  C48  1  0.67948434  0.39047492  0.20063433  1  0  -0.111119  0  3.71834  0  0  -0.126277  0  3.969818  0  0  -0.130456  0  3.987747  0  -0.014342  0  -0.092155  -0.123935  0  3.958066  0
C  C49  1  0.17947056  0.60951968  0.79936513  1  0  -0.111179  0  3.71873  0  0  -0.126278  0  3.970204  0  0  -0.130463  0  3.988137  0  -0.014188  0  -0.092223  -0.12394  0  3.958449  0
C  C50  1  0.67948292  0.89047474  0.29936621  1  0  -0.111213  0  3.718479  0  0  -0.126382  0  3.969967  0  0  -0.130558  0  3.987892  0  -0.0143  0  -0.092172  -0.124041  0  3.958213  0
C  C51  1  0.17947625  0.10952693  0.70063595  1  0  -0.111068  0  3.718517  0  0  -0.126164  0  3.970008  0  0  -0.130339  0  3.987933  0  -0.014245  0  -0.09214  -0.123826  0  3.958255  0
C  C52  1  0.63570043  0.38900444  0.27402587  1  0  0.005505  0  3.708599  0  0  -0.018157  0  3.971695  0  0  -0.012803  0  3.985297  0  -0.005222  0  -0.072429  -0.021745  0  3.96281  0
C  C53  1  0.13569234  0.61098712  0.72597036  1  0  0.005589  0  3.708533  0  0  -0.018123  0  3.971626  0  0  -0.012765  0  3.985228  0  -0.005213  0  -0.072448  -0.021709  0  3.96274  0
C  C54  1  0.63570753  0.88900527  0.22597144  1  0  0.005517  0  3.708459  0  0  -0.018147  0  3.971532  0  0  -0.012789  0  3.985129  0  -0.00527  0  -0.072428  -0.021733  0  3.962646  0
C  C55  1  0.13569518  0.11100043  0.77403018  1  0  0.005406  0  3.708843  0  0  -0.018309  0  3.971936  0  0  -0.012955  0  3.985546  0  -0.005236  0  -0.072529  -0.021894  0  3.963049  0
C  C56  1  0.49665605  0.30073169  0.29879817  1  0  -0.14615  0  3.718317  0  0  -0.170974  0  3.977445  0  0  -0.175978  0  3.995069  0  -0.078148  0  -0.087756  -0.167808  0  3.966143  0
C  C57  1  0.99664142  0.69926290  0.70120183  1  0  -0.146025  0  3.718319  0  0  -0.170846  0  3.977478  0  0  -0.175867  0  3.995091  0  -0.078166  0  -0.087717  -0.167681  0  3.966173  0
C  C58  1  0.49665037  0.80073253  0.20120345  1  0  -0.146247  0  3.71844  0  0  -0.171079  0  3.977598  0  0  -0.176086  0  3.995217  0  -0.078252  0  -0.087751  -0.167914  0  3.966294  0
C  C59  1  0.99664426  0.19926611  0.79879978  1  0  -0.14601  0  3.718317  0  0  -0.170856  0  3.97743  0  0  -0.17589  0  3.995034  0  -0.077337  0  -0.08773  -0.167696  0  3.966132  0
C  C60  1  0.40014141  0.21924574  0.24925411  1  0  0.179157  0  3.778611  0  0  0.174455  0  4.025326  0  0  0.179688  0  4.043595  0  0.499952  0  0.10542  0.170829  0  4.013503  0
C  C61  1  0.90012820  0.78074279  0.75074373  1  0  0.179134  0  3.778821  0  0  0.174409  0  4.025556  0  0  0.179624  0  4.043861  0  0.499884  0  0.105429  0.170787  0  4.013731  0
C  C62  1  0.40013715  0.71925263  0.25074481  1  0  0.179314  0  3.778794  0  0  0.174592  0  4.025491  0  0  0.179824  0  4.043777  0  0.499884  0  0.10544  0.170972  0  4.013665  0
C  C63  1  0.90012394  0.28074903  0.74925627  1  0  0.179079  0  3.778889  0  0  0.174451  0  4.02549  0  0  0.179688  0  4.043764  0  0.499142  0  0.105456  0.170815  0  4.013668  0
C  C64  1  0.25045714  0.12549104  0.27085098  1  0  0.050197  0  3.690399  0  0  0.033457  0  3.949078  0  0  0.040944  0  3.958497  0  0.559157  0  0.106938  0.029591  0  3.942366  0
C  C65  1  0.75044677  0.87450153  0.72914956  1  0  0.050171  0  3.690499  0  0  0.03344  0  3.949148  0  0  0.040922  0  3.958575  0  0.559198  0  0.107013  0.029567  0  3.942428  0
C  C66  1  0.25045430  0.62549490  0.22914956  1  0  0.049951  0  3.690676  0  0  0.033264  0  3.949309  0  0  0.040739  0  3.958742  0  0.559169  0  0.1069  0.029392  0  3.942596  0
C  C67  1  0.75044251  0.37450676  0.77085044  1  0  0.050146  0  3.690634  0  0  0.033378  0  3.949314  0  0  0.040853  0  3.958741  0  0.559184  0  0.10691  0.02951  0  3.9426  0
C  C68  1  0.15125802  0.13675085  0.34122932  1  0  0.211708  0  3.723275  0  0  0.20896  0  3.964859  0  0  0.215066  0  3.982158  0  0.50202  0  0.128136  0.204584  0  3.953333  0
C  C69  1  0.65124481  0.86324374  0.65876906  1  0  0.211759  0  3.723241  0  0  0.209056  0  3.964758  0  0  0.215166  0  3.982054  0  0.501948  0  0.128138  0.204696  0  3.953204  0
C  C70  1  0.15125660  0.63675471  0.15876960  1  0  0.211819  0  3.723172  0  0  0.209051  0  3.964778  0  0  0.215162  0  3.982074  0  0.502027  0  0.128155  0.204672  0  3.953262  0
C  C71  1  0.65124765  0.36324594  0.84123255  1  0  0.211689  0  3.723191  0  0  0.208917  0  3.964823  0  0  0.215026  0  3.98212  0  0.501916  0  0.128141  0.204556  0  3.953266  0
C  C72  1  0.13821773  0.02873480  0.38964538  1  0  -0.137901  0  3.69063  0  0  -0.157795  0  3.937467  0  0  -0.163243  0  3.956898  0  0.003737  0  -0.079277  -0.15461  0  3.924439  0
C  C73  1  0.63820452  0.97126080  0.61035247  1  0  -0.137867  0  3.690645  0  0  -0.157772  0  3.937467  0  0  -0.163216  0  3.956897  0  0.003331  0  -0.079238  -0.154591  0  3.924435  0
C  C74  1  0.13821347  0.52873866  0.11035300  1  0  -0.13785  0  3.690651  0  0  -0.15775  0  3.937488  0  0  -0.163194  0  3.956914  0  0.003734  0  -0.079248  -0.154561  0  3.924466  0
C  C75  1  0.63820878  0.47126401  0.88964592  1  0  -0.137843  0  3.690572  0  0  -0.157718  0  3.937382  0  0  -0.163163  0  3.956809  0  0.003341  0  -0.079238  -0.154538  0  3.924351  0
C  C76  1  0.03481720  0.04531901  0.45315009  1  0  -0.010472  0  3.737812  0  0  -0.025081  0  3.979306  0  0  -0.022865  0  3.998864  0  -0.089818  0  -0.068189  -0.025939  0  3.965959  0
C  C77  1  0.53480541  0.95468063  0.54685044  1  0  -0.010415  0  3.737842  0  0  -0.025046  0  3.979352  0  0  -0.022832  0  3.99891  0  -0.089391  0  -0.068228  -0.025907  0  3.966008  0
C  C78  1  0.03480868  0.54532186  0.04685098  1  0  -0.010439  0  3.737754  0  0  -0.025047  0  3.979253  0  0  -0.02283  0  3.998806  0  -0.089758  0  -0.068218  -0.02591  0  3.965911  0
C  C79  1  0.53480541  0.45468687  0.95315009  1  0  -0.01046  0  3.737669  0  0  -0.025044  0  3.979182  0  0  -0.022827  0  3.998735  0  -0.08938  0  -0.068232  -0.025915  0  3.965845  0
C  C80  1  0.94676844  0.16896489  0.46678577  1  0  -0.120703  0  3.736386  0  0  -0.130408  0  3.98242  0  0  -0.136506  0  4.002254  0  -0.04254  0  -0.082686  -0.126331  0  3.968757  0
C  C81  1  0.44675325  0.83103475  0.53321099  1  0  -0.120599  0  3.736423  0  0  -0.130254  0  3.982403  0  0  -0.136352  0  4.002238  0  -0.042079  0  -0.08261  -0.126179  0  3.96874  0
C  C82  1  0.94675424  0.66896875  0.03321369  1  0  -0.120899  0  3.7364  0  0  -0.130526  0  3.982413  0  0  -0.136626  0  4.002244  0  -0.041997  0  -0.082707  -0.126448  0  3.96875  0
C  C83  1  0.44675467  0.33103897  0.96678739  1  0  -0.120687  0  3.736402  0  0  -0.130341  0  3.982412  0  0  -0.136441  0  4.002245  0  -0.042104  0  -0.08269  -0.12626  0  3.968748  0
C  C84  1  0.96770166  0.27221706  0.41646510  1  0  0.143795  0  3.686012  0  0  0.111212  0  3.939287  0  0  0.117917  0  3.955731  0  0.489618  0  0.054184  0.107095  0  3.928212  0
C  C85  1  0.46768930  0.72778359  0.58353220  1  0  0.14364  0  3.686198  0  0  0.111053  0  3.939521  0  0  0.117751  0  3.955969  0  0.488848  0  0.054179  0.106936  0  3.928451  0
C  C86  1  0.96769171  0.77221890  0.08353651  1  0  0.143908  0  3.685873  0  0  0.111311  0  3.939179  0  0  0.118017  0  3.955621  0  0.488985  0  0.054264  0.107193  0  3.928107  0
C  C87  1  0.46769072  0.22778781  0.91646942  1  0  0.143795  0  3.686145  0  0  0.111172  0  3.939441  0  0  0.117875  0  3.955885  0  0.488855  0  0.054266  0.107056  0  3.928366  0
S  S88  1  0.51975389  0.82451155  0.92527890  1  0  -0.357104  0  2.360897  0  0  -0.33179  0  2.730502  0  0  -0.344393  0  2.719971  0  0.0297  0  -0.176927  -0.323989  0  2.738561  0
S  S89  1  0.01977278  0.17550728  0.07471894  1  0  -0.356929  0  2.361116  0  0  -0.331638  0  2.730782  0  0  -0.344233  0  2.720249  0  0.029649  0  -0.176921  -0.323841  0  2.738838  0
S  S90  1  0.51974395  0.32449456  0.57472433  1  0  -0.357011  0  2.361256  0  0  -0.331702  0  2.73086  0  0  -0.344298  0  2.720329  0  0.029616  0  -0.176938  -0.323906  0  2.73892  0
S  S91  1  0.01976710  0.67551316  0.42528321  1  0  -0.356879  0  2.361426  0  0  -0.331593  0  2.731097  0  0  -0.344193  0  2.720572  0  0.029747  0  -0.176921  -0.323799  0  2.73915  0
N  N92  1  0.41509634  0.97100226  0.04951442  1  0  -0.513692  0  3.167882  0  0  -0.463313  0  3.499587  0  0  -0.473314  0  3.49983  0  -1.305358  0  -0.443374  -0.45709  0  3.498345  0
N  N93  1  0.91510017  0.02901354  0.95048397  1  0  -0.513541  0  3.167952  0  0  -0.463158  0  3.499643  0  0  -0.47317  0  3.499903  0  -1.305269  0  -0.443303  -0.456937  0  3.498395  0
N  N94  1  0.41508782  0.47098527  0.45048504  1  0  -0.513584  0  3.167509  0  0  -0.463205  0  3.499217  0  0  -0.473217  0  3.499478  0  -1.304942  0  -0.4433  -0.456974  0  3.49796  0
N  N95  1  0.91508313  0.52900528  0.54951873  1  0  -0.513602  0  3.166942  0  0  -0.463232  0  3.498692  0  0  -0.47324  0  3.498945  0  -1.304482  0  -0.443297  -0.45701  0  3.49745  0
N  N96  1  0.44305464  0.22075863  0.17756939  1  0  -0.332127  0  3.318479  0  0  -0.270055  0  3.611047  0  0  -0.27688  0  3.617173  0  -1.216751  0  -0.355923  -0.265634  0  3.606529  0
N  N97  1  0.94303575  0.77923192  0.82243007  1  0  -0.332229  0  3.318705  0  0  -0.270148  0  3.611248  0  0  -0.276974  0  3.61738  0  -1.216716  0  -0.355996  -0.26574  0  3.606736  0
N  N98  1  0.44304328  0.72076653  0.32243061  1  0  -0.332268  0  3.318661  0  0  -0.27019  0  3.611237  0  0  -0.277024  0  3.617377  0  -1.216727  0  -0.355973  -0.265775  0  3.606719  0
N  N99  1  0.94303148  0.27923210  0.67757047  1  0  -0.332286  0  3.318853  0  0  -0.270254  0  3.611425  0  0  -0.277083  0  3.617547  0  -1.216877  0  -0.356041  -0.265815  0  3.606894  0
N  N100  1  0.20719876  0.03449044  0.22216492  1  0  -0.085961  0  3.239062  0  0  -0.046359  0  3.556102  0  0  -0.039466  0  3.554283  0  -0.568456  0  -0.249836  -0.051367  0  3.557333  0
N  N101  1  0.70719549  0.96550516  0.77783347  1  0  -0.086011  0  3.239254  0  0  -0.046413  0  3.556288  0  0  -0.039518  0  3.554474  0  -0.568343  0  -0.249836  -0.051415  0  3.557513  0
N  N102  1  0.20719876  0.53449531  0.27783455  1  0  -0.085997  0  3.23923  0  0  -0.046431  0  3.556263  0  0  -0.039536  0  3.55445  0  -0.568372  0  -0.249858  -0.051431  0  3.557486  0
N  N103  1  0.70719123  0.46550736  0.72216653  1  0  -0.085876  0  3.239424  0  0  -0.046282  0  3.556443  0  0  -0.039384  0  3.554622  0  -0.568335  0  -0.249771  -0.051293  0  3.557677  0
N  N104  1  0.06736183  0.25667107  0.35541471  1  0  -0.326232  0  3.188434  0  0  -0.267019  0  3.431084  0  0  -0.280467  0  3.445391  0  -1.23813  0  -0.297338  -0.258309  0  3.42194  0
N  N105  1  0.56734577  0.74332656  0.64458098  1  0  -0.326281  0  3.188655  0  0  -0.267074  0  3.431222  0  0  -0.280519  0  3.44553  0  -1.237913  0  -0.297466  -0.258368  0  3.422074  0
N  N106  1  0.06735330  0.75667291  0.14458421  1  0  -0.326207  0  3.188452  0  0  -0.267025  0  3.431103  0  0  -0.280473  0  3.445408  0  -1.238132  0  -0.297395  -0.258315  0  3.421962  0
N  N107  1  0.56735003  0.24332674  0.85541956  1  0  -0.326182  0  3.188477  0  0  -0.266978  0  3.431091  0  0  -0.280424  0  3.445395  0  -1.237847  0  -0.297439  -0.258271  0  3.421942  0
O  O108  1  0.06463758  0.94853313  0.24047804  1  0  -0.387911  0  2.12901  0  0  -0.33759  0  2.368932  0  0  -0.361153  0  2.366578  0  -0.732682  0  -0.244182  -0.320768  0  2.37074  0
O  O109  1  0.56463573  0.05146349  0.75951927  1  0  -0.387809  0  2.129146  0  0  -0.337517  0  2.369078  0  0  -0.36109  0  2.366732  0  -0.732819  0  -0.244171  -0.320699  0  2.370889  0
O  O110  1  0.06463758  0.44853836  0.25951981  1  0  -0.387855  0  2.128995  0  0  -0.337523  0  2.368979  0  0  -0.361096  0  2.366633  0  -0.732668  0  -0.244122  -0.320703  0  2.370785  0
O  O111  1  0.56463289  0.55146836  0.74048181  1  0  -0.387967  0  2.129205  0  0  -0.337625  0  2.369134  0  0  -0.361194  0  2.366783  0  -0.732949  0  -0.244196  -0.320806  0  2.370948  0
