# generated using pymatgen
data_ZnH17C28N5O8
_symmetry_space_group_name_H-M   'P 1'
_cell_length_a   9.03517865
_cell_length_b   10.56663072
_cell_length_c   14.62179812
_cell_angle_alpha   76.92222202
_cell_angle_beta   87.38160987
_cell_angle_gamma   68.90181829
_symmetry_Int_Tables_number   1
_chemical_formula_structural   ZnH17C28N5O8
_chemical_formula_sum   'Zn2 H34 C56 N10 O16'
_cell_volume   1267.62313784
_cell_formula_units_Z   2
loop_
 _symmetry_equiv_pos_site_id
 _symmetry_equiv_pos_as_xyz
  1  'x, y, z'
loop_
 _atom_site_type_symbol
 _atom_site_label
 _atom_site_symmetry_multiplicity
 _atom_site_fract_x
 _atom_site_fract_y
 _atom_site_fract_z
 _atom_site_occupancy
 _atom_site_hle17_bader_spin_density
 _atom_site_hle17_ddec_charge
 _atom_site_hle17_ddec_spin_density
 _atom_site_hle17_ddec_sum_bond_order
 _atom_site_hle17_magmom
 _atom_site_hse06_10hf_bader_spin_density
 _atom_site_hse06_10hf_ddec_charge
 _atom_site_hse06_10hf_ddec_spin_density
 _atom_site_hse06_10hf_ddec_sum_bond_order
 _atom_site_hse06_10hf_magmom
 _atom_site_hse06_bader_spin_density
 _atom_site_hse06_ddec_charge
 _atom_site_hse06_ddec_spin_density
 _atom_site_hse06_ddec_sum_bond_order
 _atom_site_hse06_magmom
 _atom_site_pbe_bader_spin_density
 _atom_site_pbe_cm5_charge
 _atom_site_pbe_ddec_charge
 _atom_site_pbe_ddec_spin_density
 _atom_site_pbe_ddec_sum_bond_order
 _atom_site_pbe_magmom
Zn  Zn0  1  0.36267508  0.96652338  0.04136094  1  0  1.055154  0  1.826227  0  0  0.881555  0  2.28877  0  0  0.934447  0  2.224479  0  0  0.681737  0.844564  0  2.332823  0
Zn  Zn1  1  0.63732415  0.03347824  0.95863740  1  0  1.055136  0  1.826363  0  0  0.881451  0  2.288964  0  0  0.934344  0  2.224672  0  0  0.681686  0.844474  0  2.332995  0
H  H2  1  0.02813846  0.65842632  0.12542946  1  0  0.103338  0  0.934709  0  0  0.114735  0  0.995217  0  0  0.118551  0  0.992008  0  0  0.109475  0.111859  0  0.997759  0
H  H3  1  0.97185397  0.34157849  0.87456926  1  0  0.103406  0  0.934631  0  0  0.114784  0  0.995174  0  0  0.118598  0  0.991967  0  0  0.109498  0.11191  0  0.997712  0
H  H4  1  0.07374197  0.38374627  0.39784428  1  0  0.112925  0  0.948914  0  0  0.116567  0  1.022065  0  0  0.120848  0  1.018174  0  0  0.109456  0.113389  0  1.024999  0
H  H5  1  0.92626249  0.61625318  0.60215151  1  0  0.112942  0  0.948903  0  0  0.116581  0  1.022054  0  0  0.120875  0  1.018135  0  0  0.109445  0.113402  0  1.024986  0
H  H6  1  0.61389428  0.68396339  0.28448855  1  0  0.092633  0  0.967544  0  0  0.101825  0  1.035563  0  0  0.105647  0  1.03183  0  0  0.108041  0.099069  0  1.038226  0
H  H7  1  0.38610275  0.31602998  0.71551269  1  0  0.092627  0  0.967608  0  0  0.101857  0  1.035577  0  0  0.10568  0  1.031844  0  0  0.10806  0.099101  0  1.038244  0
H  H8  1  0.68331606  0.26096033  0.18828961  1  0  0.107642  0  0.945274  0  0  0.119784  0  1.002062  0  0  0.122996  0  0.99985  0  0  0.111601  0.117451  0  1.003738  0
H  H9  1  0.31667869  0.73903628  0.81171662  1  0  0.107615  0  0.945356  0  0  0.119723  0  1.002181  0  0  0.122937  0  0.999972  0  0  0.111572  0.11739  0  1.003856  0
H  H10  1  0.61224027  0.39181903  0.31460760  1  0  0.090253  0  0.95025  0  0  0.103693  0  1.003317  0  0  0.105814  0  1.003273  0  0  0.101531  0.102127  0  1.003496  0
H  H11  1  0.38775406  0.60817861  0.68539779  1  0  0.090185  0  0.950279  0  0  0.103652  0  1.003311  0  0  0.105774  0  1.003266  0  0  0.101553  0.102113  0  1.003458  0
H  H12  1  0.32977413  0.49893012  0.35241627  1  0  0.10323  0  0.961345  0  0  0.110419  0  1.028651  0  0  0.114135  0  1.02594  0  0  0.101783  0.107757  0  1.030681  0
H  H13  1  0.67021923  0.50107272  0.64758824  1  0  0.103229  0  0.961416  0  0  0.110434  0  1.028682  0  0  0.114147  0  1.025975  0  0  0.10178  0.107773  0  1.030712  0
H  H14  1  0.01159326  0.09323636  0.05061940  1  0  0.089192  0  0.927447  0  0  0.098287  0  0.988422  0  0  0.101202  0  0.98562  0  0  0.122536  0.096227  0  0.990297  0
H  H15  1  0.98840980  0.90676429  0.94938376  1  0  0.089207  0  0.927386  0  0  0.098288  0  0.988379  0  0  0.101203  0  0.985579  0  0  0.122557  0.096229  0  0.990253  0
H  H16  1  0.80359667  0.06708569  0.16295107  1  0  0.121152  0  0.979311  0  0  0.126361  0  1.045812  0  0  0.129916  0  1.044028  0  0  0.112467  0.123813  0  1.047242  0
H  H17  1  0.19640084  0.93291501  0.83705229  1  0  0.121194  0  0.979309  0  0  0.126409  0  1.045787  0  0  0.129971  0  1.043983  0  0  0.112497  0.123858  0  1.047224  0
H  H18  1  0.17386805  0.73301598  0.34359296  1  0  0.113591  0  0.969451  0  0  0.120951  0  1.035068  0  0  0.12474  0  1.033141  0  0  0.108797  0.118291  0  1.036435  0
H  H19  1  0.82613062  0.26698149  0.65640613  1  0  0.113581  0  0.969457  0  0  0.120927  0  1.035109  0  0  0.124716  0  1.033185  0  0  0.108791  0.118269  0  1.036475  0
H  H20  1  0.36349359  0.76429586  0.21854162  1  0  0.083685  0  0.955546  0  0  0.092115  0  1.018969  0  0  0.094873  0  1.016446  0  0  0.116305  0.090135  0  1.020758  0
H  H21  1  0.63650774  0.23570058  0.78145892  1  0  0.083613  0  0.955673  0  0  0.092051  0  1.019094  0  0  0.094805  0  1.016566  0  0  0.116306  0.09007  0  1.020885  0
H  H22  1  0.39741554  0.07536393  0.26860781  1  0  0.112698  0  0.987164  0  0  0.117642  0  1.057034  0  0  0.120809  0  1.056386  0  0  0.102492  0.115407  0  1.057531  0
H  H23  1  0.60258521  0.92463663  0.73138998  1  0  0.112746  0  0.987136  0  0  0.117682  0  1.057013  0  0  0.120851  0  1.056363  0  0  0.10251  0.11544  0  1.057527  0
H  H24  1  0.10708969  0.14380651  0.29148449  1  0  0.076148  0  0.960748  0  0  0.084685  0  1.023083  0  0  0.087416  0  1.021274  0  0  0.104419  0.082656  0  1.024553  0
H  H25  1  0.89291132  0.85619611  0.70851224  1  0  0.076196  0  0.960761  0  0  0.084716  0  1.023122  0  0  0.087451  0  1.021303  0  0  0.104409  0.082685  0  1.024593  0
H  H26  1  0.17550497  0.87581251  0.55294351  1  0  0.07008  0  0.946329  0  0  0.071554  0  1.02038  0  0  0.075337  0  1.016686  0  0  0.103075  0.068849  0  1.022974  0
H  H27  1  0.82449215  0.12418599  0.44705409  1  0  0.07005  0  0.946362  0  0  0.071508  0  1.020424  0  0  0.075289  0  1.016734  0  0  0.103057  0.068806  0  1.023015  0
H  H28  1  0.47262541  0.80028460  0.54405032  1  0  0.106772  0  0.960097  0  0  0.115731  0  1.024006  0  0  0.11869  0  1.023625  0  0  0.102239  0.113644  0  1.024351  0
H  H29  1  0.52737141  0.19971181  0.45594630  1  0  0.106736  0  0.960198  0  0  0.115703  0  1.024082  0  0  0.118659  0  1.023701  0  0  0.102229  0.113616  0  1.024427  0
H  H30  1  0.98429654  0.74056818  0.45432924  1  0  0.309172  0  0.926486  0  0  0.288197  0  0.990663  0  0  0.29661  0  0.983601  0  0  0.326597  0.282208  0  0.995777  0
H  H31  1  0.01570243  0.25943139  0.54567016  1  0  0.30903  0  0.926686  0  0  0.288108  0  0.990773  0  0  0.296494  0  0.983731  0  0  0.326577  0.282172  0  0.995817  0
H  H32  1  0.07873506  0.37984869  0.99279604  1  0  0.395738  0  0.821553  0  0  0.370824  0  0.894643  0  0  0.380719  0  0.883412  0  0  0.327397  0.363715  0  0.902797  0
H  H33  1  0.92126166  0.62015088  0.00720275  1  0  0.395741  0  0.821595  0  0  0.370805  0  0.894698  0  0  0.380698  0  0.883473  0  0  0.327412  0.363696  0  0.90285  0
H  H34  1  0.58726306  0.65905130  0.42113964  1  0  0.384924  0  0.855543  0  0  0.359517  0  0.931165  0  0  0.367887  0  0.922837  0  0  0.323526  0.353544  0  0.937093  0
H  H35  1  0.41273963  0.34093887  0.57885990  1  0  0.384873  0  0.855515  0  0  0.359448  0  0.931156  0  0  0.367819  0  0.922829  0  0  0.32351  0.353475  0  0.937084  0
C  C36  1  0.70637830  0.79935830  0.12251178  1  0  0.674061  0  3.86881  0  0  0.618243  0  4.16365  0  0  0.654502  0  4.155565  0  0  0.217344  0.59379  0  4.168203  0
C  C37  1  0.29361271  0.20064768  0.87749294  1  0  0.674218  0  3.868708  0  0  0.61821  0  4.16389  0  0  0.65447  0  4.155805  0  0  0.217365  0.593759  0  4.168446  0
C  C38  1  0.81027390  0.68205333  0.19801933  1  0  -0.040004  0  3.718635  0  0  -0.010821  0  3.949999  0  0  -0.019251  0  3.971778  0  0  -0.00927  -0.006172  0  3.936465  0
C  C39  1  0.18973328  0.31795346  0.80197986  1  0  -0.040036  0  3.71867  0  0  -0.010888  0  3.950217  0  0  -0.019316  0  3.971997  0  0  -0.009336  -0.00624  0  3.936688  0
C  C40  1  0.97352027  0.61964782  0.18841218  1  0  -0.091404  0  3.670335  0  0  -0.129589  0  3.921201  0  0  -0.12803  0  3.939678  0  0  -0.071357  -0.130146  0  3.908497  0
C  C41  1  0.02648118  0.38035378  0.81158608  1  0  -0.091507  0  3.670286  0  0  -0.12966  0  3.92115  0  0  -0.128099  0  3.939627  0  0  -0.071334  -0.13022  0  3.908459  0
C  C42  1  0.06859750  0.50949448  0.25887774  1  0  0.057038  0  3.766462  0  0  0.075379  0  4.006497  0  0  0.07259  0  4.0313  0  0  0.001521  0.077155  0  3.989425  0
C  C43  1  0.93140169  0.49050710  0.74111856  1  0  0.057032  0  3.766419  0  0  0.075385  0  4.006429  0  0  0.072593  0  4.031236  0  0  0.001511  0.077161  0  3.989356  0
C  C44  1  0.99994051  0.46793800  0.34236071  1  0  -0.062583  0  3.625475  0  0  -0.099329  0  3.874427  0  0  -0.096776  0  3.891324  0  0  -0.065713  -0.100775  0  3.863011  0
C  C45  1  0.00006327  0.53206043  0.65763597  1  0  -0.062546  0  3.625407  0  0  -0.099274  0  3.874332  0  0  -0.096721  0  3.891234  0  0  -0.065643  -0.10072  0  3.862919  0
C  C46  1  0.83643306  0.53190941  0.35365898  1  0  -0.106378  0  3.822924  0  0  -0.081427  0  4.062496  0  0  -0.09148  0  4.086662  0  0  -0.023267  -0.074976  0  4.046208  0
C  C47  1  0.16357239  0.46808485  0.64633837  1  0  -0.106373  0  3.823077  0  0  -0.081448  0  4.062691  0  0  -0.091503  0  4.086859  0  0  -0.023306  -0.074999  0  4.04641  0
C  C48  1  0.76593960  0.48515586  0.44285812  1  0  0.654045  0  3.789845  0  0  0.604632  0  4.086991  0  0  0.637809  0  4.077412  0  0  0.242382  0.582021  0  4.093327  0
C  C49  1  0.23407609  0.51483533  0.55714554  1  0  0.654091  0  3.789388  0  0  0.604656  0  4.086589  0  0  0.637831  0  4.077011  0  0  0.242389  0.582046  0  4.092924  0
C  C50  1  0.74208222  0.63573281  0.28029199  1  0  -0.070202  0  3.721851  0  0  -0.111911  0  3.972469  0  0  -0.108572  0  3.991096  0  0  -0.075909  -0.113848  0  3.959942  0
C  C51  1  0.25791745  0.36426780  0.71970788  1  0  -0.070257  0  3.722145  0  0  -0.111963  0  3.972783  0  0  -0.108623  0  3.991409  0  0  -0.075939  -0.113904  0  3.960267  0
C  C52  1  0.23894820  0.43634772  0.24291671  1  0  0.044745  0  3.749024  0  0  0.051667  0  3.982766  0  0  0.051289  0  4.008478  0  0  0.002611  0.051808  0  3.965703  0
C  C53  1  0.76104992  0.56365391  0.75708168  1  0  0.044744  0  3.749129  0  0  0.051667  0  3.982847  0  0  0.051292  0  4.00856  0  0  0.00258  0.051809  0  3.965786  0
C  C54  1  0.28046730  0.35906142  0.17296182  1  0  -0.106545  0  3.689321  0  0  -0.096723  0  3.917161  0  0  -0.102253  0  3.938203  0  0  -0.003096  -0.093056  0  3.903262  0
C  C55  1  0.71953331  0.64094225  0.82703542  1  0  -0.106464  0  3.689306  0  0  -0.09658  0  3.917134  0  0  -0.102119  0  3.938191  0  0  -0.003031  -0.092918  0  3.903232  0
C  C56  1  0.15220224  0.34670166  0.11813096  1  0  0.664672  0  3.804963  0  0  0.611237  0  4.116412  0  0  0.644278  0  4.106067  0  0  0.231831  0.588557  0  4.123021  0
C  C57  1  0.84779795  0.65330305  0.88186611  1  0  0.664449  0  3.805055  0  0  0.610883  0  4.11668  0  0  0.643928  0  4.106337  0  0  0.23171  0.588222  0  4.123254  0
C  C58  1  0.44110464  0.29215212  0.15499271  1  0  -0.048409  0  3.700521  0  0  -0.033969  0  3.934344  0  0  -0.039312  0  3.95426  0  0  -0.003618  -0.030663  0  3.921175  0
C  C59  1  0.55889770  0.70784747  0.84500929  1  0  -0.048379  0  3.700462  0  0  -0.033957  0  3.934288  0  0  -0.039298  0  3.954207  0  0  -0.003631  -0.030652  0  3.921115  0
C  C60  1  0.48279124  0.18789929  0.09399317  1  0  0.671643  0  3.868219  0  0  0.616406  0  4.165353  0  0  0.65235  0  4.156436  0  0  0.220621  0.592001  0  4.170682  0
C  C61  1  0.51719887  0.81210041  0.90600927  1  0  0.671593  0  3.868105  0  0  0.61634  0  4.165245  0  0  0.652284  0  4.156327  0  0  0.220607  0.591946  0  4.170558  0
C  C62  1  0.55936512  0.30915143  0.20383125  1  0  -0.049467  0  3.702615  0  0  -0.079002  0  3.955037  0  0  -0.078067  0  3.972609  0  0  -0.071859  -0.079555  0  3.943263  0
C  C63  1  0.44062980  0.69085040  0.79617542  1  0  -0.049566  0  3.7026  0  0  -0.07908  0  3.95506  0  0  -0.078152  0  3.972639  0  0  -0.071879  -0.079632  0  3.943294  0
C  C64  1  0.51876896  0.38321661  0.27465588  1  0  -0.049559  0  3.753505  0  0  -0.062396  0  4.007482  0  0  -0.063736  0  4.02719  0  0  -0.082929  -0.061517  0  3.994143  0
C  C65  1  0.48122791  0.61678313  0.72535109  1  0  -0.049264  0  3.753429  0  0  -0.06211  0  4.007374  0  0  -0.06345  0  4.027083  0  0  -0.082869  -0.061254  0  3.994031  0
C  C66  1  0.36020487  0.44398869  0.29552387  1  0  -0.099389  0  3.716442  0  0  -0.124744  0  3.974987  0  0  -0.126103  0  3.993917  0  0  -0.084136  -0.123817  0  3.962305  0
C  C67  1  0.63979153  0.55601203  0.70448021  1  0  -0.099548  0  3.716712  0  0  -0.124917  0  3.975261  0  0  -0.126277  0  3.994191  0  0  -0.084165  -0.123993  0  3.962593  0
C  C68  1  0.04172525  0.01393270  0.11594991  1  0  0.14789  0  3.669128  0  0  0.114682  0  3.924302  0  0  0.12229  0  3.940562  0  0  0.057247  0.109904  0  3.912848  0
C  C69  1  0.95827376  0.98606692  0.88405221  1  0  0.14787  0  3.669219  0  0  0.114643  0  3.924368  0  0  0.12225  0  3.940633  0  0  0.057183  0.109868  0  3.912909  0
C  C70  1  0.92702956  0.00117177  0.17983503  1  0  -0.113217  0  3.659001  0  0  -0.135229  0  3.906532  0  0  -0.140782  0  3.924656  0  0  -0.068737  -0.131502  0  3.894133  0
C  C71  1  0.07296693  0.99882576  0.82016618  1  0  -0.113322  0  3.659101  0  0  -0.135385  0  3.906695  0  0  -0.140939  0  3.924821  0  0  -0.068763  -0.131656  0  3.894292  0
C  C72  1  0.97161098  0.90082238  0.26437842  1  0  0.057684  0  3.770655  0  0  0.071913  0  4.00451  0  0  0.075022  0  4.024031  0  0  0.022598  0.069947  0  3.991045  0
C  C73  1  0.02838701  0.09917408  0.73562156  1  0  0.057714  0  3.770602  0  0  0.071967  0  4.0044  0  0  0.075084  0  4.023926  0  0  0.022548  0.069999  0  3.990934  0
C  C74  1  0.13173849  0.81321526  0.27935771  1  0  -0.142303  0  3.706461  0  0  -0.165983  0  3.95943  0  0  -0.173058  0  3.98126  0  0  -0.079417  -0.161313  0  3.944761  0
C  C75  1  0.86826020  0.18678223  0.72064206  1  0  -0.14233  0  3.706512  0  0  -0.166012  0  3.959487  0  0  -0.173096  0  3.981324  0  0  -0.079425  -0.161342  0  3.944822  0
C  C76  1  0.23840286  0.83034906  0.21086206  1  0  0.128659  0  3.694427  0  0  0.099138  0  3.943192  0  0  0.105475  0  3.962152  0  0  0.047192  0.094899  0  3.930526  0
C  C77  1  0.76159653  0.16964947  0.78913818  1  0  0.128795  0  3.694518  0  0  0.099221  0  3.943271  0  0  0.105567  0  3.962223  0  0  0.04722  0.094979  0  3.930615  0
C  C78  1  0.85032251  0.88677769  0.33085501  1  0  0.30776  0  3.761261  0  0  0.274578  0  4.032441  0  0  0.287032  0  4.047003  0  0  0.229809  0.266579  0  4.022086  0
C  C79  1  0.14967618  0.11321982  0.66914544  1  0  0.30777  0  3.761178  0  0  0.274604  0  4.032302  0  0  0.287055  0  4.046867  0  0  0.22982  0.266609  0  4.02195  0
C  C80  1  0.63033213  0.89556474  0.39264667  1  0  0.25628  0  3.829364  0  0  0.240562  0  4.102552  0  0  0.249983  0  4.118574  0  0  0.205239  0.234428  0  4.091314  0
C  C81  1  0.36966655  0.10443275  0.60735310  1  0  0.255962  0  3.829546  0  0  0.240365  0  4.102683  0  0  0.249783  0  4.118708  0  0  0.205182  0.234232  0  4.091442  0
C  C82  1  0.45930759  0.93271209  0.40466143  1  0  0.024978  0  3.812001  0  0  0.043504  0  4.037562  0  0  0.044848  0  4.059492  0  0  -0.001344  0.042698  0  4.022523  0
C  C83  1  0.54068692  0.06728750  0.59533744  1  0  0.02524  0  3.811719  0  0  0.043561  0  4.037513  0  0  0.044907  0  4.059442  0  0  -0.001348  0.042754  0  4.022477  0
C  C84  1  0.35325047  0.03050803  0.33339720  1  0  -0.137252  0  3.689399  0  0  -0.159134  0  3.935843  0  0  -0.165485  0  3.957749  0  0  -0.089995  -0.154887  0  3.921202  0
C  C85  1  0.64674957  0.96949149  0.66660011  1  0  -0.137307  0  3.689353  0  0  -0.159158  0  3.935876  0  0  -0.165512  0  3.957786  0  0  -0.089979  -0.154912  0  3.921232  0
C  C86  1  0.19092175  0.06697165  0.34628460  1  0  0.105343  0  3.752549  0  0  0.083403  0  4.013263  0  0  0.087719  0  4.031358  0  0  0.032106  0.080574  0  4.001181  0
C  C87  1  0.80907817  0.93303100  0.65371353  1  0  0.1053  0  3.752485  0  0  0.083393  0  4.013155  0  0  0.087707  0  4.031254  0  0  0.032116  0.080567  0  4.001071  0
C  C88  1  0.23064670  0.91706355  0.49104143  1  0  0.122771  0  3.740455  0  0  0.096585  0  4.010106  0  0  0.101954  0  4.02655  0  0  0.03253  0.093249  0  3.998597  0
C  C89  1  0.76934849  0.08293706  0.50895656  1  0  0.122834  0  3.740433  0  0  0.096665  0  4.010062  0  0  0.102034  0  4.026507  0  0  0.032559  0.093328  0  3.998555  0
C  C90  1  0.39545814  0.87485999  0.48573598  1  0  -0.167373  0  3.719263  0  0  -0.185318  0  3.961463  0  0  -0.191469  0  3.982885  0  0  -0.095278  -0.181099  0  3.946715  0
C  C91  1  0.60453648  0.12513646  0.51426207  1  0  -0.167443  0  3.719234  0  0  -0.185324  0  3.961478  0  0  -0.19147  0  3.982895  0  0  -0.095296  -0.181106  0  3.946732  0
N  N92  1  0.19532736  0.92996770  0.13066977  1  0  -0.318167  0  3.269933  0  0  -0.23585  0  3.542534  0  0  -0.254894  0  3.556547  0  0  -0.328606  -0.222976  0  3.532862  0
N  N93  1  0.80467051  0.07003191  0.86933103  1  0  -0.318151  0  3.269997  0  0  -0.235721  0  3.542478  0  0  -0.254763  0  3.556488  0  0  -0.328565  -0.222851  0  3.53281  0
N  N94  1  0.69351832  0.94875834  0.31337952  1  0  -0.432006  0  2.912364  0  0  -0.404857  0  3.181871  0  0  -0.419976  0  3.196082  0  0  -0.322005  -0.39456  0  3.17188  0
N  N95  1  0.30648038  0.05123917  0.68662093  1  0  -0.431921  0  2.912411  0  0  -0.404772  0  3.181811  0  0  -0.41989  0  3.196024  0  0  -0.321988  -0.394474  0  3.171818  0
N  N96  1  0.87782008  0.80119963  0.41785712  1  0  -0.209466  0  3.462477  0  0  -0.149994  0  3.70593  0  0  -0.164297  0  3.723707  0  0  -0.257934  -0.140378  0  3.693856  0
N  N97  1  0.12218014  0.19879682  0.58214347  1  0  -0.209452  0  3.462535  0  0  -0.149986  0  3.705959  0  0  -0.164266  0  3.723752  0  0  -0.257936  -0.140413  0  3.693829  0
N  N98  1  0.74057529  0.80405808  0.45839300  1  0  -0.270039  0  2.883996  0  0  -0.262351  0  3.1611  0  0  -0.270072  0  3.177008  0  0  -0.221961  -0.256966  0  3.150248  0
N  N99  1  0.25942451  0.19593942  0.54160741  1  0  -0.269863  0  2.884015  0  0  -0.262228  0  3.161104  0  0  -0.26994  0  3.177002  0  0  -0.22191  -0.256842  0  3.150266  0
N  N100  1  0.12856464  0.01166489  0.42317901  1  0  -0.309913  0  3.072371  0  0  -0.27871  0  3.350969  0  0  -0.288847  0  3.366257  0  0  -0.323793  -0.271635  0  3.34035  0
N  N101  1  0.87143374  0.98833879  0.57681764  1  0  -0.309941  0  3.07222  0  0  -0.278736  0  3.350794  0  0  -0.288871  0  3.366083  0  0  -0.32379  -0.271661  0  3.340175  0
O  O102  1  0.55856974  0.82239824  0.12544998  1  0  -0.628283  0  2.0774  0  0  -0.560976  0  2.337583  0  0  -0.590107  0  2.324171  0  0  -0.306075  -0.540622  0  2.345857  0
O  O103  1  0.44143895  0.17760747  0.87454797  1  0  -0.628482  0  2.077029  0  0  -0.561029  0  2.33724  0  0  -0.590169  0  2.323836  0  0  -0.306141  -0.540659  0  2.345482  0
O  O104  1  0.77496264  0.86546865  0.06268455  1  0  -0.633265  0  2.057953  0  0  -0.569317  0  2.323879  0  0  -0.599191  0  2.312692  0  0  -0.309661  -0.548526  0  2.330837  0
O  O105  1  0.22505029  0.13454333  0.93731624  1  0  -0.633137  0  2.058393  0  0  -0.5692  0  2.324532  0  0  -0.599069  0  2.313344  0  0  -0.309596  -0.548412  0  2.331492  0
O  O106  1  0.04671007  0.30541851  0.15107892  1  0  -0.525826  0  1.915948  0  0  -0.490044  0  2.12444  0  0  -0.509535  0  2.117072  0  0  -0.27963  -0.476489  0  2.129014  0
O  O107  1  0.95328684  0.69459459  0.84891954  1  0  -0.525654  0  1.91605  0  0  -0.489824  0  2.124601  0  0  -0.509318  0  2.117235  0  0  -0.279477  -0.476278  0  2.129167  0
O  O108  1  0.16072761  0.39689446  0.02466302  1  0  -0.539238  0  2.064002  0  0  -0.494761  0  2.275884  0  0  -0.514548  0  2.261692  0  0  -0.335569  -0.480925  0  2.285507  0
O  O109  1  0.83927286  0.60310403  0.97533514  1  0  -0.539237  0  2.063955  0  0  -0.494702  0  2.275929  0  0  -0.514488  0  2.261737  0  0  -0.335642  -0.48087  0  2.285538  0
O  O110  1  0.38985296  0.12050298  0.09955826  1  0  -0.641566  0  2.127388  0  0  -0.573811  0  2.392804  0  0  -0.603817  0  2.381127  0  0  -0.303933  -0.55286  0  2.399989  0
O  O111  1  0.61015217  0.87950074  0.90044291  1  0  -0.641578  0  2.127046  0  0  -0.573769  0  2.392398  0  0  -0.60378  0  2.380724  0  0  -0.303928  -0.552818  0  2.399576  0
O  O112  1  0.60615794  0.17024267  0.04549091  1  0  -0.61159  0  2.018813  0  0  -0.546127  0  2.267581  0  0  -0.574365  0  2.253811  0  0  -0.310659  -0.526497  0  2.276392  0
O  O113  1  0.39384910  0.82975893  0.95450919  1  0  -0.611564  0  2.019091  0  0  -0.546072  0  2.267839  0  0  -0.574309  0  2.254065  0  0  -0.31063  -0.526447  0  2.27665  0
O  O114  1  0.83254986  0.37571204  0.50067431  1  0  -0.529735  0  1.996297  0  0  -0.486323  0  2.219464  0  0  -0.506791  0  2.210965  0  0  -0.268356  -0.472286  0  2.225134  0
O  O115  1  0.16746927  0.62428426  0.49932558  1  0  -0.529819  0  1.995855  0  0  -0.486382  0  2.219021  0  0  -0.506865  0  2.210532  0  0  -0.268347  -0.472325  0  2.224691  0
O  O116  1  0.61895260  0.56494594  0.46116321  1  0  -0.512666  0  2.11154  0  0  -0.467634  0  2.328966  0  0  -0.486921  0  2.31539  0  0  -0.322373  -0.454264  0  2.338217  0
O  O117  1  0.38106489  0.43504626  0.53883952  1  0  -0.512631  0  2.111359  0  0  -0.467543  0  2.328766  0  0  -0.486837  0  2.315211  0  0  -0.322368  -0.454165  0  2.338  0
