# generated using pymatgen
data_AgH20C26(NO)3
_symmetry_space_group_name_H-M   'P 1'
_cell_length_a   9.24012734
_cell_length_b   9.30517310
_cell_length_c   27.44864252
_cell_angle_alpha   90.00048102
_cell_angle_beta   89.99998479
_cell_angle_gamma   104.44683280
_symmetry_Int_Tables_number   1
_chemical_formula_structural   AgH20C26(NO)3
_chemical_formula_sum   'Ag4 H80 C104 N12 O12'
_cell_volume   2285.43512848
_cell_formula_units_Z   4
loop_
 _symmetry_equiv_pos_site_id
 _symmetry_equiv_pos_as_xyz
  1  'x, y, z'
loop_
 _atom_site_type_symbol
 _atom_site_label
 _atom_site_symmetry_multiplicity
 _atom_site_fract_x
 _atom_site_fract_y
 _atom_site_fract_z
 _atom_site_occupancy
 _atom_site_pbe_bader_charge
 _atom_site_pbe_bader_spin_density
 _atom_site_pbe_cm5_charge
 _atom_site_pbe_ddec_charge
 _atom_site_pbe_ddec_spin_density
 _atom_site_pbe_ddec_sum_bond_order
 _atom_site_pbe_magmom
Ag  Ag0  1  0.78332693  0.47001799  0.90616348  1  0.586999  0  0.474771  0.346953  0  1.896665  0
Ag  Ag1  1  0.21667328  0.02998123  0.40616438  1  0.587007  0  0.47477  0.346971  0  1.896658  0
Ag  Ag2  1  0.21666955  0.52997845  0.09383562  1  0.58696  0  0.474765  0.346961  0  1.896711  0
Ag  Ag3  1  0.78332771  0.97002405  0.59383618  1  0.58701  0  0.474763  0.346948  0  1.896695  0
H  H4  1  0.25965676  0.36138508  0.92524589  1  0.142353  0  0.102238  0.116864  0  1.053897  0
H  H5  1  0.74033552  0.13861699  0.42524670  1  0.142313  0  0.10223  0.116867  0  1.053792  0
H  H6  1  0.74034256  0.63861800  0.07475539  1  0.142314  0  0.102252  0.116917  0  1.053823  0
H  H7  1  0.25965861  0.86138283  0.57475423  1  0.142279  0  0.102222  0.116803  0  1.053882  0
H  H8  1  0.51217961  0.76517470  0.82138813  1  0.092596  0  0.099045  0.106103  0  1.045992  0
H  H9  1  0.48782404  0.73482032  0.32138522  1  0.092641  0  0.099038  0.106026  0  1.046007  0
H  H10  1  0.48782108  0.23482947  0.17861097  1  0.092424  0  0.099014  0.105997  0  1.045991  0
H  H11  1  0.51217420  0.26518277  0.67861497  1  0.092674  0  0.099037  0.106047  0  1.045936  0
H  H12  1  0.44404512  0.86109279  0.74194864  1  0.055153  0  0.100339  0.101845  0  0.994209  0
H  H13  1  0.55596445  0.63890785  0.24194618  1  0.055345  0  0.10034  0.101826  0  0.994255  0
H  H14  1  0.55595528  0.13891027  0.25805046  1  0.055181  0  0.100339  0.101878  0  0.99418  0
H  H15  1  0.44403232  0.36108970  0.75805474  1  0.055384  0  0.100336  0.101846  0  0.994208  0
H  H16  1  0.20362134  0.73806199  0.70207073  1  0.09959  0  0.097229  0.098084  0  1.056425  0
H  H17  1  0.79638604  0.76194655  0.20206897  1  0.099576  0  0.097203  0.09805  0  1.05644  0
H  H18  1  0.79637690  0.26194110  0.29792910  1  0.099607  0  0.097202  0.098074  0  1.056365  0
H  H19  1  0.20361024  0.23805323  0.79793123  1  0.099571  0  0.097201  0.098051  0  1.056425  0
H  H20  1  0.02425838  0.52754853  0.74278502  1  0.069638  0  0.102368  0.110359  0  1.005309  0
H  H21  1  0.97574630  0.97246224  0.24278639  1  0.07007  0  0.102336  0.110387  0  1.005229  0
H  H22  1  0.97573927  0.47245235  0.25721590  1  0.070122  0  0.10235  0.110335  0  1.005252  0
H  H23  1  0.02424901  0.02754202  0.75721381  1  0.069985  0  0.102363  0.110446  0  1.005174  0
H  H24  1  0.06454096  0.24419620  0.96035458  1  0.089127  0  0.098771  0.109151  0  1.029367  0
H  H25  1  0.93545358  0.25581455  0.46035387  1  0.089204  0  0.098779  0.10914  0  1.029486  0
H  H26  1  0.93545503  0.75580247  0.03964780  1  0.089122  0  0.098752  0.109117  0  1.029397  0
H  H27  1  0.06453692  0.74419200  0.53964596  1  0.08904  0  0.098769  0.109127  0  1.029439  0
H  H28  1  0.88697820  0.01470731  0.98840733  1  0.05658  0  0.093625  0.087777  0  1.041348  0
H  H29  1  0.11302690  0.48529846  0.48840881  1  0.056529  0  0.09364  0.087827  0  1.04125  0
H  H30  1  0.11302220  0.98528350  0.01159213  1  0.05656  0  0.093626  0.087799  0  1.041295  0
H  H31  1  0.88697056  0.51470576  0.51159029  1  0.056526  0  0.093652  0.087802  0  1.041254  0
H  H32  1  0.71551774  0.85057562  0.92919139  1  0.09601  0  0.100054  0.106602  0  1.02567  0
H  H33  1  0.28448869  0.64942220  0.42919299  1  0.095884  0  0.100036  0.106601  0  1.025636  0
H  H34  1  0.28448785  0.14941845  0.07080662  1  0.095931  0  0.100054  0.106586  0  1.025665  0
H  H35  1  0.71551240  0.35057528  0.57080611  1  0.095845  0  0.100061  0.106616  0  1.025655  0
H  H36  1  0.72082285  0.92254446  0.84245387  1  0.069975  0  0.097635  0.096611  0  1.012177  0
H  H37  1  0.27917789  0.57744782  0.34245600  1  0.069954  0  0.097611  0.096599  0  1.012249  0
H  H38  1  0.27918128  0.07745632  0.15754487  1  0.069984  0  0.097624  0.096604  0  1.012177  0
H  H39  1  0.72082310  0.42254521  0.65754311  1  0.069018  0  0.097624  0.096604  0  1.012251  0
H  H40  1  0.89643762  0.15847266  0.81406012  1  0.079927  0  0.098709  0.098682  0  1.025634  0
H  H41  1  0.10355972  0.34152752  0.31406046  1  0.079952  0  0.098708  0.098682  0  1.025638  0
H  H42  1  0.10356151  0.84153376  0.18594081  1  0.079841  0  0.098727  0.098674  0  1.025695  0
H  H43  1  0.89643520  0.65847117  0.68594083  1  0.079845  0  0.098721  0.098657  0  1.025577  0
H  H44  1  0.92120760  0.72173043  0.83565069  1  0.084743  0  0.124093  0.099386  0  0.965031  0
H  H45  1  0.07879183  0.77826503  0.33565085  1  0.084764  0  0.124116  0.099373  0  0.965077  0
H  H46  1  0.07878663  0.27827384  0.16434950  1  0.084786  0  0.124129  0.09946  0  0.964993  0
H  H47  1  0.92121396  0.22173795  0.66434898  1  0.084814  0  0.124152  0.099477  0  0.965031  0
H  H48  1  0.13717939  0.94308286  0.83192918  1  0.096791  0  0.107215  0.113174  0  1.027115  0
H  H49  1  0.86281844  0.55691475  0.33193010  1  0.096799  0  0.107231  0.11319  0  1.027121  0
H  H50  1  0.86281885  0.05692023  0.16807174  1  0.096654  0  0.107215  0.113194  0  1.027113  0
H  H51  1  0.13718950  0.44308820  0.66807046  1  0.096849  0  0.107236  0.113156  0  1.027144  0
H  H52  1  0.28010845  0.80671565  0.97071216  1  0.086983  0  0.108475  0.110626  0  1.031743  0
H  H53  1  0.71990058  0.69329214  0.47071422  1  0.086985  0  0.108452  0.110593  0  1.031784  0
H  H54  1  0.71989607  0.19327844  0.02928621  1  0.086909  0  0.108448  0.110576  0  1.031809  0
H  H55  1  0.28010306  0.30671088  0.52928562  1  0.086923  0  0.108451  0.110599  0  1.031781  0
H  H56  1  0.06050642  0.59072447  0.96839590  1  0.08515  0  0.120266  0.093554  0  0.988123  0
H  H57  1  0.93950229  0.90928215  0.46839600  1  0.085101  0  0.120211  0.093518  0  0.988252  0
H  H58  1  0.93949221  0.40927193  0.03160356  1  0.085193  0  0.120231  0.093496  0  0.988189  0
H  H59  1  0.06050164  0.09072198  0.53160274  1  0.085218  0  0.120259  0.093535  0  0.988167  0
H  H60  1  0.57159118  0.27799610  0.97894897  1  0.163234  0  0.118177  0.093364  0  1.034581  0
H  H61  1  0.42841239  0.22200387  0.47895003  1  0.163427  0  0.118135  0.093298  0  1.034644  0
H  H62  1  0.42840833  0.72199138  0.02105086  1  0.163202  0  0.118164  0.093355  0  1.034605  0
H  H63  1  0.57159095  0.77799804  0.52105016  1  0.163327  0  0.118147  0.09333  0  1.034611  0
H  H64  1  0.35636499  0.05864265  0.98058189  1  0.088  0  0.111064  0.117668  0  1.018362  0
H  H65  1  0.64363780  0.44135849  0.48058393  1  0.087929  0  0.111065  0.11757  0  1.018332  0
H  H66  1  0.64363560  0.94134482  0.01941721  1  0.088048  0  0.111037  0.117577  0  1.018385  0
H  H67  1  0.35636818  0.55864115  0.51941627  1  0.087954  0  0.11103  0.117558  0  1.018377  0
H  H68  1  0.39432848  0.03358747  0.82384405  1  0.08679  0  0.108437  0.114513  0  1.026396  0
H  H69  1  0.60567047  0.46641071  0.32384616  1  0.086892  0  0.108374  0.114394  0  1.026588  0
H  H70  1  0.60566692  0.96640898  0.17615432  1  0.086836  0  0.108402  0.114466  0  1.026469  0
H  H71  1  0.39433630  0.53358780  0.67615476  1  0.086889  0  0.10838  0.114401  0  1.026534  0
H  H72  1  0.61376630  0.25102822  0.82892438  1  0.119507  0  0.121868  0.090585  0  0.98141  0
H  H73  1  0.38623112  0.24897235  0.32892589  1  0.119565  0  0.121862  0.090558  0  0.981408  0
H  H74  1  0.38622891  0.74897157  0.17107472  1  0.119475  0  0.121863  0.090594  0  0.981433  0
H  H75  1  0.61377487  0.75102729  0.67107467  1  0.119471  0  0.121875  0.090568  0  0.981401  0
H  H76  1  0.63973499  0.60301784  0.97429637  1  0.628752  0  0.269025  0.360332  0  0.993532  0
H  H77  1  0.36027151  0.89698451  0.47429685  1  0.628635  0  0.268952  0.360253  0  0.993643  0
H  H78  1  0.36027080  0.39698514  0.02570273  1  0.628659  0  0.268972  0.36028  0  0.993613  0
H  H79  1  0.63972830  0.10301633  0.52570444  1  0.628719  0  0.268991  0.360316  0  0.993549  0
H  H80  1  0.66029569  0.49932812  0.01656507  1  0.601966  0  0.271493  0.360986  0  0.992317  0
H  H81  1  0.33971179  0.00067634  0.51656615  1  0.601838  0  0.271539  0.361045  0  0.992215  0
H  H82  1  0.33970765  0.50067379  0.98343403  1  0.60188  0  0.271545  0.361033  0  0.992219  0
H  H83  1  0.66028939  0.99932560  0.48343550  1  0.601919  0  0.271476  0.360969  0  0.992331  0
C  C84  1  0.33968109  0.53232398  0.87244680  1  -0.046556  0  0.000831  -0.016014  0  3.915632  0
C  C85  1  0.66031414  0.96768031  0.37244709  1  -0.046635  0  0.000834  -0.015838  0  3.915821  0
C  C86  1  0.66032009  0.46767795  0.12755376  1  -0.046439  0  0.000798  -0.015911  0  3.915721  0
C  C87  1  0.33968166  0.03232171  0.62755420  1  -0.046521  0  0.000786  -0.016061  0  3.915743  0
C  C88  1  0.30756130  0.59284241  0.82715576  1  -0.016337  0  -0.007317  0.012105  0  3.957751  0
C  C89  1  0.69243769  0.90715952  0.32715551  1  -0.016616  0  -0.007284  0.012016  0  3.957755  0
C  C90  1  0.69244096  0.40715951  0.17284371  1  -0.016285  0  -0.007322  0.011964  0  3.95787  0
C  C91  1  0.30755536  0.09284031  0.67284469  1  -0.01626  0  -0.007316  0.01211  0  3.957882  0
C  C92  1  0.16655823  0.52524852  0.80477824  1  0.463929  0  0.103614  0.195366  0  4.052457  0
C  C93  1  0.83343788  0.97475063  0.30477635  1  0.463849  0  0.103552  0.195305  0  4.052512  0
C  C94  1  0.83344374  0.47475229  0.19522341  1  0.463786  0  0.103583  0.195398  0  4.05228  0
C  C95  1  0.16655732  0.02524917  0.69522348  1  0.46376  0  0.103584  0.195435  0  4.052397  0
C  C96  1  0.10035073  0.35070943  0.86614096  1  0.521519  0  0.115446  0.198403  0  4.065503  0
C  C97  1  0.89964259  0.14929218  0.36614214  1  0.520999  0  0.115422  0.198437  0  4.065347  0
C  C98  1  0.89964909  0.64929141  0.13385996  1  0.521682  0  0.115467  0.198434  0  4.065431  0
C  C99  1  0.10035212  0.85070986  0.63385842  1  0.521429  0  0.115432  0.198375  0  4.065557  0
C  C100  1  0.23656338  0.41099627  0.89111058  1  -0.030123  0  -0.092873  -0.203581  0  3.926974  0
C  C101  1  0.76343381  0.08900372  0.39110905  1  -0.030062  0  -0.092874  -0.203723  0  3.927301  0
C  C102  1  0.76343948  0.58900787  0.10888961  1  -0.030074  0  -0.09292  -0.203736  0  3.926962  0
C  C103  1  0.23655865  0.91099389  0.60889005  1  -0.030055  0  -0.092814  -0.203445  0  3.926997  0
C  C104  1  0.48481745  0.59569026  0.89920668  1  1.607159  0  0.198392  0.568804  0  4.232585  0
C  C105  1  0.51518538  0.90431017  0.39920461  1  1.607358  0  0.198334  0.568669  0  4.232581  0
C  C106  1  0.51518697  0.40431163  0.10079279  1  1.606942  0  0.198439  0.568798  0  4.232636  0
C  C107  1  0.48481385  0.09568846  0.60079558  1  1.607384  0  0.19837  0.568741  0  4.232572  0
C  C108  1  0.40583970  0.71530790  0.80390596  1  -0.036706  0  -0.093179  -0.125628  0  3.996405  0
C  C109  1  0.59416318  0.78469224  0.30390428  1  -0.036328  0  -0.093229  -0.12561  0  3.996492  0
C  C110  1  0.59416502  0.28469509  0.19609350  1  -0.036579  0  -0.093083  -0.125316  0  3.996322  0
C  C111  1  0.40582958  0.21530648  0.69609701  1  -0.036877  0  -0.093205  -0.125667  0  3.996528  0
C  C112  1  0.36817606  0.76685829  0.75976797  1  -0.09648  0  -0.098446  -0.097614  0  4.029903  0
C  C113  1  0.63182617  0.73314738  0.25976541  1  -0.097143  0  -0.098407  -0.097462  0  4.030062  0
C  C114  1  0.63182356  0.23314589  0.24023149  1  -0.096464  0  -0.098475  -0.09773  0  4.030069  0
C  C115  1  0.36816208  0.26685475  0.74023369  1  -0.096924  0  -0.098351  -0.097455  0  4.030253  0
C  C116  1  0.23081857  0.69793929  0.73716968  1  -0.073776  0  -0.097054  -0.07585  0  4.027727  0
C  C117  1  0.76918166  0.80206694  0.23716766  1  -0.073399  0  -0.096994  -0.075841  0  4.027723  0
C  C118  1  0.76917889  0.30206493  0.26283015  1  -0.073743  0  -0.097052  -0.075887  0  4.0277  0
C  C119  1  0.23081462  0.19793284  0.76283180  1  -0.073362  0  -0.096993  -0.07578  0  4.027677  0
C  C120  1  0.13144761  0.58111461  0.75938191  1  -0.046282  0  -0.092534  -0.167997  0  3.969267  0
C  C121  1  0.86855168  0.91889222  0.25938204  1  -0.046737  0  -0.092472  -0.167993  0  3.969216  0
C  C122  1  0.86854848  0.41888852  0.24061792  1  -0.046822  0  -0.092464  -0.167935  0  3.969195  0
C  C123  1  0.13143852  0.08110097  0.74061888  1  -0.046793  0  -0.092588  -0.168222  0  3.969089  0
C  C124  1  0.99272584  0.21606331  0.88479484  1  -0.051317  0  -0.015944  0.018799  0  4.015563  0
C  C125  1  0.00727249  0.28394095  0.38479320  1  -0.05066  0  -0.015923  0.018894  0  4.015524  0
C  C126  1  0.00727672  0.78393972  0.11520754  1  -0.051501  0  -0.015943  0.018853  0  4.015582  0
C  C127  1  0.99272331  0.71606107  0.61520590  1  -0.051445  0  -0.015928  0.01879  0  4.015677  0
C  C128  1  0.98932927  0.17465084  0.93415970  1  -0.064596  0  -0.09421  -0.136153  0  3.972337  0
C  C129  1  0.01066552  0.32535254  0.43415964  1  -0.065078  0  -0.094266  -0.136295  0  3.972136  0
C  C130  1  0.01067074  0.82534666  0.06584086  1  -0.064557  0  -0.094232  -0.136168  0  3.97224  0
C  C131  1  0.98932214  0.67464737  0.56583910  1  -0.064844  0  -0.094226  -0.136184  0  3.972202  0
C  C132  1  0.88843684  0.04518344  0.95001823  1  -0.157055  0  -0.099833  -0.092605  0  4.030111  0
C  C133  1  0.11156490  0.45482582  0.45001816  1  -0.156942  0  -0.099815  -0.092577  0  4.029996  0
C  C134  1  0.11156532  0.95481402  0.04998306  1  -0.156995  0  -0.099833  -0.092695  0  4.030246  0
C  C135  1  0.88842796  0.54517735  0.54998094  1  -0.156729  0  -0.099814  -0.092551  0  4.029989  0
C  C136  1  0.79136063  0.95409140  0.91729805  1  -0.014645  0  -0.092835  -0.074972  0  3.973989  0
C  C137  1  0.20863907  0.54590954  0.41730009  1  -0.014599  0  -0.092854  -0.074976  0  3.974059  0
C  C138  1  0.20864045  0.04590608  0.08270105  1  -0.013854  0  -0.092826  -0.074876  0  3.974114  0
C  C139  1  0.79135506  0.45409027  0.58270047  1  -0.013669  0  -0.092903  -0.075065  0  3.974016  0
C  C140  1  0.79467202  0.99482782  0.86820716  1  -0.053193  0  -0.094627  -0.08263  0  4.025404  0
C  C141  1  0.20533200  0.50517288  0.36820726  1  -0.05253  0  -0.094585  -0.082653  0  4.025442  0
C  C142  1  0.20533181  0.00517185  0.13179231  1  -0.053951  0  -0.094605  -0.082632  0  4.025576  0
C  C143  1  0.79466977  0.49483127  0.63179257  1  -0.052929  0  -0.094576  -0.082591  0  4.025499  0
C  C144  1  0.89332191  0.12478154  0.85215631  1  -0.008094  0  -0.092722  -0.127722  0  3.989112  0
C  C145  1  0.10667348  0.37521967  0.35215711  1  -0.008692  0  -0.092718  -0.127702  0  3.989257  0
C  C146  1  0.10668359  0.87522033  0.14784316  1  -0.008035  0  -0.092742  -0.127742  0  3.989477  0
C  C147  1  0.89332094  0.62478125  0.64784200  1  -0.007954  0  -0.092773  -0.127693  0  3.989353  0
C  C148  1  0.00420158  0.74446674  0.86467952  1  0.4882  0  0.053295  0.096758  0  3.926529  0
C  C149  1  0.99579566  0.75553287  0.36467954  1  0.48821  0  0.053338  0.096856  0  3.926573  0
C  C150  1  0.99579637  0.25553525  0.13532068  1  0.488221  0  0.053303  0.09677  0  3.926504  0
C  C151  1  0.00420660  0.24446906  0.63532065  1  0.488006  0  0.053175  0.096535  0  3.926642  0
C  C152  1  0.12500694  0.86793208  0.86292004  1  -0.000407  0  -0.074875  -0.156011  0  3.927911  0
C  C153  1  0.87499244  0.63206744  0.36292045  1  -0.000392  0  -0.074941  -0.156138  0  3.927877  0
C  C154  1  0.87499012  0.13206657  0.13708052  1  -0.000294  0  -0.07489  -0.156098  0  3.927754  0
C  C155  1  0.12501462  0.36793218  0.63707865  1  -0.000407  0  -0.074902  -0.155975  0  3.928161  0
C  C156  1  0.22703725  0.89540905  0.90161379  1  -0.006157  0  0.013196  0.100835  0  3.971929  0
C  C157  1  0.77296373  0.60459258  0.40161559  1  -0.006162  0  0.013262  0.100946  0  3.971816  0
C  C158  1  0.77296079  0.10458514  0.09838531  1  -0.006176  0  0.013189  0.100886  0  3.971878  0
C  C159  1  0.22703853  0.39540934  0.59838534  1  -0.006206  0  0.013288  0.10093  0  3.971908  0
C  C160  1  0.20231664  0.79412810  0.94037586  1  -0.054371  0  -0.077137  -0.161056  0  3.946342  0
C  C161  1  0.79768946  0.70587671  0.44037648  1  -0.054475  0  -0.0771  -0.160986  0  3.946457  0
C  C162  1  0.79768385  0.20586716  0.05962361  1  -0.054313  0  -0.077139  -0.161066  0  3.946531  0
C  C163  1  0.20231878  0.29412735  0.55962298  1  -0.054301  0  -0.077115  -0.161041  0  3.946305  0
C  C164  1  0.08031574  0.67229240  0.93911479  1  0.532966  0  0.051686  0.098285  0  3.925293  0
C  C165  1  0.91968683  0.82771130  0.43911539  1  0.532776  0  0.051612  0.0981  0  3.92564  0
C  C166  1  0.91968338  0.32770177  0.06088322  1  0.533087  0  0.05175  0.098363  0  3.925364  0
C  C167  1  0.08031436  0.17229063  0.56088445  1  0.532852  0  0.051662  0.098246  0  3.92543  0
C  C168  1  0.53219364  0.21837071  0.94541353  1  0.397941  0  0.046651  0.085729  0  3.930024  0
C  C169  1  0.46781248  0.28163057  0.44541439  1  0.397732  0  0.046632  0.085609  0  3.930066  0
C  C170  1  0.46780921  0.78162118  0.05458703  1  0.397902  0  0.04665  0.085661  0  3.930213  0
C  C171  1  0.53219762  0.71837235  0.55458471  1  0.397791  0  0.046686  0.085727  0  3.929919  0
C  C172  1  0.41039259  0.09590934  0.94595874  1  0.003742  0  -0.077367  -0.160192  0  3.920165  0
C  C173  1  0.58960951  0.40409313  0.44595922  1  0.003734  0  -0.077296  -0.159875  0  3.920143  0
C  C174  1  0.58960751  0.90408036  0.05404073  1  0.003768  0  -0.077317  -0.159987  0  3.919998  0
C  C175  1  0.41039275  0.59590880  0.55404061  1  0.003793  0  -0.077331  -0.16002  0  3.919889  0
C  C176  1  0.35627320  0.02539534  0.90207414  1  0.050054  0  0.017648  0.112768  0  3.961239  0
C  C177  1  0.64372787  0.47460711  0.40207663  1  0.049981  0  0.01765  0.112731  0  3.961315  0
C  C178  1  0.64372965  0.97459655  0.09792569  1  0.050018  0  0.017632  0.112669  0  3.961344  0
C  C179  1  0.35627821  0.52539699  0.59792393  1  0.04999  0  0.017606  0.11276  0  3.961186  0
C  C180  1  0.42987609  0.08390225  0.85908994  1  -0.054764  0  -0.077463  -0.164095  0  3.93044  0
C  C181  1  0.57012150  0.41609911  0.35909191  1  -0.054686  0  -0.077376  -0.163967  0  3.93058  0
C  C182  1  0.57012196  0.91609194  0.14090879  1  -0.055219  0  -0.07734  -0.163912  0  3.930417  0
C  C183  1  0.42988498  0.58389829  0.64090792  1  -0.054931  0  -0.077332  -0.163962  0  3.930426  0
C  C184  1  0.55293157  0.20504167  0.86166437  1  0.44604  0  0.05056  0.090899  0  3.949942  0
C  C185  1  0.44706848  0.29496084  0.36166637  1  0.445995  0  0.050515  0.090872  0  3.950063  0
C  C186  1  0.44706520  0.79495588  0.13833509  1  0.446568  0  0.050439  0.090743  0  3.950129  0
C  C187  1  0.55293594  0.70504105  0.63833455  1  0.446251  0  0.050517  0.090944  0  3.949981  0
N  N188  1  0.98178834  0.64719950  0.90201051  1  -1.189942  0  -0.344643  -0.17784  0  3.601268  0
N  N189  1  0.01821186  0.85280327  0.40201016  1  -1.189704  0  -0.344617  -0.177775  0  3.601355  0
N  N190  1  0.01820795  0.35280028  0.09798932  1  -1.19003  0  -0.344677  -0.177933  0  3.601348  0
N  N191  1  0.98179128  0.14720198  0.59798821  1  -1.18979  0  -0.344614  -0.177775  0  3.601313  0
N  N192  1  0.60445561  0.27190452  0.90402430  1  -1.168765  0  -0.345186  -0.186311  0  3.615656  0
N  N193  1  0.39554704  0.22809572  0.40402575  1  -1.168727  0  -0.345165  -0.186285  0  3.615626  0
N  N194  1  0.39554429  0.72808852  0.09597443  1  -1.16884  0  -0.345141  -0.18628  0  3.615885  0
N  N195  1  0.60445768  0.77190728  0.59597554  1  -1.168759  0  -0.345216  -0.186418  0  3.615806  0
N  N196  1  0.06540291  0.40787878  0.82456594  1  -1.202154  0  -0.325292  -0.37959  0  3.352704  0
N  N197  1  0.93459242  0.09212617  0.32456405  1  -1.201857  0  -0.32527  -0.379564  0  3.352321  0
N  N198  1  0.93459916  0.59212649  0.17543461  1  -1.202098  0  -0.325268  -0.379566  0  3.352533  0
N  N199  1  0.06539817  0.90787259  0.67543432  1  -1.202017  0  -0.325289  -0.379622  0  3.352533  0
O  O200  1  0.60422550  0.62088466  0.87484594  1  -1.172971  0  -0.338272  -0.56391  0  2.214637  0
O  O201  1  0.39577523  0.87911181  0.37484600  1  -1.173227  0  -0.338216  -0.563829  0  2.214648  0
O  O202  1  0.39577833  0.37911501  0.12515389  1  -1.172873  0  -0.338292  -0.563903  0  2.214592  0
O  O203  1  0.60422291  0.12088683  0.62515602  1  -1.173253  0  -0.338278  -0.563883  0  2.214561  0
O  O204  1  0.47528814  0.61728461  0.94512956  1  -1.190098  0  -0.325887  -0.580399  0  2.210485  0
O  O205  1  0.52471348  0.88271147  0.44513071  1  -1.190093  0  -0.32588  -0.580356  0  2.210266  0
O  O206  1  0.52471569  0.38271506  0.05487027  1  -1.190065  0  -0.325912  -0.580416  0  2.210529  0
O  O207  1  0.47528633  0.11728937  0.55487130  1  -1.189995  0  -0.325842  -0.580362  0  2.210386  0
O  O208  1  0.71929921  0.57062976  0.99268047  1  -1.256618  0  -0.618502  -0.781769  0  2.014247  0
O  O209  1  0.28071014  0.92937526  0.49267922  1  -1.256349  0  -0.618491  -0.781735  0  2.014269  0
O  O210  1  0.28070521  0.42937213  0.00732009  1  -1.256438  0  -0.618499  -0.781745  0  2.014226  0
O  O211  1  0.71929134  0.07062778  0.50732097  1  -1.256469  0  -0.618455  -0.781706  0  2.014282  0
