# generated using pymatgen
data_CdH20C18(NO2)3
_symmetry_space_group_name_H-M   'P 1'
_cell_length_a   9.55150167
_cell_length_b   10.41426068
_cell_length_c   11.76501981
_cell_angle_alpha   108.26998689
_cell_angle_beta   96.35415042
_cell_angle_gamma   119.40867504
_symmetry_Int_Tables_number   1
_chemical_formula_structural   CdH20C18(NO2)3
_chemical_formula_sum   'Cd2 H40 C36 N6 O12'
_cell_volume   917.22705478
_cell_formula_units_Z   2
loop_
 _symmetry_equiv_pos_site_id
 _symmetry_equiv_pos_as_xyz
  1  'x, y, z'
loop_
 _atom_site_type_symbol
 _atom_site_label
 _atom_site_symmetry_multiplicity
 _atom_site_fract_x
 _atom_site_fract_y
 _atom_site_fract_z
 _atom_site_occupancy
 _atom_site_hle17_bader_spin_density
 _atom_site_hle17_ddec_charge
 _atom_site_hle17_ddec_spin_density
 _atom_site_hle17_ddec_sum_bond_order
 _atom_site_hle17_magmom
 _atom_site_hse06_10hf_bader_spin_density
 _atom_site_hse06_10hf_ddec_charge
 _atom_site_hse06_10hf_ddec_spin_density
 _atom_site_hse06_10hf_ddec_sum_bond_order
 _atom_site_hse06_10hf_magmom
 _atom_site_hse06_bader_spin_density
 _atom_site_hse06_ddec_charge
 _atom_site_hse06_ddec_spin_density
 _atom_site_hse06_ddec_sum_bond_order
 _atom_site_hse06_magmom
 _atom_site_pbe_bader_spin_density
 _atom_site_pbe_cm5_charge
 _atom_site_pbe_ddec_charge
 _atom_site_pbe_ddec_spin_density
 _atom_site_pbe_ddec_sum_bond_order
 _atom_site_pbe_magmom
Cd  Cd0  1  0.99083752  0.33107905  0.05921558  1  0  1.161734  0  1.654803  0  0  0.976385  0  2.095032  0  0  1.031725  0  2.043595  0  0  0.765991  0.936392  0  2.130364  0
Cd  Cd1  1  0.00916309  0.66892206  0.94078698  1  0  1.161721  0  1.654807  0  0  0.976361  0  2.095031  0  0  1.0317  0  2.043595  0  0  0.765978  0.936367  0  2.130364  0
H  H2  1  0.15907868  0.72525522  0.27185554  1  0  0.100258  0  0.932753  0  0  0.112356  0  0.992799  0  0  0.114423  0  0.990032  0  0  0.138061  0.111235  0  0.993851  0
H  H3  1  0.84092651  0.27474842  0.72814731  1  0  0.100276  0  0.93275  0  0  0.112369  0  0.9928  0  0  0.114437  0  0.990033  0  0  0.138057  0.111249  0  0.993852  0
H  H4  1  0.53254034  0.30832277  0.20358583  1  0  0.113514  0  0.975141  0  0  0.118933  0  1.041795  0  0  0.121867  0  1.041596  0  0  0.110883  0.116733  0  1.042216  0
H  H5  1  0.46745235  0.69166614  0.79641251  1  0  0.113508  0  0.975156  0  0  0.118969  0  1.041745  0  0  0.121903  0  1.041546  0  0  0.110908  0.116772  0  1.042158  0
H  H6  1  0.73952988  0.16062211  0.21872278  1  0  0.136091  0  0.944404  0  0  0.147377  0  1.001528  0  0  0.150989  0  0.998831  0  0  0.110194  0.144694  0  1.003494  0
H  H7  1  0.26047533  0.83938156  0.78127838  1  0  0.136131  0  0.944498  0  0  0.147401  0  1.001626  0  0  0.151012  0  0.998931  0  0  0.110215  0.144717  0  1.003595  0
H  H8  1  0.75377235  0.57472648  0.20513046  1  0  0.102093  0  0.955592  0  0  0.109849  0  1.019165  0  0  0.112585  0  1.018217  0  0  0.109391  0.107651  0  1.020179  0
H  H9  1  0.24622436  0.42526021  0.79486336  1  0  0.102104  0  0.955677  0  0  0.109876  0  1.019206  0  0  0.112616  0  1.018257  0  0  0.1094  0.107666  0  1.020259  0
H  H10  1  0.81100137  0.63959215  0.56845079  1  0  0.112594  0  0.946556  0  0  0.125578  0  1.004281  0  0  0.128552  0  1.002964  0  0  0.104682  0.123451  0  1.005331  0
H  H11  1  0.18899853  0.36041144  0.43154816  1  0  0.112604  0  0.946414  0  0  0.125572  0  1.004171  0  0  0.128543  0  1.002855  0  0  0.10467  0.123443  0  1.005223  0
H  H12  1  0.20775119  0.94098354  0.47506569  1  0  0.07302  0  0.919996  0  0  0.092679  0  0.978216  0  0  0.092764  0  0.978916  0  0  0.114508  0.092635  0  0.977351  0
H  H13  1  0.79225081  0.05902004  0.52493601  1  0  0.07306  0  0.920025  0  0  0.092667  0  0.978266  0  0  0.092751  0  0.978969  0  0  0.114496  0.092623  0  0.9774  0
H  H14  1  0.11065366  0.87822947  0.58441001  1  0  0.080192  0  0.911011  0  0  0.09931  0  0.9674  0  0  0.099715  0  0.967725  0  0  0.115216  0.098658  0  0.967511  0
H  H15  1  0.88935116  0.12177540  0.41559147  1  0  0.080221  0  0.911058  0  0  0.099338  0  0.967414  0  0  0.099746  0  0.967737  0  0  0.115227  0.098687  0  0.967524  0
H  H16  1  0.84014817  0.82931903  0.46115480  1  0  0.068924  0  0.940529  0  0  0.088347  0  1.000822  0  0  0.088927  0  1.001834  0  0  0.092271  0.087944  0  0.999719  0
H  H17  1  0.15985598  0.17068461  0.53884626  1  0  0.068971  0  0.940525  0  0  0.088384  0  1.000845  0  0  0.088961  0  1.001857  0  0  0.092286  0.087982  0  0.99974  0
H  H18  1  0.94477018  0.89775493  0.35662031  1  0  0.076534  0  0.9471  0  0  0.094325  0  1.00855  0  0  0.095689  0  1.008027  0  0  0.091888  0.093099  0  1.009206  0
H  H19  1  0.05523326  0.10224746  0.64338203  1  0  0.076544  0  0.947053  0  0  0.094324  0  1.008545  0  0  0.095687  0  1.008021  0  0  0.091877  0.093098  0  1.009201  0
H  H20  1  0.65939108  0.74671652  0.15898176  1  0  0.108913  0  0.947528  0  0  0.118526  0  1.008849  0  0  0.122722  0  1.005671  0  0  0.111214  0.115711  0  1.01076  0
H  H21  1  0.34060874  0.25327383  0.84101423  1  0  0.10897  0  0.947495  0  0  0.118572  0  1.008824  0  0  0.122769  0  1.005643  0  0  0.111223  0.115755  0  1.010738  0
H  H22  1  0.39782149  0.04481909  0.32983537  1  0  0.113543  0  0.955926  0  0  0.134928  0  1.017671  0  0  0.136621  0  1.016933  0  0  0.089471  0.133434  0  1.017917  0
H  H23  1  0.60217945  0.95518449  0.67016538  1  0  0.113518  0  0.955956  0  0  0.134921  0  1.017685  0  0  0.136614  0  1.016947  0  0  0.089466  0.133427  0  1.017932  0
H  H24  1  0.54625042  0.05865316  0.44573550  1  0  0.08279  0  0.993643  0  0  0.1011  0  1.066123  0  0  0.102054  0  1.066269  0  0  0.079349  0.100472  0  1.065762  0
H  H25  1  0.45375017  0.94135166  0.55426302  1  0  0.08284  0  0.993612  0  0  0.101155  0  1.066092  0  0  0.10211  0  1.066238  0  0  0.079364  0.100526  0  1.065733  0
H  H26  1  0.53277638  0.98149738  0.28341621  1  0  0.116031  0  0.977931  0  0  0.135245  0  1.039851  0  0  0.137074  0  1.039636  0  0  0.088903  0.133969  0  1.039805  0
H  H27  1  0.46722350  0.01850619  0.71658360  1  0  0.115982  0  0.977976  0  0  0.135234  0  1.039866  0  0  0.137065  0  1.039652  0  0  0.088899  0.133959  0  1.03982  0
H  H28  1  0.57511705  0.46090037  0.61258393  1  0  0.103229  0  0.973532  0  0  0.12504  0  1.032471  0  0  0.125417  0  1.034634  0  0  0.086647  0.124564  0  1.031218  0
H  H29  1  0.42487862  0.53910319  0.38741124  1  0  0.103269  0  0.973514  0  0  0.125096  0  1.03243  0  0  0.125473  0  1.034593  0  0  0.086696  0.12462  0  1.031177  0
H  H30  1  0.57114644  0.28606708  0.60526189  1  0  0.095215  0  0.954628  0  0  0.115521  0  1.019838  0  0  0.115804  0  1.021171  0  0  0.083996  0.115227  0  1.018984  0
H  H31  1  0.42884739  0.71393510  0.39473867  1  0  0.095276  0  0.954489  0  0  0.115562  0  1.01973  0  0  0.115843  0  1.021064  0  0  0.084016  0.115268  0  1.018877  0
H  H32  1  0.42206004  0.26723991  0.48669634  1  0  0.100894  0  0.952786  0  0  0.121563  0  1.017179  0  0  0.123088  0  1.016528  0  0  0.087943  0.120425  0  1.017502  0
H  H33  1  0.57793495  0.73276244  0.51329757  1  0  0.100902  0  0.952835  0  0  0.12161  0  1.017187  0  0  0.123133  0  1.016537  0  0  0.087977  0.120475  0  1.017507  0
H  H34  1  0.91333461  0.06661237  0.83234855  1  0  0.408352  0  0.910854  0  0  0.372814  0  0.982209  0  0  0.385738  0  0.963634  0  0  0.276209  0.363465  0  0.995714  0
H  H35  1  0.08666039  0.93338626  0.16765024  1  0  0.408353  0  0.910833  0  0  0.372807  0  0.982205  0  0  0.385731  0  0.963631  0  0  0.276183  0.363457  0  0.995712  0
H  H36  1  0.10965511  0.18130586  0.89441303  1  0  0.401887  0  0.855534  0  0  0.379818  0  0.922468  0  0  0.388073  0  0.913183  0  0  0.30181  0.373745  0  0.929487  0
H  H37  1  0.89033759  0.81868307  0.10558447  1  0  0.401904  0  0.855527  0  0  0.379812  0  0.922476  0  0  0.388062  0  0.9132  0  0  0.301829  0.373736  0  0.929499  0
H  H38  1  0.71214133  0.00973268  0.93061760  1  0  0.414208  0  0.886605  0  0  0.385498  0  0.945764  0  0  0.395487  0  0.931561  0  0  0.290392  0.378331  0  0.955983  0
H  H39  1  0.28785939  0.99026488  0.06938140  1  0  0.414197  0  0.886611  0  0  0.385474  0  0.945795  0  0  0.395463  0  0.931592  0  0  0.29037  0.378306  0  0.956014  0
H  H40  1  0.64346955  0.12593213  0.96521495  1  0  0.414759  0  0.894953  0  0  0.382205  0  0.960909  0  0  0.394277  0  0.943677  0  0  0.282808  0.373519  0  0.973329  0
H  H41  1  0.35653044  0.87406414  0.03478702  1  0  0.414758  0  0.894946  0  0  0.382158  0  0.960968  0  0  0.394229  0  0.943738  0  0  0.282796  0.37347  0  0.973393  0
C  C42  1  0.39808324  0.56900654  0.12343151  1  0  0.097504  0  3.762529  0  0  0.101678  0  4.004868  0  0  0.101985  0  4.025343  0  0  0.109756  0.100966  0  3.991414  0
C  C43  1  0.60192132  0.43099224  0.87657158  1  0  0.097524  0  3.762552  0  0  0.101715  0  4.004867  0  0  0.102014  0  4.025352  0  0  0.10979  0.101003  0  3.991416  0
C  C44  1  0.33010535  0.33844094  0.15443897  1  0  0.09409  0  3.739052  0  0  0.098138  0  3.982048  0  0  0.098976  0  3.999727  0  0  0.112687  0.097379  0  3.97008  0
C  C45  1  0.66988933  0.66155525  0.84556078  1  0  0.09405  0  3.739047  0  0  0.098145  0  3.981978  0  0  0.098985  0  3.999656  0  0  0.112658  0.097386  0  3.970013  0
C  C46  1  0.33543118  0.66109981  0.08269227  1  0  0.605353  0  3.939768  0  0  0.551266  0  4.239954  0  0  0.584365  0  4.233863  0  0  0.205512  0.528862  0  4.243171  0
C  C47  1  0.66457047  0.33890129  0.91731208  1  0  0.605445  0  3.939788  0  0  0.551355  0  4.23998  0  0  0.584456  0  4.233885  0  0  0.205568  0.528951  0  4.243202  0
C  C48  1  0.19247802  0.18695735  0.16251789  1  0  0.608547  0  3.943164  0  0  0.555712  0  4.244606  0  0  0.588735  0  4.237214  0  0  0.203491  0.5335  0  4.248123  0
C  C49  1  0.80751951  0.81304015  0.83747996  1  0  0.608637  0  3.943129  0  0  0.555782  0  4.244577  0  0  0.588804  0  4.237185  0  0  0.203521  0.53357  0  4.248097  0
C  C50  1  0.87431823  0.42333197  0.31399276  1  0  0.147421  0  3.858423  0  0  0.142346  0  4.112485  0  0  0.145781  0  4.136417  0  0  0.082555  0.140409  0  4.095717  0
C  C51  1  0.12568446  0.57667285  0.68600850  1  0  0.14733  0  3.858656  0  0  0.142309  0  4.112663  0  0  0.145745  0  4.136594  0  0  0.082614  0.140373  0  4.095894  0
C  C52  1  0.06740067  0.64263772  0.30341093  1  0  0.21091  0  3.660089  0  0  0.142713  0  3.942312  0  0  0.16053  0  3.952429  0  0  0.157566  0.130936  0  3.934951  0
C  C53  1  0.93259958  0.35736464  0.69658941  1  0  0.21082  0  3.660083  0  0  0.142634  0  3.942297  0  0  0.160449  0  3.952415  0  0  0.157547  0.130858  0  3.934935  0
C  C54  1  0.49908575  0.38601865  0.18244356  1  0  -0.080927  0  3.65924  0  0  -0.109088  0  3.914912  0  0  -0.110349  0  3.932146  0  0  -0.066225  -0.108337  0  3.903715  0
C  C55  1  0.50090900  0.61397393  0.81755517  1  0  -0.080949  0  3.659207  0  0  -0.109136  0  3.914851  0  0  -0.1104  0  3.932087  0  0  -0.066254  -0.108384  0  3.903653  0
C  C56  1  0.65627412  0.24139414  0.37479143  1  0  0.086308  0  3.726042  0  0  0.104112  0  3.969492  0  0  0.103745  0  3.994449  0  0  -0.017172  0.103842  0  3.952932  0
C  C57  1  0.34372817  0.75861183  0.62521183  1  0  0.086369  0  3.725867  0  0  0.104209  0  3.969227  0  0  0.103845  0  3.994183  0  0  -0.017116  0.103939  0  3.952667  0
C  C58  1  0.75613863  0.26390483  0.29562945  1  0  -0.196979  0  3.690058  0  0  -0.221596  0  3.937708  0  0  -0.224443  0  3.955663  0  0  -0.092955  -0.21928  0  3.92527  0
C  C59  1  0.24386015  0.73609865  0.70437278  1  0  -0.197016  0  3.690157  0  0  -0.221666  0  3.937783  0  0  -0.224512  0  3.955737  0  0  -0.093051  -0.219349  0  3.925347  0
C  C60  1  0.62108500  0.53412689  0.18433663  1  0  -0.002156  0  3.683461  0  0  -0.019493  0  3.942093  0  0  -0.018482  0  3.960265  0  0  -0.063745  -0.019877  0  3.92958  0
C  C61  1  0.37891232  0.46586462  0.81565862  1  0  -0.002203  0  3.683419  0  0  -0.019569  0  3.942076  0  0  -0.018562  0  3.960251  0  0  -0.063765  -0.019959  0  3.929559  0
C  C62  1  0.79564681  0.53626317  0.49256050  1  0  -0.201951  0  3.738301  0  0  -0.229394  0  3.996008  0  0  -0.233037  0  4.016272  0  0  -0.098889  -0.227442  0  3.982631  0
C  C63  1  0.20434984  0.46374029  0.50744068  1  0  -0.201931  0  3.738185  0  0  -0.229384  0  3.995885  0  0  -0.233026  0  4.016148  0  0  -0.09888  -0.227431  0  3.982506  0
C  C64  1  0.89539718  0.55712578  0.41318812  1  0  0.093262  0  3.816191  0  0  0.079157  0  4.070335  0  0  0.082606  0  4.093621  0  0  0.087502  0.076582  0  4.054835  0
C  C65  1  0.10460023  0.44287527  0.58681329  1  0  0.093299  0  3.816181  0  0  0.079148  0  4.070367  0  0  0.082594  0  4.093654  0  0  0.087466  0.076574  0  4.054864  0
C  C66  1  0.67334469  0.37705076  0.47129807  1  0  0.090248  0  3.718701  0  0  0.110173  0  3.958635  0  0  0.109904  0  3.984023  0  0  -0.014753  0.110965  0  3.941274  0
C  C67  1  0.32665628  0.62295287  0.52870015  1  0  0.090113  0  3.71875  0  0  0.110123  0  3.958554  0  0  0.109854  0  3.983934  0  0  -0.014736  0.110914  0  3.941192  0
C  C68  1  0.08537598  0.86306375  0.48591834  1  0  0.01882  0  3.629297  0  0  -0.044754  0  3.890688  0  0  -0.039859  0  3.90222  0  0  -0.045931  -0.047709  0  3.882771  0
C  C69  1  0.91462748  0.13693868  0.51408231  1  0  0.018619  0  3.629458  0  0  -0.044841  0  3.890766  0  0  -0.039948  0  3.902294  0  0  -0.045948  -0.047796  0  3.882847  0
C  C70  1  0.96452553  0.91234282  0.45501742  1  0  -0.129223  0  3.684385  0  0  -0.170571  0  3.946653  0  0  -0.172301  0  3.960305  0  0  -0.164492  -0.169087  0  3.936779  0
C  C71  1  0.03548179  0.08766087  0.54498564  1  0  -0.129244  0  3.68435  0  0  -0.170677  0  3.946682  0  0  -0.172402  0  3.96033  0  0  -0.164546  -0.169191  0  3.936804  0
C  C72  1  0.57062153  0.62885032  0.15731471  1  0  -0.105725  0  3.693147  0  0  -0.131357  0  3.946224  0  0  -0.134452  0  3.965556  0  0  -0.073825  -0.128883  0  3.932537  0
C  C73  1  0.42937789  0.37114118  0.84268329  1  0  -0.105762  0  3.693  0  0  -0.131374  0  3.946049  0  0  -0.134465  0  3.965381  0  0  -0.073827  -0.128896  0  3.932358  0
C  C74  1  0.52673616  0.07212011  0.35729590  1  0  -0.342444  0  3.745553  0  0  -0.423139  0  3.985924  0  0  -0.425767  0  3.996141  0  0  -0.249789  -0.421007  0  3.978497  0
C  C75  1  0.47326547  0.92788469  0.64270442  1  0  -0.342437  0  3.745525  0  0  -0.423203  0  3.985887  0  0  -0.425832  0  3.996106  0  0  -0.249805  -0.421069  0  3.978463  0
C  C76  1  0.55504977  0.34697219  0.54842848  1  0  -0.317201  0  3.736618  0  0  -0.396029  0  3.972716  0  0  -0.398418  0  3.984892  0  0  -0.242589  -0.394244  0  3.964271  0
C  C77  1  0.44495156  0.65303394  0.45156624  1  0  -0.317277  0  3.736551  0  0  -0.396177  0  3.972644  0  0  -0.398562  0  3.984818  0  0  -0.242724  -0.394395  0  3.964197  0
N  N78  1  0.98324226  0.48146416  0.24684808  1  0  -0.43532  0  3.183352  0  0  -0.369053  0  3.47349  0  0  -0.391555  0  3.488797  0  0  -0.354767  -0.353854  0  3.46232  0
N  N79  1  0.01676229  0.51853835  0.75315014  1  0  -0.435189  0  3.183359  0  0  -0.368938  0  3.473468  0  0  -0.391437  0  3.488777  0  0  -0.354724  -0.353736  0  3.462296  0
N  N80  1  0.28189953  0.42736367  0.12292367  1  0  -0.36469  0  3.31741  0  0  -0.299093  0  3.559722  0  0  -0.315684  0  3.58134  0  0  -0.318843  -0.287559  0  3.544789  0
N  N81  1  0.71809933  0.57263622  0.87707753  1  0  -0.364668  0  3.31743  0  0  -0.299106  0  3.559731  0  0  -0.315693  0  3.58135  0  0  -0.31884  -0.287573  0  3.544801  0
N  N82  1  0.02102084  0.69497604  0.40473104  1  0  -0.129544  0  3.533256  0  0  -0.039861  0  3.761493  0  0  -0.056746  0  3.78632  0  0  -0.243895  -0.028922  0  3.745141  0
N  N83  1  0.97897831  0.30502624  0.59527172  1  0  -0.129441  0  3.53329  0  0  -0.039771  0  3.761497  0  0  -0.056654  0  3.786323  0  0  -0.243857  -0.02883  0  3.745142  0
O  O84  1  0.17562244  0.59845022  0.05422635  1  0  -0.657083  0  2.073592  0  0  -0.583498  0  2.335076  0  0  -0.614265  0  2.32498  0  0  -0.322922  -0.561457  0  2.34096  0
O  O85  1  0.82437884  0.40155209  0.94577746  1  0  -0.657161  0  2.073629  0  0  -0.58357  0  2.335095  0  0  -0.614342  0  2.325014  0  0  -0.322974  -0.561528  0  2.340983  0
O  O86  1  0.01400887  0.18456012  0.86108186  1  0  -0.822547  0  1.833802  0  0  -0.768606  0  2.032685  0  0  -0.78998  0  2.003997  0  0  -0.584597  -0.754418  0  2.054403  0
O  O87  1  0.98598833  0.81543494  0.13891695  1  0  -0.822565  0  1.833784  0  0  -0.768577  0  2.03273  0  0  -0.789946  0  2.004045  0  0  -0.584587  -0.754388  0  2.054452  0
O  O88  1  0.72219332  0.09964436  0.00067075  1  0  -0.81762  0  1.877169  0  0  -0.749138  0  2.059424  0  0  -0.772847  0  2.025981  0  0  -0.586094  -0.731671  0  2.082917  0
O  O89  1  0.27780883  0.90035202  0.99932889  1  0  -0.817606  0  1.877182  0  0  -0.749088  0  2.059489  0  0  -0.772795  0  2.026051  0  0  -0.586061  -0.731618  0  2.082986  0
O  O90  1  0.04452804  0.15524761  0.14246423  1  0  -0.608988  0  1.941352  0  0  -0.559406  0  2.176133  0  0  -0.584054  0  2.165971  0  0  -0.324787  -0.541213  0  2.181843  0
O  O91  1  0.95547014  0.84475107  0.85753571  1  0  -0.608989  0  1.941338  0  0  -0.559392  0  2.176123  0  0  -0.584041  0  2.165956  0  0  -0.32476  -0.5412  0  2.181832  0
O  O92  1  0.24191104  0.10411791  0.19269754  1  0  -0.640588  0  2.017364  0  0  -0.575129  0  2.230444  0  0  -0.601108  0  2.220477  0  0  -0.320171  -0.556722  0  2.236905  0
O  O93  1  0.75808472  0.89587834  0.80730064  1  0  -0.640643  0  2.017339  0  0  -0.575211  0  2.230444  0  0  -0.601189  0  2.220475  0  0  -0.320218  -0.556803  0  2.236908  0
O  O94  1  0.44613214  0.79141812  0.07989882  1  0  -0.584231  0  1.976428  0  0  -0.533422  0  2.192577  0  0  -0.556805  0  2.183999  0  0  -0.304436  -0.517045  0  2.198014  0
O  O95  1  0.55387619  0.20858548  0.92010941  1  0  -0.584251  0  1.976494  0  0  -0.533464  0  2.192633  0  0  -0.55685  0  2.184054  0  0  -0.30444  -0.517088  0  2.198064  0
