# generated using pymatgen
data_FeH4C8O5
_symmetry_space_group_name_H-M   'P 1'
_cell_length_a   6.56215035
_cell_length_b   11.10579378
_cell_length_c   11.10583232
_cell_angle_alpha   93.22776611
_cell_angle_beta   104.31384323
_cell_angle_gamma   104.31359526
_symmetry_Int_Tables_number   1
_chemical_formula_structural   FeH4C8O5
_chemical_formula_sum   'Fe2 H8 C16 O10'
_cell_volume   753.93125241
_cell_formula_units_Z   2
loop_
 _symmetry_equiv_pos_site_id
 _symmetry_equiv_pos_as_xyz
  1  'x, y, z'
loop_
 _atom_site_type_symbol
 _atom_site_label
 _atom_site_symmetry_multiplicity
 _atom_site_fract_x
 _atom_site_fract_y
 _atom_site_fract_z
 _atom_site_occupancy
 _atom_site_pbe_bader_charge
 _atom_site_pbe_bader_spin_density
 _atom_site_pbe_cm5_charge
 _atom_site_pbe_ddec_charge
 _atom_site_pbe_ddec_spin_density
 _atom_site_pbe_ddec_sum_bond_order
 _atom_site_pbe_magmom
Fe  Fe0  1  0.49238307  0.99834863  0.99834242  1  1.591419  1.738214  0.900792  1.230704  1.964445  3.410952  1.722
Fe  Fe1  1  0.99403497  0.00067958  0.00067607  1  1.693855  3.166994  0.8958  1.311041  3.571422  3.058806  3.131
H  H2  1  0.87898542  0.60499247  0.99418654  1  0.07603  0.000369  0.109913  0.114537  0.000135  1.010468  0.0
H  H3  1  0.12313033  0.00727516  0.39457404  1  0.080037  0.000444  0.109584  0.113814  0.000193  1.010983  0.0
H  H4  1  0.12313742  0.39458356  0.00729415  1  0.079778  0.000444  0.109611  0.113832  0.000193  1.010992  0.0
H  H5  1  0.87898407  0.99419924  0.60499440  1  0.076067  0.000369  0.109954  0.114536  0.000135  1.01059  0.0
H  H6  1  0.76157966  0.37147911  0.99562386  1  0.099806  0.000116  0.112227  0.11915  -6e-06  1.0029  0.0
H  H7  1  0.24038705  0.00558366  0.62796760  1  0.117131  0.000218  0.111699  0.118253  7.9e-05  1.002099  0.0
H  H8  1  0.24040682  0.62798028  0.00560669  1  0.117255  0.000218  0.11165  0.118181  7.9e-05  1.002054  0.0
H  H9  1  0.76159559  0.99563224  0.37148149  1  0.099752  0.000116  0.112199  0.119096  -6e-06  1.002868  0.0
C  C10  1  0.56637814  0.62904870  0.99987899  1  -0.020219  0.000272  -0.005697  -0.021972  -0.001001  3.954008  0.0
C  C11  1  0.43552019  0.00111528  0.37043853  1  -0.114806  0.000289  -0.006029  -0.02109  -0.000969  3.949226  0.0
C  C12  1  0.43551531  0.37044058  0.00111567  1  -0.114752  0.000289  -0.006044  -0.02114  -0.000969  3.949403  0.0
C  C13  1  0.56637451  0.99988000  0.62904846  1  -0.020173  0.000273  -0.005718  -0.021857  -0.001  3.953909  0.0
C  C14  1  0.71430265  0.55757747  0.99717562  1  0.047299  -0.00011  -0.076374  -0.089746  -0.000399  3.961772  0.0
C  C15  1  0.28774898  0.00414393  0.44197678  1  -0.013757  -3.9e-05  -0.076295  -0.089205  -0.000341  3.959196  0.0
C  C16  1  0.28775215  0.44198188  0.00415269  1  -0.0135  -3.9e-05  -0.076342  -0.089262  -0.000341  3.959229  0.0
C  C17  1  0.71430493  0.99717858  0.55757890  1  0.047253  -0.000111  -0.076423  -0.089837  -0.000399  3.961922  0.0
C  C18  1  0.64918302  0.42861194  0.99774028  1  -0.003787  -3.1e-05  -0.076031  -0.091858  -0.000372  3.958196  0.0
C  C19  1  0.35279608  0.00347157  0.57084813  1  -0.004309  0.000111  -0.076245  -0.091299  -0.0003  3.95816  0.0
C  C20  1  0.35280194  0.57085587  0.00348222  1  -0.004427  0.000111  -0.076211  -0.091129  -0.0003  3.957921  0.0
C  C21  1  0.64919004  0.99774630  0.42861331  1  -0.003687  -3.1e-05  -0.076011  -0.091776  -0.000372  3.958091  0.0
C  C22  1  0.63784036  0.76771912  0.99825160  1  1.523289  -0.005263  0.242534  0.592528  -0.007839  4.105579  -0.003
C  C23  1  0.36187083  0.00193152  0.23174303  1  1.553078  -0.004726  0.241846  0.591677  -0.007133  4.107117  -0.002
C  C24  1  0.36186642  0.23174791  0.00193135  1  1.553193  -0.004729  0.241831  0.591661  -0.007135  4.107307  -0.002
C  C25  1  0.63783426  0.99825685  0.76771699  1  1.523228  -0.005262  0.242538  0.592523  -0.007838  4.105677  -0.003
O  O26  1  0.48944220  0.82427651  0.99692792  1  -1.045119  0.005926  -0.265987  -0.461289  -0.003555  2.373509  0.002
O  O27  1  0.50826475  0.00183410  0.17359195  1  -1.038258  -0.00292  -0.264788  -0.457465  -0.011464  2.369093  -0.006
O  O28  1  0.50826324  0.17359634  0.00184767  1  -1.038151  -0.002911  -0.264775  -0.457435  -0.011459  2.369145  -0.006
O  O29  1  0.48943973  0.99695495  0.82427326  1  -1.045163  0.005928  -0.265983  -0.461259  -0.003555  2.373453  0.002
O  O30  1  0.83460232  0.81494964  0.99730789  1  -1.092964  0.074408  -0.270489  -0.494772  0.035893  2.283186  0.061
O  O31  1  0.16560246  0.00339239  0.18570798  1  -1.100906  0.079667  -0.269275  -0.495639  0.03816  2.286673  0.066
O  O32  1  0.16558844  0.18570697  0.00337712  1  -1.101056  0.079674  -0.269262  -0.495608  0.038161  2.286727  0.066
O  O33  1  0.83458186  0.99729132  0.81494722  1  -1.093064  0.07442  -0.27047  -0.494784  0.035894  2.283227  0.061
O  O34  1  0.20652726  0.94997227  0.94996615  1  -0.700629  0.408772  -0.437284  -0.603807  0.196295  1.856439  0.323
O  O35  1  0.79184206  0.04958720  0.04958165  1  -0.709743  0.388531  -0.440445  -0.609304  0.185672  1.858932  0.306
