# generated using pymatgen
data_Al2H14C24O11
_symmetry_space_group_name_H-M   'P 1'
_cell_length_a   6.69417708
_cell_length_b   17.14296591
_cell_length_c   19.55923453
_cell_angle_alpha   108.13799986
_cell_angle_beta   89.99969082
_cell_angle_gamma   89.99947108
_symmetry_Int_Tables_number   1
_chemical_formula_structural   Al2H14C24O11
_chemical_formula_sum   'Al4 H28 C48 O22'
_cell_volume   2133.04526516
_cell_formula_units_Z   2
loop_
 _symmetry_equiv_pos_site_id
 _symmetry_equiv_pos_as_xyz
  1  'x, y, z'
loop_
 _atom_site_type_symbol
 _atom_site_label
 _atom_site_symmetry_multiplicity
 _atom_site_fract_x
 _atom_site_fract_y
 _atom_site_fract_z
 _atom_site_occupancy
 _atom_site_pbe_bader_charge
 _atom_site_pbe_bader_spin_density
 _atom_site_pbe_cm5_charge
 _atom_site_pbe_ddec_charge
 _atom_site_pbe_ddec_spin_density
 _atom_site_pbe_ddec_sum_bond_order
 _atom_site_pbe_magmom
Al  Al0  1  0.89930406  0.50210813  0.50158855  1  2.50398  0  0.399147  1.652204  0  2.574734  0
Al  Al1  1  0.39930241  0.49789568  0.49840899  1  2.50407  0  0.399109  1.652319  0  2.574425  0
Al  Al2  1  0.36506231  0.99848582  0.99941219  1  2.503234  0  0.398851  1.653118  0  2.57413  0
Al  Al3  1  0.86506076  0.00151683  0.00058653  1  2.503258  0  0.398848  1.653157  0  2.573963  0
H  H4  1  0.42597190  0.18937917  0.19006345  1  0.11253  0  0.112828  0.111727  0  0.979799  0
H  H5  1  0.92597496  0.81060493  0.80993648  1  0.112611  0  0.112837  0.111693  0  0.979832  0
H  H6  1  0.96709725  0.20064904  0.20131757  1  0.093735  0  0.110227  0.125804  0  0.993281  0
H  H7  1  0.46709422  0.79935802  0.79868189  1  0.093785  0  0.110239  0.12576  0  0.993119  0
H  H8  1  0.43908462  0.30176823  0.30490864  1  0.122455  0  0.111456  0.107461  0  0.98127  0
H  H9  1  0.93906711  0.69822206  0.69508916  1  0.122446  0  0.111418  0.107425  0  0.981347  0
H  H10  1  0.97896877  0.30301803  0.30138308  1  0.068959  0  0.109966  0.12559  0  0.993476  0
H  H11  1  0.47895228  0.69697426  0.69861942  1  0.069256  0  0.110035  0.125662  0  0.993504  0
H  H12  1  0.85911771  0.41508837  0.67486254  1  0.087593  0  0.108933  0.120723  0  0.993662  0
H  H13  1  0.35910546  0.58491706  0.32513569  1  0.087552  0  0.108944  0.120791  0  0.993598  0
H  H14  1  0.43422139  0.31386918  0.59774402  1  0.07184  0  0.10644  0.115309  0  1.001457  0
H  H15  1  0.93420397  0.68613300  0.40225605  1  0.071981  0  0.106417  0.115339  0  1.001623  0
H  H16  1  0.58606721  0.20639492  0.64341114  1  0.07725  0  0.105244  0.111719  0  0.985633  0
H  H17  1  0.08606345  0.79360349  0.35658640  1  0.077314  0  0.105256  0.11173  0  0.985632  0
H  H18  1  0.57500982  0.12245390  0.72579680  1  0.055351  0  0.106501  0.112135  0  0.984081  0
H  H19  1  0.07500610  0.87754784  0.27420349  1  0.05538  0  0.10653  0.112184  0  0.984078  0
H  H20  1  0.40780283  0.08525538  0.82525314  1  0.106408  0  0.111697  0.121106  0  0.989039  0
H  H21  1  0.90780050  0.91474928  0.17474866  1  0.106293  0  0.111659  0.121062  0  0.989115  0
H  H22  1  0.83368508  0.18736554  0.90303855  1  0.11704  0  0.11059  0.122827  0  1.002101  0
H  H23  1  0.33369391  0.81263734  0.09695867  1  0.116918  0  0.110601  0.122838  0  1.002148  0
H  H24  1  0.69089640  0.37804810  0.77477884  1  0.06013  0  0.104759  0.125117  0  0.999725  0
H  H25  1  0.19089558  0.62195476  0.22521621  1  0.060236  0  0.104745  0.125084  0  0.999743  0
H  H26  1  0.54671113  0.32608406  0.85866098  1  0.596053  0  0.34101  0.371943  0  0.862185  0
H  H27  1  0.04671979  0.67392171  0.14133194  1  0.596209  0  0.341055  0.371812  0  0.862263  0
H  H28  1  0.65550059  0.39216204  0.48032511  1  0.608141  0  0.356913  0.435347  0  0.845153  0
H  H29  1  0.15549703  0.60784163  0.51968027  1  0.608059  0  0.356868  0.435255  0  0.845347  0
H  H30  1  0.61030419  0.10640002  0.01144909  1  0.631602  0  0.357201  0.435926  0  0.844346  0
H  H31  1  0.11030741  0.89360415  0.98855539  1  0.631676  0  0.357193  0.43586  0  0.844343  0
C  C32  1  0.64851152  0.58239037  0.41925029  1  1.579393  0  0.265672  0.643437  0  4.094979  0
C  C33  1  0.14851724  0.41761287  0.58074867  1  1.579061  0  0.265707  0.643444  0  4.094677  0
C  C34  1  0.64567455  0.61334532  0.61133725  1  1.543181  0  0.257702  0.674738  0  4.12157  0
C  C35  1  0.14567614  0.38665342  0.38866383  1  1.543205  0  0.257679  0.674864  0  4.121391  0
C  C36  1  0.28396752  0.21431154  0.21507975  1  -0.069271  0  -0.067975  -0.025931  0  3.978474  0
C  C37  1  0.78395936  0.78568023  0.78492345  1  -0.069606  0  -0.068012  -0.026036  0  3.978921  0
C  C38  1  0.11565160  0.18020054  0.18044699  1  -0.04847  0  -0.084078  -0.228247  0  3.875384  0
C  C39  1  0.61566334  0.81979823  0.81955205  1  -0.048437  0  -0.084016  -0.227982  0  3.875409  0
C  C40  1  0.29164037  0.28096293  0.28253307  1  -0.014733  0  -0.067841  -0.021524  0  3.979843  0
C  C41  1  0.79163418  0.71903138  0.71746744  1  -0.01426  0  -0.067745  -0.021402  0  3.97946  0
C  C42  1  0.13139458  0.31963570  0.31989814  1  -0.059386  0  -0.085141  -0.231375  0  3.879336  0
C  C43  1  0.63137157  0.68035749  0.68010187  1  -0.059977  0  -0.085305  -0.231531  0  3.879235  0
C  C44  1  0.98234000  0.37456303  0.67759711  1  -0.023491  0  -0.08543  -0.153395  0  3.925178  0
C  C45  1  0.48233169  0.62544199  0.32240174  1  -0.023451  0  -0.085439  -0.153467  0  3.925367  0
C  C46  1  0.14695465  0.36885564  0.63212222  1  -0.073436  0  -0.019898  -0.039239  0  4.02865  0
C  C47  1  0.64694452  0.63114762  0.36787675  1  -0.073305  0  -0.019906  -0.039207  0  4.028828  0
C  C48  1  0.30733769  0.31699868  0.63346543  1  0.046515  0  -0.087706  -0.158851  0  3.948457  0
C  C49  1  0.80732384  0.68300412  0.36653457  1  0.04638  0  -0.087659  -0.158839  0  3.948689  0
C  C50  1  0.30318632  0.26808671  0.67920234  1  -0.025729  0  -0.012169  0.074004  0  4.059532  0
C  C51  1  0.80317994  0.73191399  0.32079658  1  -0.025794  0  -0.012138  0.073969  0  4.059476  0
C  C52  1  0.13740452  0.27485841  0.72682916  1  0.000202  0  -0.007715  -0.022584  0  3.93839  0
C  C53  1  0.63740194  0.72514336  0.27316876  1  5.5e-05  0  -0.007715  -0.022527  0  3.93838  0
C  C54  1  0.97620328  0.32964000  0.72654187  1  -0.015039  0  -0.011015  0.101375  0  4.073619  0
C  C55  1  0.47619656  0.67036235  0.27345591  1  -0.015108  0  -0.011023  0.101416  0  4.073919  0
C  C56  1  0.45991398  0.21120424  0.67984229  1  -0.057104  0  -0.091355  -0.135315  0  4.019686  0
C  C57  1  0.95990978  0.78879466  0.32015713  1  -0.057018  0  -0.091418  -0.135386  0  4.019641  0
C  C58  1  0.45368169  0.16475257  0.72523406  1  -0.040307  0  -0.090738  -0.133098  0  4.014886  0
C  C59  1  0.95367750  0.83524893  0.27476433  1  -0.040405  0  -0.090787  -0.133174  0  4.015079  0
C  C60  1  0.29080390  0.17129537  0.77441001  1  0.008737  0  -0.010755  0.069468  0  4.049478  0
C  C61  1  0.79080951  0.82870775  0.22558898  1  0.008753  0  -0.010726  0.069512  0  4.049932  0
C  C62  1  0.13116327  0.22687581  0.77442805  1  -0.050867  0  -0.0004  0.005114  0  3.946132  0
C  C63  1  0.63116967  0.77312850  0.22557206  1  -0.050748  0  -0.000398  0.005001  0  3.946448  0
C  C64  1  0.96613181  0.23329711  0.82230018  1  -0.016968  0  -0.014532  -0.020461  0  4.011684  0
C  C65  1  0.46613859  0.76670629  0.17769711  1  -0.017258  0  -0.014395  -0.020356  0  4.011622  0
C  C66  1  0.80839282  0.29028060  0.82151641  1  0.455446  0  0.079358  0.266684  0  4.115698  0
C  C67  1  0.30839742  0.70972324  0.17847984  1  0.455032  0  0.079289  0.266394  0  4.115858  0
C  C68  1  0.81357346  0.33627631  0.77546399  1  0.002817  0  -0.119327  -0.311941  0  4.034214  0
C  C69  1  0.31357355  0.66372768  0.22453278  1  0.003107  0  -0.119307  -0.311908  0  4.034422  0
C  C70  1  0.28452377  0.12593030  0.82295163  1  -0.049964  0  -0.076653  -0.136908  0  3.924196  0
C  C71  1  0.78452498  0.87407304  0.17704792  1  -0.049973  0  -0.076573  -0.136742  0  3.924163  0
C  C72  1  0.12036729  0.13169870  0.86849647  1  -0.025904  0  -0.017445  -0.043846  0  4.018649  0
C  C73  1  0.62036628  0.86830396  0.13150206  1  -0.026022  0  -0.017432  -0.043889  0  4.018702  0
C  C74  1  0.96078837  0.18415076  0.86760000  1  -0.012307  0  -0.080765  -0.125035  0  3.930016  0
C  C75  1  0.46079513  0.81585304  0.13239839  1  -0.01189  0  -0.080893  -0.125119  0  3.930242  0
C  C76  1  0.61741461  0.88689993  0.88857702  1  1.580341  0  0.256772  0.672676  0  4.127872  0
C  C77  1  0.11740935  0.11310315  0.11142099  1  1.580118  0  0.256798  0.6728  0  4.127736  0
C  C78  1  0.61686775  0.91746646  0.08051628  1  1.572589  0  0.26936  0.648823  0  4.0877  0
C  C79  1  0.11686571  0.08253683  0.91948065  1  1.572683  0  0.26932  0.648756  0  4.087827  0
O  O80  1  0.47821899  0.58564632  0.58245171  1  -1.259642  0  -0.240139  -0.599573  0  2.308913  0
O  O81  1  0.97822914  0.41436239  0.41753915  1  -1.259502  0  -0.24025  -0.599687  0  2.309047  0
O  O82  1  0.81789299  0.56776891  0.44243012  1  -1.256806  0  -0.237458  -0.595216  0  2.33667  0
O  O83  1  0.31791080  0.43224501  0.55757692  1  -1.25695  0  -0.237547  -0.595303  0  2.336446  0
O  O84  1  0.81812181  0.58884131  0.58585199  1  -1.257496  0  -0.239909  -0.600306  0  2.320319  0
O  O85  1  0.31812864  0.41115375  0.41415112  1  -1.257645  0  -0.239843  -0.600381  0  2.320165  0
O  O86  1  0.97925412  0.43988700  0.56355871  1  -1.256333  0  -0.236337  -0.594121  0  2.347961  0
O  O87  1  0.47924205  0.56010765  0.43643201  1  -1.256841  0  -0.236362  -0.594237  0  2.347945  0
O  O88  1  0.65091997  0.45132990  0.49268418  1  -1.412205  0  -0.448377  -0.998607  0  2.214244  0
O  O89  1  0.15091596  0.54867299  0.50731210  1  -1.412118  0  -0.448309  -0.998455  0  2.214315  0
O  O90  1  0.78551131  0.93912895  0.06231686  1  -1.252177  0  -0.235512  -0.594807  0  2.346488  0
O  O91  1  0.28551230  0.06087136  0.93767730  1  -1.252096  0  -0.235544  -0.594815  0  2.346441  0
O  O92  1  0.44559326  0.91162614  0.91502690  1  -1.256229  0  -0.240886  -0.597848  0  2.30541  0
O  O93  1  0.94558321  0.08837434  0.08497687  1  -1.256129  0  -0.240894  -0.5979  0  2.305152  0
O  O94  1  0.44665121  0.93299457  0.05854402  1  -1.257077  0  -0.236701  -0.59562  0  2.330543  0
O  O95  1  0.94665697  0.06701138  0.94145873  1  -1.257239  0  -0.236667  -0.595553  0  2.330587  0
O  O96  1  0.28572320  0.08595502  0.08354226  1  -1.264329  0  -0.239869  -0.602373  0  2.332965  0
O  O97  1  0.78573213  0.91405072  0.91645410  1  -1.2644  0  -0.239881  -0.602415  0  2.332988  0
O  O98  1  0.61376884  0.04875263  0.00752632  1  -1.434554  0  -0.447793  -0.998231  0  2.211795  0
O  O99  1  0.11377118  0.95125105  0.99247170  1  -1.434633  0  -0.447782  -0.998162  0  2.211799  0
O  O100  1  0.65556709  0.29353968  0.86869338  1  -1.115119  0  -0.346602  -0.439955  0  2.28899  0
O  O101  1  0.15557842  0.70646382  0.13129967  1  -1.115206  0  -0.346689  -0.43962  0  2.28907  0
